data_image0
_chemical_formula_structural       NC12NC2H8C12OCH12C13NH9Zn2C4O8
_chemical_formula_sum              "N3 C44 H29 O9 Zn2"
_cell_length_a       17.80743265337812
_cell_length_b       10.29979075500242
_cell_length_c       10.298528502251457
_cell_angle_alpha    85.53676387981383
_cell_angle_beta     91.53111058914057
_cell_angle_gamma    89.41792083348324

_space_group_name_H-M_alt    "P 1"
_space_group_IT_number       1

loop_
  _space_group_symop_operation_xyz
  'x, y, z'

loop_
  _atom_site_type_symbol
  _atom_site_label
  _atom_site_symmetry_multiplicity
  _atom_site_fract_x
  _atom_site_fract_y
  _atom_site_fract_z
  _atom_site_occupancy
  N   N1        1.0  0.7072017041862249  0.4071097181602586  0.6010775465657181  1.0000
  C   C1        1.0  0.6563780738996563  0.4366893920578568  0.5323691929655128  1.0000
  C   C2        1.0  0.5931484632405002  0.4734843581564685  0.4469046501843977  1.0000
  C   C3        1.0  0.6048681891106625  0.5275435147854446  0.3202672083312925  1.0000
  C   C4        1.0  0.5435461493008151  0.562834162234209  0.2371990173373677  1.0000
  C   C5        1.0  0.4703500475006877  0.5443293180224604  0.28010827516690506  1.0000
  C   C6        1.0  0.4576535597315877  0.49015121633547176  0.4072139191402  1.0000
  C   C7        1.0  0.519832915399785  0.45486382779772033  0.49026559641102896  1.0000
  C   C8        1.0  0.3798893899049704  0.4705313764486037  0.4529838623253036  1.0000
  C   C9        1.0  0.3610962742060582  0.49767936407185065  0.5800401733378227  1.0000
  C   C10       1.0  0.287870218226205  0.4792160809664261  0.6229899955670144  1.0000
  C   C11       1.0  0.23249433908720174  0.43335028502511647  0.5397215848127452  1.0000
  C   C12       1.0  0.15713175215649713  0.41433375249976256  0.5840725266602098  1.0000
  N   N2        1.0  0.09654556914508082  0.39904573932215687  0.6197276328591117  1.0000
  C   C13       1.0  0.2505959823820697  0.40603322075907444  0.41320831462443874  1.0000
  C   C14       1.0  0.32376918509049324  0.4245113665781757  0.3700025763657866  1.0000
  H   H1        1.0  0.6613317952250206  0.5423776903370521  0.28582539926533435  1.0000
  H   H2        1.0  0.5527383461727913  0.6049607788790852  0.1394062785997634  1.0000
  H   H3        1.0  0.42370650103967034  0.5739846631137631  0.21450820169140083  1.0000
  H   H4        1.0  0.5113393568524439  0.4113519382462056  0.5879339749038298  1.0000
  H   H5        1.0  0.40276476087246943  0.5348389083498182  0.6456177949498902  1.0000
  H   H6        1.0  0.2744211723282911  0.5010321063592973  0.7210080344262458  1.0000
  H   H7        1.0  0.20821037803928702  0.37014083569294254  0.34804360213130425  1.0000
  H   H8        1.0  0.33669011198317916  0.40115970037714505  0.2722880158406027  1.0000
  C   C15       1.0  0.9019447448519574  0.021708497177117744  0.6104449317510573  1.0000
  C   C16       1.0  0.8801943019042934  0.010947137443904962  0.7408578417994653  1.0000
  C   C17       1.0  0.8691135707604171  0.8883592356323661  0.8069030439322946  1.0000
  C   C18       1.0  0.8800593340298433  0.7756676625369793  0.7407855832208305  1.0000
  C   C19       1.0  0.9018097436542073  0.7844368085165698  0.610371738942858  1.0000
  C   C20       1.0  0.9126324077701055  0.9079006018000138  0.5459323975461966  1.0000
  C   C21       1.0  0.8461074111455438  0.8780283348373087  0.9448740563793426  1.0000
  C   C22       1.0  0.7912904768085266  0.7882817675183458  0.9873195451146853  1.0000
  C   C23       1.0  0.7697053464714224  0.7788309174800134  0.11704126286637463  1.0000
  C   C24       1.0  0.8024510963406901  0.8584675733508751  0.20596910146556205  1.0000
  C   C25       1.0  0.857467980188292  0.9488184324821014  0.1654051342986399  1.0000
  C   C26       1.0  0.878820226272305  0.9579131017694813  0.03514549444239145  1.0000
  O   O1        1.0  0.8921916886054162  0.03076995535792082  0.250947535601899  1.0000
  C   C27       1.0  0.8760815437462348  0.03203349062922968  0.3855291507198715  1.0000
  H   H9        1.0  0.9102654726004472  0.353259826102076  0.5607748843942559  1.0000
  H   H10       1.0  0.8708242437289321  0.0981497443575823  0.7908441779088168  1.0000
  H   H11       1.0  0.8725685722309621  0.6809045498545035  0.7918011724744518  1.0000
  H   H12       1.0  0.9294125337317334  0.9154341277207254  0.44532437506116906  1.0000
  H   H13       1.0  0.9100602617329241  0.4603275691853292  0.5606606885753954  1.0000
  H   H14       1.0  0.7644215133867294  0.7266326449266841  0.9198145429094327  1.0000
  H   H15       1.0  0.7272750547609701  0.709727774535484  0.1486918807481078  1.0000
  H   H16       1.0  0.7846445450692967  0.8490513065382822  0.3057955337594013  1.0000
  H   H17       1.0  0.9218566371227989  0.026576946262201858  0.005036960353171471  1.0000
  H   H18       1.0  0.8890576069933328  0.9352177968089621  0.43677973618323224  1.0000
  H   H19       1.0  0.911531739729459  0.10592335171405874  0.42944693931721967  1.0000
  H   H20       1.0  0.8161080911571484  0.058181199266785104  0.39709367076215873  1.0000
  C   C28       1.0  0.9018878896188203  0.4031989205753998  0.22899198266199927  1.0000
  C   C29       1.0  0.8237821018133127  0.42467849137608127  0.22275878895460724  1.0000
  C   C30       1.0  0.7842130443394038  0.43542197071473376  0.10245427349971825  1.0000
  C   C31       1.0  0.8237597224652106  0.4244140965233456  0.9874980364934265  1.0000
  C   C32       1.0  0.9018665773842429  0.40294638321938914  0.991824703335904  1.0000
  C   C33       1.0  0.9404305187824477  0.3924735013523464  0.11301454147273016  1.0000
  C   C34       1.0  0.7016395179020882  0.4581244743196719  0.09687220632963545  1.0000
  C   C35       1.0  0.6684542463485309  0.5467425017164098  0.17619095335901136  1.0000
  C   C36       1.0  0.5907278789441042  0.5680653247660934  0.17081708361819814  1.0000
  C   C37       1.0  0.5451525324431514  0.5011509825707869  0.08629084792716513  1.0000
  C   C38       1.0  0.577596283300997  0.41278464673346327  0.007040567760080662  1.0000
  C   C39       1.0  0.6553146480943869  0.3913676251735523  0.01217745218215338  1.0000
  C   C40       1.0  0.46513314701911684  0.5231535458359184  0.08087910283599455  1.0000
  N   N3        1.0  0.4008029569417308  0.5408422460208184  0.07652845971946955  1.0000
  H   H21       1.0  0.04941510790729442  0.3618038969718355  0.4481547045409866  1.0000
  H   H22       1.0  0.7934406468446311  0.4313147147208302  0.31182049431906833  1.0000
  H   H23       1.0  0.7937002672525567  0.43438385587181294  0.894353370537784  1.0000
  H   H24       1.0  0.0006281583857430357  0.37592349373156075  0.11708370482911756  1.0000
  H   H25       1.0  0.04953232222137127  0.363191266604455  0.7926159767993917  1.0000
  H   H26       1.0  0.7027127039790724  0.6008010181633361  0.2411302098645376  1.0000
  H   H27       1.0  0.5662243801850363  0.6369628746543887  0.23234440127300404  1.0000
  H   H28       1.0  0.5428183205182973  0.3601870458483736  0.9415045708509338  1.0000
  H   H29       1.0  0.6790807229500221  0.3213551651653663  0.9511616898861652  1.0000
  Zn  Zn1       1.0  0.8195579370662395  0.40477915829821454  0.606467046802593  1.0000
  Zn  Zn2       1.0  0.984189335350476  0.40136570221131124  0.6143487280075002  1.0000
  C   C41       1.0  0.9018698434387666  0.3978204969748207  0.8476334251746978  1.0000
  C   C42       1.0  0.9018792264540558  0.408325964838319  0.37318256302827657  1.0000
  C   C43       1.0  0.9018315207816685  0.6402667397494175  0.6052096100871445  1.0000
  C   C44       1.0  0.901917493208247  0.16587816290198276  0.6156064448232453  1.0000
  O   O2        1.0  0.964353077684941  0.4087455931883865  0.42456529648130814  1.0000
  O   O3        1.0  0.9643474143782492  0.3948091548374157  0.8022323315878993  1.0000
  O   O4        1.0  0.9643156260936743  0.5905875790445412  0.6064733452650246  1.0000
  O   O5        1.0  0.9643848097930476  0.21296717946850663  0.620324182727022  1.0000
  O   O6        1.0  0.8393624064430513  0.5931776822072805  0.6004915893866083  1.0000
  O   O7        1.0  0.8393941944499163  0.3974008183281552  0.7962505063056045  1.0000
  O   O8        1.0  0.8393998578582172  0.4113372119389984  0.41858190961074526  1.0000
  O   O9        1.0  0.8394315899621754  0.2155587888981343  0.6143408932371572  1.0000
