data_image0
_chemical_formula_structural       NC6NCNCH5C6BrH5C6NCOH5Zn2C4O8
_chemical_formula_sum              "N4 C25 H15 Br1 O9 Zn2"
_cell_length_a       14.933214217465613
_cell_length_b       9.276564384272257
_cell_length_c       9.273733555595832
_cell_angle_alpha    86.1252681461469
_cell_angle_beta     89.97675588165802
_cell_angle_gamma    90.62004099175812

_space_group_name_H-M_alt    "P 1"
_space_group_IT_number       1

loop_
  _space_group_symop_operation_xyz
  'x, y, z'

loop_
  _atom_site_type_symbol
  _atom_site_label
  _atom_site_symmetry_multiplicity
  _atom_site_fract_x
  _atom_site_fract_y
  _atom_site_fract_z
  _atom_site_occupancy
  N   N1        1.0  0.8529645776386571  0.5620257536485901  0.40806194925356576  1.0000
  C   C1        1.0  0.7754804606444498  0.5630118271623974  0.4070707668600593  1.0000
  C   C2        1.0  0.6790896786630163  0.5642412075445494  0.4058348850268765  1.0000
  C   C3        1.0  0.6306750581845699  0.4694977129335338  0.5010887369663695  1.0000
  C   C4        1.0  0.5371483075955732  0.470569057997767  0.500011650698108  1.0000
  C   C5        1.0  0.4911334853540458  0.5663296144658028  0.40373529529845564  1.0000
  C   C6        1.0  0.39454496098273745  0.5642433420407662  0.4058328127128197  1.0000
  N   N2        1.0  0.3170484769369759  0.5625029259154877  0.4075822325078824  1.0000
  C   C7        1.0  0.5396543247476491  0.6622694624371471  0.30727877495342626  1.0000
  N   N3        1.0  0.4949627057954469  0.7618014701935589  0.20721088976979773  1.0000
  C   C8        1.0  0.6336554787160076  0.6602422718495042  0.30931700298309384  1.0000
  H   H1        1.0  0.6652072902258628  0.39479883869473403  0.5761899502579315  1.0000
  H   H2        1.0  0.5006034484136329  0.3964985609538829  0.5744809727965527  1.0000
  H   H3        1.0  0.5317562275608054  0.8321005362391696  0.13653310068644875  1.0000
  H   H4        1.0  0.425254222353038  0.7670974224821285  0.2018864817891497  1.0000
  H   H5        1.0  0.6713201314343262  0.7335674960784666  0.2355968022849053  1.0000
  C   C9        1.0  0.08231289720105052  0.1387845433667989  0.4081934380017158  1.0000
  C   C10       1.0  0.07081220080242079  0.22085789878700132  0.27648157321745126  1.0000
  C   C11       1.0  0.06764564171492318  0.1544648736200851  0.1459914597429921  1.0000
  C   C12       1.0  0.07595941344041401  0.0050528689476732015  0.14473543187969318  1.0000
  C   C13       1.0  0.08588216567345902  0.9212631784261631  0.2744570420995791  1.0000
  C   C14       1.0  0.08770865220418417  0.9857331138147257  0.4074631942488671  1.0000
  Br  Br1       1.0  0.07228576135106923  0.9147690374477516  0.9656795028895995  1.0000
  H   H6        1.0  0.05609803602308763  0.4038253925326758  0.642529231712289  1.0000
  H   H7        1.0  0.06639255692626736  0.33748325959131353  0.2740188077234176  1.0000
  H   H8        1.0  0.05957957639000844  0.21959908921967997  0.045610162211092486  1.0000
  H   H9        1.0  0.09002488616314097  0.8049940976117823  0.2713455071314057  1.0000
  H   H10       1.0  0.1371505104143007  0.6902610238505091  0.6318784517711753  1.0000
  C   C15       1.0  0.08493058591306184  0.5577152752756883  0.984605305470374  1.0000
  C   C16       1.0  0.002573406410788517  0.549353599982294  0.05864897918600697  1.0000
  C   C17       1.0  0.9211050584007199  0.5526794321409922  0.9837807879929715  1.0000
  C   C18       1.0  0.9219998841176176  0.5690544890657347  0.8324181188914928  1.0000
  C   C19       1.0  0.002996854286768879  0.5752628894167762  0.7571736997277809  1.0000
  C   C20       1.0  0.08509095605239697  0.5668023907986959  0.8310513976504188  1.0000
  N   N4        1.0  0.8385029825619967  0.547536641244647  0.06388498396524156  1.0000
  C   C21       1.0  0.7574019057323753  0.48104674319706664  0.01724320846164073  1.0000
  O   O1        1.0  0.7564448199141842  0.40472973506001025  0.9099586603286253  1.0000
  H   H11       1.0  0.2965885688121488  0.658066828444654  0.08061429706093226  1.0000
  H   H12       1.0  0.8602161331345405  0.5785924276697814  0.7718591550147234  1.0000
  H   H13       1.0  0.2283134721993807  0.6282963965659989  0.5457446280739631  1.0000
  H   H14       1.0  0.8384265617795936  0.5858801744431033  0.16727125532792408  1.0000
  H   H15       1.0  0.6962730736675493  0.4930779584188833  0.07771688835396562  1.0000
  Zn  Zn1       1.0  0.9868891437451838  0.5621596752256977  0.40793184808672023  1.0000
  Zn  Zn2       1.0  0.18312382304042252  0.5623573008607976  0.4077241792066426  1.0000
  C   C22       1.0  0.08502204635333  0.5593397865730796  0.6710598980054825  1.0000
  C   C23       1.0  0.08499307492772794  0.565179012746791  0.1445962669069345  1.0000
  C   C24       1.0  0.08668303901258989  0.8255801676051018  0.4018581380872406  1.0000
  C   C25       1.0  0.08333200428382731  0.298936899880339  0.4137981052271573  1.0000
  O   O2        1.0  0.1594840448377649  0.5677526177676289  0.19821189126689487  1.0000
  O   O3        1.0  0.15946865045754433  0.5569150824786935  0.6172862438340678  1.0000
  O   O4        1.0  0.16080891942821307  0.7719075723084323  0.39990391782261603  1.0000
  O   O5        1.0  0.15814370895074015  0.3527601370263999  0.41559410927906426  1.0000
  O   O6        1.0  0.011869190869608696  0.7717568389941436  0.4000619180775833  1.0000
  O   O7        1.0  0.010528932918323795  0.5567660809328834  0.6174441657503391  1.0000
  O   O8        1.0  0.010544326709647897  0.5676035473664542  0.19836808046659682  1.0000
  O   O9        1.0  0.009203990773722475  0.35261105747076366  0.41575040654133444  1.0000
