data_image0
_chemical_formula_structural       NC5NC4H6C6NH7C9H8Zn2C4O8
_chemical_formula_sum              "N3 C28 H21 Zn2 O8"
_cell_length_a       13.854160002989762
_cell_length_b       9.274771166103582
_cell_length_c       9.275155815604961
_cell_angle_alpha    85.94411296578332
_cell_angle_beta     90.35750573089034
_cell_angle_gamma    90.59704847255895

_space_group_name_H-M_alt    "P 1"
_space_group_IT_number       1

loop_
  _space_group_symop_operation_xyz
  'x, y, z'

loop_
  _atom_site_type_symbol
  _atom_site_label
  _atom_site_symmetry_multiplicity
  _atom_site_fract_x
  _atom_site_fract_y
  _atom_site_fract_z
  _atom_site_occupancy
  N   N1        1.0  0.9131728388005333  0.5649397728774934  0.40738422028250226  1.0000
  C   C1        1.0  0.8407657273197809  0.5896476861892046  0.34830580286635904  1.0000
  C   C2        1.0  0.7506902575942388  0.6203849948269113  0.2748099900211345  1.0000
  C   C3        1.0  0.6632174085732583  0.5915141494384284  0.3465700333931143  1.0000
  C   C4        1.0  0.5755478452246895  0.6203850089593357  0.27480996682788494  1.0000
  C   C5        1.0  0.4856575853167983  0.5896475396328487  0.34830589473537144  1.0000
  N   N2        1.0  0.4133992677597965  0.5649397093686435  0.4073842203117097  1.0000
  C   C6        1.0  0.5753880719838534  0.6787333737585363  0.1313077408418939  1.0000
  C   C7        1.0  0.6628427354206053  0.7097538312398168  0.05944035976501462  1.0000
  C   C8        1.0  0.6626033231565347  0.7682444510350416  0.9044514134116711  1.0000
  C   C9        1.0  0.7504651606278303  0.6787333716556485  0.1313076505874431  1.0000
  H   H1        1.0  0.663365599590131  0.5462423363104172  0.45763832427084244  1.0000
  H   H2        1.0  0.507431191192333  0.7000445105950623  0.07563157994577296  1.0000
  H   H3        1.0  0.7278318696502567  0.8362122570434914  0.8805460500487619  1.0000
  H   H4        1.0  0.5981233922803888  0.8362122594810824  0.8805461151147749  1.0000
  H   H5        1.0  0.6616693203405725  0.6770880591472871  0.8330793321707322  1.0000
  H   H6        1.0  0.8182541506963885  0.7000446223628725  0.07563149433441699  1.0000
  C   C10       1.0  0.1603306490612992  0.14134995367584316  0.4081697993635614  1.0000
  C   C11       1.0  0.13757325952065136  0.22354838464489293  0.2792871204781193  1.0000
  C   C12       1.0  0.12382437826873734  0.1573816327039066  0.14958673749956763  1.0000
  C   C13       1.0  0.13287950707961116  0.00763088358241748  0.1478296014255691  1.0000
  C   C14       1.0  0.1538445203042873  0.9240977721726396  0.27494180902173637  1.0000
  C   C15       1.0  0.16625069052906016  0.988518564225483  0.406611191201155  1.0000
  N   N3        1.0  0.10165401521805849  0.24266735847047752  0.019287563350994363  1.0000
  H   H7        1.0  0.2702959431716363  0.22372755757127025  0.723585369326877  1.0000
  H   H8        1.0  0.13270411048765318  0.34013632401603316  0.27873350599516367  1.0000
  H   H9        1.0  0.12275796851764824  0.9552839602417552  0.04803824225996968  1.0000
  H   H10       1.0  0.15808079145417084  0.8078981970761289  0.2708142173873178  1.0000
  H   H11       1.0  0.23641369347865357  0.6933009705639652  0.6212054569008516  1.0000
  H   H12       1.0  0.09500351013775682  0.3547408573439914  0.019240752267183584  1.0000
  H   H13       1.0  0.09163339133732773  0.19435806179263082  0.9218663676895575  1.0000
  C   C16       1.0  0.16149665961068962  0.5612881693108636  0.9841659533012659  1.0000
  C   C17       1.0  0.08647874097195161  0.6315740200593569  0.051851504764379046  1.0000
  C   C18       1.0  0.017992953047853304  0.7114464988156513  0.9704197787138846  1.0000
  C   C19       1.0  0.02325635152558347  0.7227056690955376  0.8198172667068383  1.0000
  C   C20       1.0  0.09632647886248175  0.6516448116688724  0.750424776191422  1.0000
  C   C21       1.0  0.16508464520565047  0.568580266501612  0.8306149629108246  1.0000
  C   C22       1.0  0.9528430101313965  0.8059481421187937  0.7360667219194466  1.0000
  C   C23       1.0  0.8938845468677866  0.8756523454128508  0.6659104282272255  1.0000
  C   C24       1.0  0.822349058732014  0.9602266104740367  0.5807761513339733  1.0000
  H   H14       1.0  0.3847224767982824  0.44490820522976  0.09733793689666648  1.0000
  H   H15       1.0  0.08211432245079761  0.6275754946254426  0.1686503991412136  1.0000
  H   H16       1.0  0.9614119620096714  0.7656628563231208  0.025133055968938667  1.0000
  H   H17       1.0  0.09815729349978783  0.6584277102710827  0.6332660010791673  1.0000
  H   H18       1.0  0.31398854381528496  0.4850462844837798  0.5571862747234502  1.0000
  H   H19       1.0  0.8419922524644501  0.9643710636761609  0.4647695398137142  1.0000
  H   H20       1.0  0.7501016832431376  0.9088607971896279  0.5958969311107083  1.0000
  H   H21       1.0  0.8206846038251101  0.07160797642627205  0.6170759558219321  1.0000
  Zn  Zn1       1.0  0.057527394595960214  0.564935964424615  0.4073925590984516  1.0000
  Zn  Zn2       1.0  0.2690446808266244  0.5649318159179473  0.40738773955873486  1.0000
  C   C25       1.0  0.16436414437395808  0.5614554889743775  0.6706285830739256  1.0000
  C   C26       1.0  0.16221025412882434  0.5684141125708028  0.14415185363812189  1.0000
  C   C27       1.0  0.16510235193427228  0.8283361555808006  0.4011626246601703  1.0000
  C   C28       1.0  0.16147196260762747  0.3015317135858606  0.4136178920796467  1.0000
  O   O1        1.0  0.24271940678530834  0.5707977768993187  0.19784276586818872  1.0000
  O   O2        1.0  0.2443917084268188  0.5590675842646853  0.6169336000507957  1.0000
  O   O3        1.0  0.24498674464597026  0.774577110647573  0.3993379293805227  1.0000
  O   O4        1.0  0.24212429800368074  0.35528825990562973  0.4154383284594887  1.0000
  O   O5        1.0  0.08444770523841377  0.7745795204398536  0.39934197019175877  1.0000
  O   O6        1.0  0.08385268079965447  0.5590717264384051  0.6169375608283236  1.0000
  O   O7        1.0  0.0821803715260725  0.5708018538790931  0.19784499397225508  1.0000
  O   O8        1.0  0.08158526312643066  0.35529232749912626  0.41544066463658985  1.0000
