data_image0
_chemical_formula_structural       NC8NC6H8C9H10C6NO2H3Zn2C4O8
_chemical_formula_sum              "N3 C33 H21 O10 Zn2"
_cell_length_a       17.457602349358154
_cell_length_b       9.272676604525723
_cell_length_c       9.273395971720358
_cell_angle_alpha    85.21432368177585
_cell_angle_beta     92.78021970675468
_cell_angle_gamma    92.2282679722568

_space_group_name_H-M_alt    "P 1"
_space_group_IT_number       1

loop_
  _space_group_symop_operation_xyz
  'x, y, z'

loop_
  _atom_site_type_symbol
  _atom_site_label
  _atom_site_symmetry_multiplicity
  _atom_site_fract_x
  _atom_site_fract_y
  _atom_site_fract_z
  _atom_site_occupancy
  N   N1        1.0  0.7323542340652428  0.6296349915100508  0.48121901141488754  1.0000
  C   C1        1.0  0.6710275153424632  0.5787517835944975  0.46917344859144733  1.0000
  C   C2        1.0  0.5947345152713429  0.5154593082523453  0.45419940462447483  1.0000
  C   C3        1.0  0.5363444148869492  0.5591908518253008  0.5376607878901611  1.0000
  C   C4        1.0  0.46150082227745004  0.4982438653615118  0.5233810418271188  1.0000
  C   C5        1.0  0.399527275383259  0.5444151491343554  0.6117691251563546  1.0000
  C   C6        1.0  0.3251529712975768  0.5655782933969982  0.5498894344891401  1.0000
  C   C7        1.0  0.2667616904624022  0.6091042984340462  0.6334698161880756  1.0000
  C   C8        1.0  0.1909553504246758  0.6309662049712377  0.5691309844770192  1.0000
  N   N2        1.0  0.1300199330233089  0.6485360904093509  0.517402697405811  1.0000
  C   C9        1.0  0.2822533233137923  0.6317312685674064  0.7794963907886414  1.0000
  C   C10       1.0  0.35584467202805936  0.610995629478239  0.8418089698069515  1.0000
  C   C11       1.0  0.4142248221138243  0.5676642587036393  0.7587382935622535  1.0000
  C   C12       1.0  0.44633384359375783  0.3928296853887163  0.42404364297798347  1.0000
  C   C13       1.0  0.5047133312617439  0.3494029892660193  0.3410283435918694  1.0000
  C   C14       1.0  0.5787721358150884  0.41046836531609476  0.35591993987571735  1.0000
  H   H1        1.0  0.5490364733913995  0.6419279823605608  0.6121218987627473  1.0000
  H   H2        1.0  0.3128455996525513  0.5501426806404017  0.43641299700280495  1.0000
  H   H3        1.0  0.23749737699363593  0.6653444680858871  0.8450558626124924  1.0000
  H   H4        1.0  0.3676476541199421  0.6281656266403086  0.9548789080841668  1.0000
  H   H5        1.0  0.47056951066847696  0.5504751675201361  0.8099032283295119  1.0000
  H   H6        1.0  0.3896038049320833  0.34260181814561896  0.41196110422480836  1.0000
  H   H7        1.0  0.4925428849539392  0.26791985591638534  0.26524134296906143  1.0000
  H   H8        1.0  0.623522556886362  0.3758832619490835  0.29092389230663307  1.0000
  C   C15       1.0  0.9290185891461192  0.21551309450871045  0.4972694624404414  1.0000
  C   C16       1.0  0.8981696392471552  0.27691105779131586  0.614015847536437  1.0000
  C   C17       1.0  0.8743373557351181  0.1903700699321047  0.7349287110389195  1.0000
  C   C18       1.0  0.8805847663192568  0.03983850994564309  0.7431668068372504  1.0000
  C   C19       1.0  0.9101777482126195  0.976942671705015  0.625193950989539  1.0000
  C   C20       1.0  0.9333628661940732  0.06264705938115898  0.5013653616044182  1.0000
  C   C21       1.0  0.8539915425117508  0.9535263995454558  0.8794163783930671  1.0000
  C   C22       1.0  0.815226128133045  0.8057378682065712  0.8615162406778158  1.0000
  C   C23       1.0  0.8961827896589455  0.81639842078846  0.9299626472914526  1.0000
  H   H9        1.0  0.9463221792028634  0.5176039776962345  0.26229340111426946  1.0000
  H   H10       1.0  0.8941209494447111  0.39324258329489736  0.6135086855492231  1.0000
  H   H11       1.0  0.851504408380453  0.24179476205398243  0.8235525026591183  1.0000
  H   H12       1.0  0.9138369117271844  0.8607024112903169  0.6268673805702469  1.0000
  H   H13       1.0  0.9536679354320461  0.9904462729599275  0.14975156862183847  1.0000
  H   H14       1.0  0.8321685843859048  0.011673618221775825  0.9683200327597444  1.0000
  H   H15       1.0  0.8117878182971974  0.7674604747923266  0.7511551013462563  1.0000
  H   H16       1.0  0.7706623455647437  0.77397760129647  0.9407410626334062  1.0000
  H   H17       1.0  0.9418978568618749  0.7844662694918341  0.8612621440018308  1.0000
  H   H18       1.0  0.8989322854812589  0.790862386473177  0.04920998923125861  1.0000
  C   C24       1.0  0.9316500999689515  0.6435319814486511  0.07544184544117605  1.0000
  C   C25       1.0  0.8634284260475776  0.6732038968052383  0.1399648567925298  1.0000
  C   C26       1.0  0.794922029020535  0.6892268612091803  0.05738625947876219  1.0000
  C   C27       1.0  0.7926929743009747  0.6758727282087835  0.9078309124150524  1.0000
  C   C28       1.0  0.860886317856408  0.6486703983129456  0.8418784418815228  1.0000
  C   C29       1.0  0.9307313088491443  0.6346281808302583  0.923192979848229  1.0000
  N   N3        1.0  0.7216556896199161  0.6912948278109121  0.8233118447642407  1.0000
  O   O1        1.0  0.655131341271173  0.7191240258904545  0.8881687859105005  1.0000
  O   O2        1.0  0.7191510290565709  0.67929167419443  0.6900364763570943  1.0000
  H   H19       1.0  0.09872560688430876  0.48992180823763976  0.206360151037698  1.0000
  H   H20       1.0  0.7434038021272555  0.7106899354039489  0.11118606754135163  1.0000
  H   H21       1.0  0.044675750553879956  0.5354945590638118  0.6616547170934357  1.0000
  Zn  Zn1       1.0  0.8471119358961567  0.635085484722525  0.491669157112309  1.0000
  Zn  Zn2       1.0  0.015262143488317116  0.6430736469335125  0.5069643121375799  1.0000
  C   C30       1.0  0.9308738160326115  0.6305648966794137  0.7629219072003053  1.0000
  C   C31       1.0  0.931502108726405  0.6475961406740902  0.23571187954527084  1.0000
  C   C32       1.0  0.9325439684169164  0.9025809431420797  0.49483878810292903  1.0000
  C   C33       1.0  0.9298318899938066  0.37557835770624637  0.5037950620004248  1.0000
  O   O3        1.0  0.9952645367023137  0.65198528283293  0.2953043682709027  1.0000
  O   O4        1.0  0.9947334997583367  0.6322375010272794  0.7149376664577155  1.0000
  O   O5        1.0  0.9960813070859944  0.851893842029076  0.4984585800578569  1.0000
  O   O6        1.0  0.9939166721665895  0.4323289505603259  0.5117833412735899  1.0000
  O   O7        1.0  0.8684573498364877  0.8458301783713946  0.48685012274922784  1.0000
  O   O8        1.0  0.8671095514757274  0.626175571150458  0.7033291405642388  1.0000
  O   O9        1.0  0.8676405900937909  0.645923320921344  0.28369410670765305  1.0000
  O   O10       1.0  0.8662927253847362  0.42626697719523016  0.5001731878804416  1.0000
