data_image0
_chemical_formula_structural       NC8NH4C6ClH5C9H9Zn2C4O8
_chemical_formula_sum              "N2 C27 H18 Cl1 Zn2 O8"
_cell_length_a       14.927258825633057
_cell_length_b       9.276545438789551
_cell_length_c       9.273585224739815
_cell_angle_alpha    86.17382153224601
_cell_angle_beta     90.102070233187
_cell_angle_gamma    89.40960858786079

_space_group_name_H-M_alt    "P 1"
_space_group_IT_number       1

loop_
  _space_group_symop_operation_xyz
  'x, y, z'

loop_
  _atom_site_type_symbol
  _atom_site_label
  _atom_site_symmetry_multiplicity
  _atom_site_fract_x
  _atom_site_fract_y
  _atom_site_fract_z
  _atom_site_occupancy
  N   N1        1.0  0.8318080690941142  0.5619604031718424  0.411086525210415  1.0000
  C   C1        1.0  0.7542816449259637  0.5619603768212571  0.4110865348463566  1.0000
  C   C2        1.0  0.6578490032394334  0.5619603770895685  0.41108658992356784  1.0000
  C   C3        1.0  0.6112685975775399  0.4727473678507019  0.3213026935171919  1.0000
  C   C4        1.0  0.5175572865670584  0.47274727774171926  0.3213026650021944  1.0000
  C   C5        1.0  0.4700330053996015  0.5619604292364841  0.41108650214329867  1.0000
  C   C6        1.0  0.5166134108865741  0.6511734476939673  0.5008702904940379  1.0000
  C   C7        1.0  0.610324788888617  0.651173537800044  0.5008703190149577  1.0000
  C   C8        1.0  0.37360036422377535  0.5619603310719476  0.4110864471522079  1.0000
  N   N2        1.0  0.29607393937  0.5619604123728266  0.41108645880081474  1.0000
  H   H1        1.0  0.6473319020545774  0.4033344162443946  0.2514458019547028  1.0000
  H   H2        1.0  0.48222824642459766  0.4033343935582279  0.25144589916431004  1.0000
  H   H3        1.0  0.4805501064095366  0.7205863993002743  0.5707271820565274  1.0000
  H   H4        1.0  0.6456537622144372  0.7205864127678248  0.5707271929025564  1.0000
  C   C9        1.0  0.06664874773494422  0.1385228350143335  0.4108489129513233  1.0000
  C   C10       1.0  0.06684064003998058  0.22082647674502343  0.27781555268648295  1.0000
  C   C11       1.0  0.05888549915841934  0.15442859478140547  0.14767768768546063  1.0000
  C   C12       1.0  0.05055128424531152  0.0048465038841925025  0.1485710438332679  1.0000
  C   C13       1.0  0.05173881072861275  0.9209797073535444  0.2791625750098212  1.0000
  C   C14       1.0  0.06124195705168023  0.9853870038373408  0.41133657589813366  1.0000
  Cl  Cl1       1.0  0.05800932507275025  0.25938289334689474  0.9831304057435291  1.0000
  H   H5        1.0  0.11271638385242877  0.4037776836766592  0.6374523807714816  1.0000
  H   H6        1.0  0.07103513668691663  0.3375181306384245  0.2749619356360349  1.0000
  H   H7        1.0  0.04400493115065161  0.9531048419250512  0.04788862076169065  1.0000
  H   H8        1.0  0.04735621666779277  0.804692390151084  0.27651222523947283  1.0000
  H   H9        1.0  0.03146916719789105  0.6890127324780069  0.6444013007200464  1.0000
  C   C15       1.0  0.06350377217195799  0.5576666553853136  0.9878387460012106  1.0000
  C   C16       1.0  0.14365599475845814  0.525551452112774  0.06377702358625914  1.0000
  C   C17       1.0  0.2249377473237204  0.5064143224342444  0.9915056272735484  1.0000
  C   C18       1.0  0.22533359333439892  0.5202031037475632  0.8394543414660709  1.0000
  C   C19       1.0  0.14615606046294305  0.5496072115370263  0.762510783312436  1.0000
  C   C20       1.0  0.0643869150885885  0.5662431363122133  0.8343467252052887  1.0000
  C   C21       1.0  0.30818190938367596  0.47334682675388523  0.0830017890374406  1.0000
  C   C22       1.0  0.37886355224197876  0.374410680800001  0.022706873940217864  1.0000
  C   C23       1.0  0.39640742154945174  0.5356366726155131  0.026703594357037952  1.0000
  H   H10       1.0  0.9157570288133768  0.5388358262322046  0.26911212840417553  1.0000
  H   H11       1.0  0.14327371322926652  0.5185926075523375  0.18094252519386858  1.0000
  H   H12       1.0  0.28617669876126484  0.5071744176830304  0.7785125100394539  1.0000
  H   H13       1.0  0.9304730449048084  0.6686980919415138  0.5457356083175346  1.0000
  H   H14       1.0  0.3023533343625848  0.46404721966239326  0.20275828327922632  1.0000
  H   H15       1.0  0.3670512087574582  0.3373054747506852  0.9131076721003138  1.0000
  H   H16       1.0  0.41647398786075485  0.3068985337876746  0.10618929183386094  1.0000
  H   H17       1.0  0.39521206063807424  0.5962899325653446  0.9195193709564897  1.0000
  H   H18       1.0  0.4442629612250324  0.5623801492945004  0.1125264830141326  1.0000
  Zn  Zn1       1.0  0.9657852125886722  0.5619566187766362  0.41109483560219595  1.0000
  Zn  Zn2       1.0  0.1620968968941412  0.5619524791053894  0.4110899770407104  1.0000
  C   C24       1.0  0.06425465412048004  0.558877617356921  0.6743352867590295  1.0000
  C   C25       1.0  0.06362958761159061  0.5650333012883961  0.14784966834433957  1.0000
  C   C26       1.0  0.062253334902060635  0.8252534247255884  0.40550083484706145  1.0000
  C   C27       1.0  0.06563085098336807  0.298655762280593  0.41668419610337387  1.0000
  O   O1        1.0  0.138171113692666  0.5674977532372856  0.20154894817936753  1.0000
  O   O2        1.0  0.13870916059626426  0.5564089314942884  0.6206319038569812  1.0000
  O   O3        1.0  0.1370920672951239  0.7715107799316833  0.403546182777923  1.0000
  O   O4        1.0  0.1397881398273244  0.35239591402141307  0.41863456119686715  1.0000
  O   O5        1.0  0.9880939026639282  0.7715131838635183  0.40355025144011686  1.0000
  O   O6        1.0  0.989710984820149  0.5564130670681648  0.6206358966661873  1.0000
  O   O7        1.0  0.989172936489068  0.5675018210060951  0.2015512080730606  1.0000
  O   O8        1.0  0.9907899627986471  0.3523999725716061  0.41863692914619693  1.0000
