data_image0
_chemical_formula_structural       NC12NC2H8C6NO2H5C6SCNH4Zn2C4O8
_chemical_formula_sum              "N4 C31 H17 O10 S1 Zn2"
_cell_length_a       17.80743265337812
_cell_length_b       9.273423624067512
_cell_length_c       9.275272990362726
_cell_angle_alpha    84.98365443547802
_cell_angle_beta     91.20895717805207
_cell_angle_gamma    90.04087344610896

_space_group_name_H-M_alt    "P 1"
_space_group_IT_number       1

loop_
  _space_group_symop_operation_xyz
  'x, y, z'

loop_
  _atom_site_type_symbol
  _atom_site_label
  _atom_site_symmetry_multiplicity
  _atom_site_fract_x
  _atom_site_fract_y
  _atom_site_fract_z
  _atom_site_occupancy
  N   N1        1.0  0.7205803821341806  0.5763033681456164  0.4446864775924477  1.0000
  C   C1        1.0  0.6701656113001303  0.6098172540776183  0.3683293194706361  1.0000
  C   C2        1.0  0.6074445802243599  0.6515060590771349  0.27335062541608046  1.0000
  C   C3        1.0  0.6199149952330811  0.7127655487901108  0.13261592863327443  1.0000
  C   C4        1.0  0.5590843070206407  0.7527605006267473  0.04030074198344558  1.0000
  C   C5        1.0  0.48563266653079784  0.7317951528784921  0.08798680359503042  1.0000
  C   C6        1.0  0.47218322234054655  0.6703990545721146  0.22924175639427924  1.0000
  C   C7        1.0  0.5338713004996987  0.6304078810022198  0.3215385941208584  1.0000
  C   C8        1.0  0.3941472228294386  0.648167811777999  0.2801068673340432  1.0000
  C   C9        1.0  0.3751120049035  0.6771004743917812  0.42124041051053474  1.0000
  C   C10       1.0  0.30163053949869556  0.6561808986265778  0.46897150392502224  1.0000
  C   C11       1.0  0.24623703342232392  0.6060379110290066  0.3765003423279589  1.0000
  C   C12       1.0  0.17061101314139324  0.5844903871215845  0.4257884909788281  1.0000
  N   N2        1.0  0.10981304765524301  0.5671676277516866  0.46541277182499385  1.0000
  C   C13       1.0  0.26457795383810506  0.5769122401966713  0.2359702397937378  1.0000
  C   C14       1.0  0.3380074903197891  0.5978507820040868  0.1879548191233118  1.0000
  H   H1        1.0  0.6765835940632635  0.7295725800442281  0.09433995642468518  1.0000
  H   H2        1.0  0.5688585964355948  0.8004895458581953  0.9316214231552364  1.0000
  H   H3        1.0  0.4393883614243353  0.7653632304584763  0.015082790114030244  1.0000
  H   H4        1.0  0.5247873542975361  0.581141417889623  0.4300808868944028  1.0000
  H   H5        1.0  0.4168008928233997  0.7177434168766135  0.4940647624449732  1.0000
  H   H6        1.0  0.28800020264165027  0.6794703098329329  0.5778487585137047  1.0000
  H   H7        1.0  0.22217856466601812  0.5376727560017871  0.16360357984569165  1.0000
  H   H8        1.0  0.351099079524246  0.5728528309045071  0.07941597753835739  1.0000
  C   C15       1.0  0.9128728455104291  0.14815110093108452  0.4554089885922983  1.0000
  C   C16       1.0  0.9023666002205922  0.2334624236542364  0.3234907035743957  1.0000
  C   C17       1.0  0.8988128991209213  0.17070031885060488  0.19113880911518555  1.0000
  C   C18       1.0  0.9060117674295323  0.020078843890087846  0.19157865823697812  1.0000
  C   C19       1.0  0.915197472847678  0.9337202806252076  0.3215591464361063  1.0000
  C   C20       1.0  0.9175276747006929  0.9953085907664861  0.4547030715879763  1.0000
  N   N3        1.0  0.8886751114001022  0.2599378256120528  0.05711362626725447  1.0000
  O   O1        1.0  0.8814681465135737  0.40771404591772464  0.05681052182075019  1.0000
  O   O2        1.0  0.8860351409648317  0.204750337921513  0.9390475126702665  1.0000
  H   H9        1.0  0.8921284783494356  0.4076865757892916  0.6911658533968168  1.0000
  H   H10       1.0  0.8987083142984943  0.3500144569433592  0.3236812598803263  1.0000
  H   H11       1.0  0.9037783250435695  0.968590164650264  0.09123907636394302  1.0000
  H   H12       1.0  0.9186960088926597  0.8174407802954039  0.3181108001166184  1.0000
  H   H13       1.0  0.8830249104638533  0.8619990780141503  0.8025646680220343  1.0000
  C   C21       1.0  0.9164502545287403  0.5755336466782062  0.031313704595034686  1.0000
  C   C22       1.0  0.8596313060135715  0.6513520484020412  0.095957950191363  1.0000
  C   C23       1.0  0.8001477248152478  0.7147134374128634  0.013074458109315628  1.0000
  C   C24       1.0  0.7964024332283373  0.7037495408424854  0.8640572605449091  1.0000
  C   C25       1.0  0.8528208159114425  0.6305020356271125  0.7974597242342178  1.0000
  C   C26       1.0  0.9139502787426694  0.5679259807665036  0.8787983492515643  1.0000
  S   S1        1.0  0.7193747671106449  0.7837117290616473  0.7582023173596726  1.0000
  C   C27       1.0  0.7667571197479047  0.950063550562215  0.7242928292982681  1.0000
  N   N4        1.0  0.7978401099475689  0.05911104574896388  0.7020787763741634  1.0000
  H   H14       1.0  0.8602203247106097  0.65872563128449  0.21189356324033626  1.0000
  H   H15       1.0  0.7566072257065217  0.7714355566800233  0.06517946482993309  1.0000
  H   H16       1.0  0.8498431862230956  0.625704463598665  0.6811665739754855  1.0000
  H   H17       1.0  0.09202518676897053  0.4747155598886892  0.7911611118343029  1.0000
  Zn  Zn1       1.0  0.8329044791539824  0.5736630650470113  0.4506759604002973  1.0000
  Zn  Zn2       1.0  0.9974888487706831  0.5697960590994693  0.4594350688529114  1.0000
  C   C28       1.0  0.9143895667965192  0.5636176694311356  0.7186103203836058  1.0000
  C   C29       1.0  0.9160055679668389  0.5798432312217581  0.1915009446313447  1.0000
  C   C30       1.0  0.9166609100669613  0.8352294614319646  0.44908613261917907  1.0000
  C   C31       1.0  0.913734158785989  0.3082297068307538  0.46102520778260164  1.0000
  O   O3        1.0  0.9783152030479982  0.5798157656526237  0.24858528696895488  1.0000
  O   O4        1.0  0.976995655277568  0.5607090825191434  0.6681735242126915  1.0000
  O   O5        1.0  0.9788289472914409  0.7800390458735857  0.45053078960457826  1.0000
  O   O6        1.0  0.9764818552484863  0.3604858149075536  0.4662279103857352  1.0000
  O   O7        1.0  0.8539114165116423  0.782973310560185  0.4438831158708283  1.0000
  O   O8        1.0  0.8520781342436403  0.563645080917176  0.6615257720954661  1.0000
  O   O9        1.0  0.8533976869055568  0.582751729357563  0.2419358000103291  1.0000
  O   O10       1.0  0.8515643387271473  0.3634217673243787  0.4595785316217973  1.0000
