data_image0
_chemical_formula_structural       NC9NC5H8C6H6C6OCH7Zn2C4O8
_chemical_formula_sum              "N2 C31 H21 O9 Zn2"
_cell_length_a       17.807436237873137
_cell_length_b       10.681118228259551
_cell_length_c       9.27389158865715
_cell_angle_alpha    86.07629789491638
_cell_angle_beta     89.08663702953788
_cell_angle_gamma    88.3900060031841

_space_group_name_H-M_alt    "P 1"
_space_group_IT_number       1

loop_
  _space_group_symop_operation_xyz
  'x, y, z'

loop_
  _atom_site_type_symbol
  _atom_site_label
  _atom_site_symmetry_multiplicity
  _atom_site_fract_x
  _atom_site_fract_y
  _atom_site_fract_z
  _atom_site_occupancy
  N   N1        1.0  0.7120684460600446  0.3254428809803087  0.39850377130975256  1.0000
  C   C1        1.0  0.6515165086884882  0.2914124217766696  0.3862678820481975  1.0000
  C   C2        1.0  0.5761965538662931  0.24908227800682803  0.37104776436557896  1.0000
  C   C3        1.0  0.5584440992063426  0.1792895415510063  0.2545010469090838  1.0000
  C   C4        1.0  0.48531257572620284  0.13808198758457157  0.23963158109261148  1.0000
  C   C5        1.0  0.4288848932401475  0.16630283600163542  0.3412728131768554  1.0000
  C   C6        1.0  0.3511646707602998  0.12262135725782052  0.3255615193273249  1.0000
  C   C7        1.0  0.2889045705564168  0.2016870939395172  0.3543521601603916  1.0000
  C   C8        1.0  0.2156306980989359  0.16028387373430508  0.33949787941935333  1.0000
  C   C9        1.0  0.1523193329121982  0.2419480647509091  0.36869243163929677  1.0000
  N   N2        1.0  0.1014299859413099  0.30760043413611493  0.39216404526433846  1.0000
  C   C10       1.0  0.204033462877711  0.03956592586630503  0.295824821028867  1.0000
  C   C11       1.0  0.2654362203440137  0.9604867574313638  0.26702486814053406  1.0000
  C   C12       1.0  0.33859131467993364  0.0015077363900612981  0.28165434353247654  1.0000
  C   C13       1.0  0.4473280446087833  0.23657422159082817  0.45806286230275145  1.0000
  C   C14       1.0  0.5205129419039076  0.27759680484980853  0.47275956525932794  1.0000
  H   H1        1.0  0.601070510797504  0.15697348193969907  0.17490429814356712  1.0000
  H   H2        1.0  0.47266769955572707  0.08558393657123539  0.14759495827597657  1.0000
  H   H3        1.0  0.29730879929253  0.29592650836072565  0.38640393456669364  1.0000
  H   H4        1.0  0.1476026457579376  0.006651741892565784  0.28406513972149594  1.0000
  H   H5        1.0  0.2563375216232525  0.8670275449340497  0.23364071162809186  1.0000
  H   H6        1.0  0.3852936509121945  0.9379422549745905  0.26051176556228706  1.0000
  H   H7        1.0  0.4054143348825359  0.2583819240753149  0.5390964241800851  1.0000
  H   H8        1.0  0.5336895296498743  0.3312626450703111  0.5636400471645868  1.0000
  C   C15       1.0  0.9067527964867949  0.9487715526092926  0.3953400753506513  1.0000
  C   C16       1.0  0.9394016169721285  0.8736591151816432  0.5092789899079457  1.0000
  C   C17       1.0  0.9394016056772668  0.7427768770070625  0.5092789241920079  1.0000
  C   C18       1.0  0.9067527836915588  0.6842619576406922  0.3953401378685162  1.0000
  C   C19       1.0  0.8741309904838291  0.7593624979863324  0.28149537870984  1.0000
  C   C20       1.0  0.8741310017625873  0.8902547560267243  0.2814954370269629  1.0000
  H   H9        1.0  0.8737357972066615  0.2558736064782934  0.280117582516602  1.0000
  H   H10       1.0  0.9649933474487812  0.9159650742972325  0.598589643116809  1.0000
  H   H11       1.0  0.9649932551515226  0.6874610497314864  0.5985896191584672  1.0000
  H   H12       1.0  0.8485359232487413  0.7171021430297491  0.19217306421146918  1.0000
  H   H13       1.0  0.8485359035893547  0.9455265828726935  0.19217305281121402  1.0000
  H   H14       1.0  0.8737360749517804  0.3939442398059669  0.28011718808397323  1.0000
  C   C21       1.0  0.9079835858474036  0.31314368133160153  0.972044733942549  1.0000
  C   C22       1.0  0.9695105739336862  0.3632189081627677  0.03961664289830069  1.0000
  C   C23       1.0  0.026775950457944564  0.42284068583815104  0.9588744951576404  1.0000
  C   C24       1.0  0.0227191134426743  0.43269165111151064  0.8074999374530192  1.0000
  C   C25       1.0  0.9627705466003263  0.38178582060600186  0.7385601303489286  1.0000
  C   C26       1.0  0.9055219683431612  0.31988975292153987  0.8186354557661044  1.0000
  O   O1        1.0  0.08625115315143717  0.4714680557679345  0.03311271933650262  1.0000
  C   C27       1.0  0.1481193479025382  0.5345395789774783  0.9650290024218083  1.0000
  H   H15       1.0  0.7292793595211863  0.2444166634989024  0.08597166736142725  1.0000
  H   H16       1.0  0.06599830033728304  0.47852891973206846  0.7418731245359163  1.0000
  H   H17       1.0  0.962164331232338  0.3882678307695555  0.6214888252582891  1.0000
  H   H18       1.0  0.7863499648687607  0.26860199656191175  0.5451331871227945  1.0000
  H   H19       1.0  0.12795201060877748  0.6202086173418293  0.9009618001549008  1.0000
  H   H20       1.0  0.17944569930865234  0.4709521032552284  0.8941062671903626  1.0000
  H   H21       1.0  0.18657804391969512  0.5627106634223031  0.04924635712675806  1.0000
  Zn  Zn1       1.0  0.8244297503650053  0.3202906611305205  0.39668259982280657  1.0000
  Zn  Zn2       1.0  0.9890686289826025  0.31274254028098425  0.3939970671143542  1.0000
  C   C28       1.0  0.9059856033514481  0.3136257909037403  0.6586117267373557  1.0000
  C   C29       1.0  0.9075145734361727  0.3194089093133974  0.1320680523537019  1.0000
  C   C30       1.0  0.9067656134746498  0.5451929948910803  0.38959607521785955  1.0000
  C   C31       1.0  0.9067345069098188  0.08784020393086123  0.4010837816399557  1.0000
  O   O2        1.0  0.9698367649992964  0.31864164111825155  0.18475419417600492  1.0000
  O   O3        1.0  0.9686205123812947  0.30866326198317573  0.6038869127828024  1.0000
  O   O4        1.0  0.9692495338073956  0.49565675832799866  0.38665488458932296  1.0000
  O   O5        1.0  0.9692076877073577  0.13164815544631248  0.4019861152061541  1.0000
  O   O6        1.0  0.8442906354571035  0.5013850485422986  0.3886935526398645  1.0000
  O   O7        1.0  0.8436616142510074  0.31439305616977764  0.6059255039754452  1.0000
  O   O8        1.0  0.8448778719581221  0.32437137785273906  0.18679105231183213  1.0000
  O   O9        1.0  0.8442487943488737  0.13737788408502194  0.40402308141417076  1.0000
