data_image0
_chemical_formula_structural       NC6NCNCH5C6NH5C9H6Zn2C4O8
_chemical_formula_sum              "N4 C27 H16 Zn2 O8"
_cell_length_a       14.933214217465613
_cell_length_b       9.274771166103582
_cell_length_c       9.275155815604963
_cell_angle_alpha    85.94411296578332
_cell_angle_beta     90.32327604629522
_cell_angle_gamma    90.63112361825276

_space_group_name_H-M_alt    "P 1"
_space_group_IT_number       1

loop_
  _space_group_symop_operation_xyz
  'x, y, z'

loop_
  _atom_site_type_symbol
  _atom_site_label
  _atom_site_symmetry_multiplicity
  _atom_site_fract_x
  _atom_site_fract_y
  _atom_site_fract_z
  _atom_site_occupancy
  N   N1        1.0  0.8471907610995458  0.5658130080498598  0.4065076198599815  1.0000
  C   C1        1.0  0.7697030507595102  0.5668014431835149  0.4055154563896506  1.0000
  C   C2        1.0  0.6733077883049466  0.5680337681787362  0.4042783514043499  1.0000
  C   C3        1.0  0.6252384950696656  0.47306332411386176  0.4996264669441317  1.0000
  C   C4        1.0  0.5317078396842458  0.47413723542484854  0.49854831475767747  1.0000
  C   C5        1.0  0.48534398328500067  0.5701271775477517  0.4021766838478682  1.0000
  C   C6        1.0  0.3887630631204204  0.5680359076317869  0.4042762769673475  1.0000
  N   N2        1.0  0.3112729212663735  0.5662913232847417  0.4060274283592622  1.0000
  C   C7        1.0  0.5335151353731418  0.6662968404547762  0.3056247096102511  1.0000
  N   N3        1.0  0.48846073672047896  0.7660672675328755  0.20545779657069474  1.0000
  C   C8        1.0  0.6275236786171765  0.6642647936667505  0.3076649545635681  1.0000
  H   H1        1.0  0.6600429942574805  0.39818551558441556  0.5748020007450956  1.0000
  H   H2        1.0  0.49543295681572563  0.39988930958455327  0.5730913321698876  1.0000
  H   H3        1.0  0.5249980277296281  0.8365347287065972  0.13471006449940104  1.0000
  H   H4        1.0  0.4187329505171753  0.7713759056422024  0.20012811946351605  1.0000
  H   H5        1.0  0.6649210708197009  0.7377656618104597  0.2338718000478119  1.0000
  C   C9        1.0  0.07648997422720671  0.14245953719747528  0.4070559397588813  1.0000
  C   C10       1.0  0.05537693916266751  0.22463620607272003  0.2781951068334147  1.0000
  C   C11       1.0  0.0426214949825974  0.15845630655859133  0.14850792209576813  1.0000
  C   C12       1.0  0.05102233778385237  0.008714216539335462  0.14674209354932155  1.0000
  C   C13       1.0  0.07047250620279577  0.9252011532367274  0.2738341757774643  1.0000
  C   C14       1.0  0.08198225807940827  0.9896338088752301  0.4054916486516573  1.0000
  N   N4        1.0  0.022053070311284673  0.2437208315842103  0.018230030390990574  1.0000
  H   H6        1.0  0.1785096327775434  0.22494229704857327  0.7223659485193403  1.0000
  H   H7        1.0  0.041632139572228784  0.9563576143261806  0.04696045055639275  1.0000
  H   H8        1.0  0.14707557376318728  0.6944833096337072  0.6200185613646929  1.0000
  H   H9        1.0  0.015883103114189723  0.3557879708128642  0.018189603460666778  1.0000
  H   H10       1.0  0.01275649510504073  0.19540195253504256  0.9208184540291583  1.0000
  C   C15       1.0  0.07757173369574932  0.5623988678475069  0.98305097438456  1.0000
  C   C16       1.0  0.007974298372184217  0.6326129815903313  0.050808539311478995  1.0000
  C   C17       1.0  0.9444370091202066  0.7124199697885614  0.9694425562047954  1.0000
  C   C18       1.0  0.949320096278357  0.7236841732718917  0.8188349915974807  1.0000
  C   C19       1.0  0.017110479612030955  0.6526931902463571  0.7493723574008522  1.0000
  C   C20       1.0  0.08090046634947304  0.5696943961030942  0.8294965397067342  1.0000
  C   C21       1.0  0.883994530566548  0.8068593124852749  0.7351520401091829  1.0000
  C   C22       1.0  0.8292961610539747  0.8765071358678375  0.6650523436038388  1.0000
  C   C23       1.0  0.7629295302648057  0.9610129940495608  0.5799867372146358  1.0000
  H   H11       1.0  0.28466818020047613  0.4462323667896841  0.09600867231863774  1.0000
  H   H12       1.0  0.8919443255616737  0.7665822208778785  0.02421014839185731  1.0000
  H   H13       1.0  0.21904518751692026  0.48630280566333317  0.5559249111964659  1.0000
  H   H14       1.0  0.7811533883796254  0.9651762313492139  0.4639612692072003  1.0000
  H   H15       1.0  0.695902450146804  0.9095780931327702  0.5951768708718078  1.0000
  H   H16       1.0  0.7613853419584076  0.0723927683419192  0.6162881394963668  1.0000
  Zn  Zn1       1.0  0.9811148560749846  0.565947240798007  0.40637738549544794  1.0000
  Zn  Zn2       1.0  0.177348781454153  0.5661453588569358  0.4061695199007002  1.0000
  C   C24       1.0  0.08023202591625105  0.5625689295861738  0.6695108515147316  1.0000
  C   C25       1.0  0.07823376683695488  0.5695254934928673  0.14303618970623644  1.0000
  C   C26       1.0  0.08091689366340549  0.8294503021146074  0.4000441844585024  1.0000
  C   C27       1.0  0.07754882119558236  0.3026423885056253  0.4125029368708325  1.0000
  O   O1        1.0  0.15292566240857175  0.5719861459016347  0.19664981716146454  1.0000
  O   O2        1.0  0.1544771304771135  0.5602575524304345  0.6157390460178251  1.0000
  O   O3        1.0  0.15502917184974951  0.7757676478255986  0.39814280414243197  1.0000
  O   O4        1.0  0.15237355371652372  0.35647605982628083  0.41424595102754114  1.0000
  O   O5        1.0  0.006090016847586362  0.7756165397625592  0.3983009544319578  1.0000
  O   O6        1.0  0.005537986404140937  0.5601081767601002  0.6158971162623338  1.0000
  O   O7        1.0  0.003986511254988833  0.5718367050300568  0.1968061547398383  1.0000
  O   O8        1.0  0.0034344029173258815  0.35632660956878975  0.41440239667858275  1.0000
