data_image0
_chemical_formula_structural       NC6NC2H4C9H10C6BrH4Zn2C4O8
_chemical_formula_sum              "N2 C27 H18 Br1 Zn2 O8"
_cell_length_a       14.927258858638513
_cell_length_b       10.297183801781406
_cell_length_c       9.27656775626242
_cell_angle_alpha    86.09344643719086
_cell_angle_beta     90.18620734994761
_cell_angle_gamma    89.99762792032334

_space_group_name_H-M_alt    "P 1"
_space_group_IT_number       1

loop_
  _space_group_symop_operation_xyz
  'x, y, z'

loop_
  _atom_site_type_symbol
  _atom_site_label
  _atom_site_symmetry_multiplicity
  _atom_site_fract_x
  _atom_site_fract_y
  _atom_site_fract_z
  _atom_site_occupancy
  N   N1        1.0  0.8403169022013101  0.40765465615007046  0.40992537414786034  1.0000
  C   C1        1.0  0.7627904110557743  0.4076546305619504  0.40992538474461826  1.0000
  C   C2        1.0  0.6663579034077798  0.40765473380265216  0.4099253348553709  1.0000
  C   C3        1.0  0.6190504464249325  0.38519687912262557  0.2833094086548471  1.0000
  C   C4        1.0  0.5253391348113272  0.3851969010384684  0.28330927524737803  1.0000
  C   C5        1.0  0.47854183945841405  0.4076545740299733  0.4099253535568179  1.0000
  C   C6        1.0  0.38210926481887164  0.4076546772732934  0.40992530366164776  1.0000
  N   N2        1.0  0.3045827736733362  0.40765465168517356  0.4099253142584056  1.0000
  C   C7        1.0  0.525849229449713  0.430112428712619  0.5365412797514186  1.0000
  C   C8        1.0  0.6195605410633183  0.4301124067967755  0.5365414131588881  1.0000
  H   H1        1.0  0.6545481745103872  0.367723400857775  0.18479495122263234  1.0000
  H   H2        1.0  0.48944451898406494  0.3677235787560018  0.18479494619972847  1.0000
  H   H3        1.0  0.4903515685705381  0.44758589863660836  0.6350558452229722  1.0000
  H   H4        1.0  0.6554551571078694  0.4475858177233156  0.635055852139734  1.0000
  C   C9        1.0  0.07245768117707696  0.026180886114236968  0.41012951768014005  1.0000
  C   C10       1.0  0.06953972578149603  0.03470311522615077  0.2585058106958411  1.0000
  C   C11       1.0  0.06804456469013354  0.9224528150242061  0.1808245516614293  1.0000
  C   C12       1.0  0.06952804340927621  0.7995268374579307  0.2579181396591441  1.0000
  C   C13       1.0  0.07245062394075807  0.7891185198215113  0.40973362847589523  1.0000
  C   C14       1.0  0.07389551440727882  0.9029129289031506  0.48484830067274803  1.0000
  C   C15       1.0  0.06488834202863351  0.9411024023850593  0.016832806178909813  1.0000
  C   C16       1.0  0.012270707861719911  0.8416778104744637  0.936622984061764  1.0000
  C   C17       1.0  0.11432107253924607  0.8419456334855463  0.9320456778666784  1.0000
  H   H5        1.0  0.0735905692852099  0.3504354518737247  0.46855499533637374  1.0000
  H   H6        1.0  0.06841342213033012  0.12941553119021965  0.19997069448127847  1.0000
  H   H7        1.0  0.06843084364569174  0.7114250268621822  0.2010085322963655  1.0000
  H   H8        1.0  0.07614632926041345  0.8956104073171296  0.6018291746003572  1.0000
  H   H9        1.0  0.07795865550202508  0.5622436886177435  0.6964703390709774  1.0000
  H   H10       1.0  0.06387469903199962  0.041352915529595746  0.9641229762973982  1.0000
  H   H11       1.0  0.9825097273455816  0.7586188396389179  0.0021954744922889624  1.0000
  H   H12       1.0  0.9804599978308178  0.8816513411131041  0.8346785022975558  1.0000
  H   H13       1.0  0.14655020995987478  0.7590501570972904  0.9948384527762731  1.0000
  H   H14       1.0  0.14215430693683162  0.8820733158305483  0.8274246326194437  1.0000
  C   C18       1.0  0.07159907783882002  0.40391653450092857  0.9868067728923005  1.0000
  C   C19       1.0  0.9919912040810329  0.4351893859530169  0.057401388899020134  1.0000
  C   C20       1.0  0.9163640954871735  0.4771626824004557  0.9786786249489805  1.0000
  C   C21       1.0  0.9189243530325459  0.48871326618752375  0.8281767878885136  1.0000
  C   C22       1.0  0.9967759811975233  0.4560371333976678  0.755855837749786  1.0000
  C   C23       1.0  0.07330924149510026  0.411382910588449  0.8330564215663276  1.0000
  Br  Br1       1.0  0.8154148988166192  0.5472050178824786  0.7208962180868266  1.0000
  H   H15       1.0  0.19483970565354858  0.2859256081519297  0.27770217507585593  1.0000
  H   H16       1.0  0.8559680838582792  0.5019303234110901  0.03498316498078102  1.0000
  H   H17       1.0  0.996634928051394  0.4626728000170181  0.6388019315958126  1.0000
  H   H18       1.0  0.2207096548991111  0.3979689384233105  0.5536686401743434  1.0000
  Zn  Zn1       1.0  0.9742940288503548  0.4076512474380451  0.40993368441057837  1.0000
  Zn  Zn2       1.0  0.17060568189106173  0.40764752419299605  0.40992882921312  1.0000
  C   C24       1.0  0.07298400790924209  0.4047964692492854  0.673099787264559  1.0000
  C   C25       1.0  0.07191784681991842  0.4105039426591237  0.14676286687836027  1.0000
  C   C26       1.0  0.07243573093543693  0.6448564047955188  0.4040666851856545  1.0000
  C   C27       1.0  0.07246605697598568  0.1704424470601978  0.41579604658826086  1.0000
  O   O1        1.0  0.1465240778966742  0.41270765676189686  0.2004437536554613  1.0000
  O   O2        1.0  0.14737377831881854  0.40258894563817565  0.6194148012351508  1.0000
  O   O3        1.0  0.14693003647073555  0.5964403928017421  0.40216866717660055  1.0000
  O   O4        1.0  0.14696775253847816  0.21885621793919172  0.41768977967467324  1.0000
  O   O5        1.0  0.9979318912113904  0.5964425536944675  0.4021727339431019  1.0000
  O   O6        1.0  0.9983756328856622  0.4025926665862116  0.619418790364733  1.0000
  O   O7        1.0  0.997525929022704  0.4127113171571875  0.20044601045082922  1.0000
  O   O8        1.0  0.9979696038792389  0.21885986999623944  0.4176921445034574  1.0000
