data_image0
_chemical_formula_structural       NC12NC2H8C6BrH5C6NCH7Zn2C4O8
_chemical_formula_sum              "N3 C31 H20 Br1 Zn2 O8"
_cell_length_a       19.240039667572717
_cell_length_b       9.276564384272257
_cell_length_c       9.273390368590327
_cell_angle_alpha    86.11919172510322
_cell_angle_beta     89.99083702737411
_cell_angle_gamma    90.58593109150864

_space_group_name_H-M_alt    "P 1"
_space_group_IT_number       1

loop_
  _space_group_symop_operation_xyz
  'x, y, z'

loop_
  _atom_site_type_symbol
  _atom_site_label
  _atom_site_symmetry_multiplicity
  _atom_site_fract_x
  _atom_site_fract_y
  _atom_site_fract_z
  _atom_site_occupancy
  N   N1        1.0  0.6622979877127458  0.5613235723034982  0.40887276064737604  1.0000
  C   C1        1.0  0.6021496193575154  0.5613236645920376  0.40887266963788765  1.0000
  C   C2        1.0  0.5273315828622658  0.5613237932099588  0.4088725171512839  1.0000
  C   C3        1.0  0.49050207987069255  0.49095899972586216  0.5236971988441044  1.0000
  C   C4        1.0  0.4178307223147422  0.4908368952944351  0.5237933435905573  1.0000
  C   C5        1.0  0.380999348437983  0.5613238933131868  0.4088722643871292  1.0000
  C   C6        1.0  0.41854365396685606  0.6318111012558696  0.29395140091467553  1.0000
  C   C7        1.0  0.4912137316818955  0.6316887367659729  0.29404768182518115  1.0000
  C   C8        1.0  0.3037942575703018  0.561323804842728  0.40887215856658393  1.0000
  C   C9        1.0  0.2659851912613576  0.43605083784361987  0.4554425634281744  1.0000
  C   C10       1.0  0.1933150906678584  0.436168465350622  0.4553411141440724  1.0000
  C   C11       1.0  0.1574619699382053  0.561323662125065  0.4088722262813988  1.0000
  C   C12       1.0  0.082643932153679  0.5613235387529023  0.4088725023470061  1.0000
  N   N2        1.0  0.022495615072347205  0.5613234958772073  0.40887273368686405  1.0000
  C   C13       1.0  0.19455636048177666  0.6864789424763853  0.3624032796522014  1.0000
  C   C14       1.0  0.26722764548092626  0.6865967680765523  0.36230164975840484  1.0000
  H   H1        1.0  0.5179414675597231  0.4364890254178089  0.6133486664567389  1.0000
  H   H2        1.0  0.3904662762025619  0.4372662659952093  0.6146820743375401  1.0000
  H   H3        1.0  0.39172156944041725  0.6853817599954442  0.20306261371184875  1.0000
  H   H4        1.0  0.5192041148994332  0.6861586029902336  0.20439652037984746  1.0000
  H   H5        1.0  0.29258948060045875  0.3374187137524032  0.49011287699337674  1.0000
  H   H6        1.0  0.16511615753902317  0.3385469710721858  0.4911569968102402  1.0000
  H   H7        1.0  0.16732547002808204  0.7841004096801889  0.32658741315623474  1.0000
  H   H8        1.0  0.2948098353937598  0.7852289795590792  0.3276312864343385  1.0000
  C   C15       1.0  0.840306098912056  0.13784650008825605  0.4092412902416229  1.0000
  C   C16       1.0  0.8314023355567732  0.21994615725196276  0.2775116864628302  1.0000
  C   C17       1.0  0.8289668838931326  0.15357072925185244  0.14701250174314917  1.0000
  C   C18       1.0  0.8354198116662038  0.004150313253593826  0.14576501047653312  1.0000
  C   C19       1.0  0.8430991971366689  0.920336162376931  0.27550264042100436  1.0000
  C   C20       1.0  0.8444941254755007  0.9847896021327034  0.4085165906345969  1.0000
  Br  Br1       1.0  0.8325990677463513  0.9138899377707596  0.9666973280453321  1.0000
  H   H9        1.0  0.8199195144976043  0.4028885534546085  0.6435604036148733  1.0000
  H   H10       1.0  0.8279724600610833  0.33657633360006134  0.27504424376179704  1.0000
  H   H11       1.0  0.8227235550921859  0.21872427140276504  0.046618407189475526  1.0000
  H   H12       1.0  0.8463150903640903  0.8040631634055988  0.2723952487514134  1.0000
  H   H13       1.0  0.8828300102974115  0.6892420059933789  0.6329929193620651  1.0000
  C   C21       1.0  0.842410087914246  0.5568210925037123  0.9856370402474304  1.0000
  C   C22       1.0  0.9062310671074497  0.5539557670408908  0.0592419685789054  1.0000
  C   C23       1.0  0.9690049063191175  0.564496011791666  0.983818152941117  1.0000
  C   C24       1.0  0.9695533089424048  0.578292255531013  0.8321783599482364  1.0000
  C   C25       1.0  0.9061439381827404  0.5787255993743243  0.7577659104125555  1.0000
  C   C26       1.0  0.8423901500786223  0.5658150651657681  0.8321208793748931  1.0000
  N   N3        1.0  0.033510071350335575  0.5904929124800866  0.7513796403674085  1.0000
  C   C27       1.0  0.10213414173142943  0.5906628669002625  0.8183676829367692  1.0000
  H   H14       1.0  0.732365303786837  0.48755035347998454  0.2715363205329504  1.0000
  H   H15       1.0  0.016885633784943014  0.5631690453266494  0.04494028589317866  1.0000
  H   H16       1.0  0.6798611317362344  0.45378093229990996  0.7367256765365341  1.0000
  H   H17       1.0  0.03130221154135682  0.6000501747969809  0.6384956299255795  1.0000
  H   H18       1.0  0.10710229840160522  0.6831703274261403  0.8877570658914227  1.0000
  H   H19       1.0  0.11010233270626334  0.48758089867665894  0.8840098193334492  1.0000
  H   H20       1.0  0.142919102291037  0.6015647505140669  0.7334677824948819  1.0000
  Zn  Zn1       1.0  0.7662432322094316  0.5613197885221675  0.4088810667907983  1.0000
  Zn  Zn2       1.0  0.918550330902251  0.5613156414960778  0.4088762002310502  1.0000
  C   C28       1.0  0.8423639457578226  0.5583700683270691  0.6721222311263954  1.0000
  C   C29       1.0  0.8424312895367198  0.5642671826938785  0.14563517574732643  1.0000
  C   C30       1.0  0.8436990547058663  0.8246383265957868  0.4029102254154826  1.0000
  C   C31       1.0  0.8410961200477116  0.29799719266230795  0.4148472597831063  1.0000
  O   O1        1.0  0.9002381240839794  0.5667582934932704  0.19933017017094712  1.0000
  O   O2        1.0  0.9001546696023137  0.5558747177256873  0.6184231291342863  1.0000
  O   O3        1.0  0.901232007759008  0.7708897196438511  0.40103252854507176  1.0000
  O   O4        1.0  0.8991607340087477  0.3517433007442985  0.41672066268692065  1.0000
  O   O5        1.0  0.7856327771280049  0.7708921292768516  0.4010366043290068  1.0000
  O   O6        1.0  0.7845554475373451  0.5558788591244435  0.6184271265874324  1.0000
  O   O7        1.0  0.7846389018575917  0.5667623662276935  0.19933243482991858  1.0000
  O   O8        1.0  0.7835615117259672  0.35174736431243403  0.41672303541321165  1.0000
