data_image0
_chemical_formula_structural       NC9NC5H8C6NO2H5C7ONH5Zn2C4O8
_chemical_formula_sum              "N4 C31 H18 O11 Zn2"
_cell_length_a       17.807436237873137
_cell_length_b       9.273392599741051
_cell_length_c       10.297855452804892
_cell_angle_alpha    85.66470054647645
_cell_angle_beta     89.38396818287444
_cell_angle_gamma    87.79638846343423

_space_group_name_H-M_alt    "P 1"
_space_group_IT_number       1

loop_
  _space_group_symop_operation_xyz
  'x, y, z'

loop_
  _atom_site_type_symbol
  _atom_site_label
  _atom_site_symmetry_multiplicity
  _atom_site_fract_x
  _atom_site_fract_y
  _atom_site_fract_z
  _atom_site_occupancy
  N   N1        1.0  0.6991842053598863  0.5421516076105222  0.5599670307146967  1.0000
  C   C1        1.0  0.6388089022019069  0.5030648586401434  0.5488619553420306  1.0000
  C   C2        1.0  0.563708660835671  0.4544452473854228  0.5350484474769366  1.0000
  C   C3        1.0  0.5460542129365937  0.3751527786377602  0.4298649186369616  1.0000
  C   C4        1.0  0.4731364230448363  0.3278230571670227  0.4163699992579768  1.0000
  C   C5        1.0  0.4168266328948345  0.35936643341988894  0.5080253029735353  1.0000
  C   C6        1.0  0.3393331226423207  0.3091947544624438  0.49376604664196505  1.0000
  C   C7        1.0  0.2766636797933936  0.400004736411771  0.5198935758244241  1.0000
  C   C8        1.0  0.2036048036869423  0.3524494624672072  0.5064118842477083  1.0000
  C   C9        1.0  0.1398690761133775  0.4462490270122084  0.5329094306947509  1.0000
  N   N2        1.0  0.08863857458858618  0.5216573870636247  0.5542127182898451  1.0000
  C   C10       1.0  0.1926333772278972  0.2137976360704459  0.4667767294867159  1.0000
  C   C11       1.0  0.2544455341040432  0.12297226931200016  0.44064077787545974  1.0000
  C   C12       1.0  0.3273873636534404  0.17008933940992899  0.4539190058670055  1.0000
  C   C13       1.0  0.435169498905378  0.4392079918602545  0.6134292140575552  1.0000
  C   C14       1.0  0.5081413156736976  0.4863262704495741  0.6267680249944281  1.0000
  H   H1        1.0  0.5885896462093768  0.3502019816086355  0.35808779506530203  1.0000
  H   H2        1.0  0.46055263966812077  0.26822089645146896  0.33331294866661554  1.0000
  H   H3        1.0  0.2845734658266916  0.5082638029640483  0.5489950633624118  1.0000
  H   H4        1.0  0.1363736165836116  0.17599230782073577  0.4561033673321109  1.0000
  H   H5        1.0  0.2458325679789026  0.015624674837009259  0.41034048842283455  1.0000
  H   H6        1.0  0.37442458408783724  0.09706291879355727  0.4347192868605025  1.0000
  H   H7        1.0  0.3933540859242889  0.4635594890323229  0.6864998759627844  1.0000
  H   H8        1.0  0.521246195325766  0.5472847278217403  0.7087859882178922  1.0000
  C   C15       1.0  0.8962058549437877  0.10825541256559769  0.5562391963144049  1.0000
  C   C16       1.0  0.8866450004542006  0.19213760981501607  0.4377272129788057  1.0000
  C   C17       1.0  0.870452032011888  0.12792546866561816  0.3236186251303405  1.0000
  C   C18       1.0  0.8632838146616816  0.9778863340353223  0.32484035565761027  1.0000
  C   C19       1.0  0.8740169438080101  0.8927743295088251  0.4424292504699576  1.0000
  C   C20       1.0  0.8916241631186103  0.9555420997335055  0.5579516722251292  1.0000
  N   N3        1.0  0.8459217782640314  0.9123193365620492  0.20694033192336467  1.0000
  O   O1        1.0  0.83607007936289  0.9959676410214597  0.09176973244121522  1.0000
  O   O2        1.0  0.8393041943779548  0.7787342646067035  0.2072454733961284  1.0000
  H   H9        1.0  0.8808782172796137  0.18545468260160705  0.8752619299772567  1.0000
  H   H10       1.0  0.8899304606126155  0.3088081497331664  0.43384104441148974  1.0000
  H   H11       1.0  0.8627802037618425  0.19627094898929026  0.23445889569006878  1.0000
  H   H12       1.0  0.8703871362713331  0.7763629371399168  0.44340747913284656  1.0000
  H   H13       1.0  0.8838643446236529  0.657806314457348  0.7735218195811634  1.0000
  C   C21       1.0  0.8939437116021707  0.532040633015217  0.1756532915325879  1.0000
  C   C22       1.0  0.8168885012175295  0.5708653790467771  0.17347019435932687  1.0000
  C   C23       1.0  0.777647108373828  0.5893235800359549  0.055365068214863866  1.0000
  C   C24       1.0  0.8167988833026741  0.5705456546795438  0.9382379759152085  1.0000
  C   C25       1.0  0.8938862961151145  0.5317568695781891  0.9385375882765609  1.0000
  C   C26       1.0  0.9319104709198117  0.5124278316046189  0.05771358656634851  1.0000
  C   C27       1.0  0.6963160246743112  0.6306698719252215  0.05563476530139443  1.0000
  O   O3        1.0  0.6681749645638525  0.6936917208644142  0.14997958040061476  1.0000
  N   N4        1.0  0.6484365465957679  0.5990853455879218  0.9516519344194204  1.0000
  H   H14       1.0  0.7871049673011791  0.5855818975673501  0.26409349007057026  1.0000
  H   H15       1.0  0.7878424167067071  0.5886998147802025  0.8463068914588594  1.0000
  H   H16       1.0  0.9912972303591735  0.48250160770364503  0.05864271893841089  1.0000
  H   H17       1.0  0.592148915477019  0.6350834796075209  0.9514613457621026  1.0000
  H   H18       1.0  0.6666529537851013  0.532329491336824  0.8795673614791641  1.0000
  Zn  Zn1       1.0  0.8115723426995601  0.5362335660056607  0.5583139649032867  1.0000
  Zn  Zn2       1.0  0.9762504818391329  0.52756366489999  0.5558764389951931  1.0000
  C   C28       1.0  0.8939265562306393  0.5260633782385  0.7943245425314539  1.0000
  C   C29       1.0  0.8938980567354573  0.5377355782277902  0.3198659659193366  1.0000
  C   C30       1.0  0.8924867202053556  0.7953890359608194  0.5524518918021408  1.0000
  C   C31       1.0  0.8953378459351036  0.26840819015456363  0.5617386832290874  1.0000
  O   O4        1.0  0.9563772641552755  0.5363503777122725  0.3673400157428074  1.0000
  O   O5        1.0  0.9564342519383091  0.5208672362235132  0.7450000908267109  1.0000
  O   O6        1.0  0.955270723581352  0.7383511547730279  0.5496862295755301  1.0000
  O   O7        1.0  0.9575407362702616  0.3188664724775998  0.5626537804532408  1.0000
  O   O8        1.0  0.8302820320718566  0.7449307613882354  0.5515366242702182  1.0000
  O   O9        1.0  0.8314455510578764  0.5274485761498131  0.7468504197659398  1.0000
  O   O10       1.0  0.8313885637141932  0.542931667943533  0.36918878287913404  1.0000
  O   O11       1.0  0.8325520358745757  0.32544775235420326  0.5645026449552931  1.0000
