data_image0
_chemical_formula_structural       NC11NC3H8C6SCOC6H10C7OC3OC4H12Zn2C4O8
_chemical_formula_sum              "N2 C45 H30 S1 O11 Zn2"
_cell_length_a       17.807433833752565
_cell_length_b       10.302038109246572
_cell_length_c       10.299374482448636
_cell_angle_alpha    85.55445882342694
_cell_angle_beta     88.50658755346606
_cell_angle_gamma    90.70325301409062

_space_group_name_H-M_alt    "P 1"
_space_group_IT_number       1

loop_
  _space_group_symop_operation_xyz
  'x, y, z'

loop_
  _atom_site_type_symbol
  _atom_site_label
  _atom_site_symmetry_multiplicity
  _atom_site_fract_x
  _atom_site_fract_y
  _atom_site_fract_z
  _atom_site_occupancy
  N   N1        1.0  0.7079469578918103  0.4384840331613162  0.5347795545021368  1.0000
  C   C1        1.0  0.6571089423368627  0.40374976213324176  0.601340053710683  1.0000
  C   C2        1.0  0.5938613274348107  0.3605431927784632  0.6841328204785324  1.0000
  C   C3        1.0  0.6055543539120676  0.2969789562374925  0.806847887545366  1.0000
  C   C4        1.0  0.5442148595296871  0.2554523059043996  0.8873568498376212  1.0000
  C   C5        1.0  0.4710278164866872  0.2771765459613604  0.8457915255346689  1.0000
  C   C6        1.0  0.4583581089061417  0.3408954062377847  0.7226162635030264  1.0000
  C   C7        1.0  0.3806035988299786  0.36395010919513676  0.6782703508589574  1.0000
  C   C8        1.0  0.3618403468924469  0.3471124395031442  0.5486830311855782  1.0000
  C   C9        1.0  0.2886233620787312  0.3687979710970519  0.5070736288655842  1.0000
  C   C10       1.0  0.233226763527792  0.4076398184892828  0.5942312812928412  1.0000
  C   C11       1.0  0.1578734269609865  0.4299839813646913  0.5512606161743914  1.0000
  N   N2        1.0  0.09729471692687082  0.4479470283437373  0.5167153288114232  1.0000
  C   C12       1.0  0.2512985875495364  0.4246881409067264  0.7232874733934758  1.0000
  C   C13       1.0  0.32446275783675843  0.40296762726552066  0.7651523102093127  1.0000
  C   C14       1.0  0.5205549113465676  0.3824174888410156  0.6421237170814278  1.0000
  H   H1        1.0  0.6620108451869399  0.27956071233533675  0.8402124958700619  1.0000
  H   H2        1.0  0.5533865509098658  0.2059893365093428  0.9820903441057878  1.0000
  H   H3        1.0  0.4243706021510413  0.24261369916186504  0.9092286454404923  1.0000
  H   H4        1.0  0.403525238316064  0.315494311259987  0.4799599899453526  1.0000
  H   H5        1.0  0.27519741202265413  0.35494413807315195  0.4070336296009909  1.0000
  H   H6        1.0  0.2088967774558452  0.4550836535748777  0.7914955738517662  1.0000
  H   H7        1.0  0.3373605972538197  0.4183665465988215  0.8650097416834699  1.0000
  H   H8        1.0  0.5120819094611972  0.43324243282553887  0.5476247180960938  1.0000
  C   C15       1.0  0.902553280075682  0.061935458971612754  0.5257103919224697  1.0000
  C   C16       1.0  0.8383433101797189  0.06516300847457733  0.4491674521746989  1.0000
  C   C17       1.0  0.8067485669176458  0.9498190968026455  0.4105825295075678  1.0000
  C   C18       1.0  0.8385849600978205  0.8300362959949915  0.4491022326953917  1.0000
  C   C19       1.0  0.90269559523032  0.8244857940266124  0.5257953662627604  1.0000
  C   C20       1.0  0.9343878113610813  0.9410815746944748  0.5636148525043041  1.0000
  S   S1        1.0  0.725245532835802  0.9553971177058174  0.31175169186618845  1.0000
  C   C21       1.0  0.7805055361084159  0.9652688995207546  0.1627613125121785  1.0000
  O   O1        1.0  0.7986285721770311  0.8604524720850437  0.11556898474683729  1.0000
  C   C22       1.0  0.805294355140295  0.09205287088431578  0.09611161540709845  1.0000
  C   C23       1.0  0.8584288851121045  0.09570727681612623  0.9921366856628118  1.0000
  C   C24       1.0  0.8825852213817613  0.21464499050202024  0.9292909094361518  1.0000
  C   C25       1.0  0.8540136632713774  0.33117847999966843  0.9691189871990685  1.0000
  C   C26       1.0  0.8011053165340416  0.3290024708060985  0.07173033678585172  1.0000
  C   C27       1.0  0.7766985114940396  0.21036223238506244  0.13490791635575605  1.0000
  H   H9        1.0  0.023494515157797217  0.2631537787212667  0.6701576663831657  1.0000
  H   H10       1.0  0.812789344871949  0.15707131123070672  0.41907628999688545  1.0000
  H   H11       1.0  0.8132731144935669  0.7416770641378327  0.418511290835901  1.0000
  H   H12       1.0  0.9838894985012957  0.937673055656289  0.6226210250318425  1.0000
  H   H13       1.0  0.9272015219857758  0.4950642306454889  0.5546258923509728  1.0000
  H   H14       1.0  0.8816743355723334  0.0067150878486967845  0.9597596362745286  1.0000
  H   H15       1.0  0.9235805138682706  0.21641307301066323  0.8496888638861164  1.0000
  H   H16       1.0  0.8728008059857101  0.42315075981636935  0.920371559849881  1.0000
  H   H17       1.0  0.7788447909044538  0.4194018990974086  0.10230098064691949  1.0000
  H   H18       1.0  0.735263340469399  0.2119714329908526  0.21339799746037816  1.0000
  C   C28       1.0  0.902694037014754  0.44329978192659286  0.14436711062688667  1.0000
  C   C29       1.0  0.981169578561545  0.4598679355728294  0.13835652640672214  1.0000
  C   C30       1.0  0.020655843915536213  0.46969319053866826  0.01804173325714498  1.0000
  C   C31       1.0  0.980989991512542  0.45979971520530893  0.9031260001556017  1.0000
  C   C32       1.0  0.9025548023809166  0.44312144652035623  0.9071385769983428  1.0000
  C   C33       1.0  0.8638394739716068  0.43530841757661043  0.028245315673837812  1.0000
  C   C34       1.0  0.1036085132378106  0.48583196132523393  0.0116557233307506  1.0000
  O   O2        1.0  0.14045658022431273  0.4331982890236843  0.9240925534968816  1.0000
  C   C35       1.0  0.1447557312534018  0.5616955421788857  0.10452345767088668  1.0000
  C   C36       1.0  0.21804586299937712  0.5267677631560359  0.13928294547285658  1.0000
  C   C37       1.0  0.25818749491703574  0.5979906770927377  0.22563229681569896  1.0000
  O   O3        1.0  0.3308664938036585  0.55787492379647  0.25754847321154783  1.0000
  C   C38       1.0  0.37794852061191353  0.6208751602976903  0.34376379663409606  1.0000
  C   C39       1.0  0.22462388951431178  0.7065354143371088  0.27711730717583105  1.0000
  C   C40       1.0  0.15221115546639985  0.742817412835038  0.24180671716573143  1.0000
  C   C41       1.0  0.1125030917509564  0.6713720830839629  0.15567825446763894  1.0000
  H   H19       1.0  0.7547290904429691  0.41004969688082776  0.36317956885193325  1.0000
  H   H20       1.0  0.01176822852059156  0.46370287409358574  0.22752851534493804  1.0000
  H   H21       1.0  0.011415852198520595  0.46639338847535877  0.8103214449935243  1.0000
  H   H22       1.0  0.8033405647978721  0.4225347303759255  0.03207532143238878  1.0000
  H   H23       1.0  0.8724941452036908  0.43563288108038845  0.5813036878544082  1.0000
  H   H24       1.0  0.2440841526822157  0.44310866661785475  0.1001862372422333  1.0000
  H   H25       1.0  0.43201662497961646  0.5688448165322249  0.35120752107658837  1.0000
  H   H26       1.0  0.350819703631191  0.618415294734266  0.44225696064713443  1.0000
  H   H27       1.0  0.389517622021577  0.7231377174937597  0.3055777366779835  1.0000
  H   H28       1.0  0.2540744313095013  0.7636754449847533  0.34394863779642737  1.0000
  H   H29       1.0  0.1268785284443943  0.8269825931934733  0.2808996750183055  1.0000
  H   H30       1.0  0.056954509563765125  0.702740948064373  0.12803525882087685  1.0000
  Zn  Zn1       1.0  0.8203043085592371  0.4412113735790859  0.5295740936389173  1.0000
  Zn  Zn2       1.0  0.9849373475854502  0.4452090683308365  0.5219313749729118  1.0000
  C   C42       1.0  0.902578486585292  0.43798265070873743  0.7629579742914521  1.0000
  C   C43       1.0  0.9026649676294852  0.44843947306428333  0.288547538516706  1.0000
  C   C44       1.0  0.9026657513262779  0.6803486549570303  0.520604062288121  1.0000
  C   C45       1.0  0.9025776464070334  0.20607190749624782  0.5309015221958733  1.0000
  O   O4        1.0  0.9651325909394286  0.4516758402631539  0.33403543468660013  1.0000
  O   O5        1.0  0.9650635304324965  0.43777946191901473  0.7116690575228732  1.0000
  O   O6        1.0  0.9651331553429954  0.6334930547189774  0.5159665981354089  1.0000
  O   O7        1.0  0.9650629098703326  0.25596225540987455  0.5297377993040737  1.0000
  O   O8        1.0  0.8401786900931801  0.6304581851372457  0.5217676719090085  1.0000
  O   O9        1.0  0.8401090654829729  0.434746152294224  0.717470062221891  1.0000
  O   O10       1.0  0.8401781263164357  0.4486424857591893  0.3398348779086231  1.0000
  O   O11       1.0  0.8401084452247619  0.25292889159642473  0.5355373398973413  1.0000
