data_image0
_chemical_formula_structural       NC10NC5H10C7OC3NC3H10C7OC6OCH11Zn2C4O8
_chemical_formula_sum              "N3 C46 H31 O11 Zn2"
_cell_length_a       19.4436361288709
_cell_length_b       10.298746005989749
_cell_length_c       10.299362532796529
_cell_angle_alpha    85.58216748152913
_cell_angle_beta     89.71996928525026
_cell_angle_gamma    89.42734808848357

_space_group_name_H-M_alt    "P 1"
_space_group_IT_number       1

loop_
  _space_group_symop_operation_xyz
  'x, y, z'

loop_
  _atom_site_type_symbol
  _atom_site_label
  _atom_site_symmetry_multiplicity
  _atom_site_fract_x
  _atom_site_fract_y
  _atom_site_fract_z
  _atom_site_occupancy
  N   N1        1.0  0.6475622414877872  0.4089892858902121  0.5622235412159098  1.0000
  C   C1        1.0  0.5887300100500719  0.41889380205758475  0.5766083182296982  1.0000
  C   C2        1.0  0.5154053561582969  0.4312460682061504  0.5946016356053684  1.0000
  C   C3        1.0  0.47319998522551904  0.39923461822853823  0.4999255198695779  1.0000
  C   C4        1.0  0.3972972333237052  0.4096744216659308  0.5052544885146559  1.0000
  C   C5        1.0  0.357577158980957  0.38493804521173847  0.612324275786135  1.0000
  C   C6        1.0  0.2814543641477871  0.38885334397151683  0.5993652975416586  1.0000
  C   C7        1.0  0.2409147403635444  0.44653114966246893  0.693140614857075  1.0000
  C   C8        1.0  0.1692495514419147  0.4501678653492701  0.6825970797990568  1.0000
  C   C9        1.0  0.13712925495382913  0.39573076816721914  0.5785647180601299  1.0000
  C   C10       1.0  0.06333479562082421  0.3994287124541904  0.5678659070611874  1.0000
  N   N2        1.0  0.004009055510103401  0.40240166563503  0.5592647723411148  1.0000
  C   C11       1.0  0.1769440057580044  0.3373458633424449  0.4851725719458273  1.0000
  C   C12       1.0  0.2486255694930048  0.33365488755215417  0.4954643259319844  1.0000
  C   C13       1.0  0.3857325651267555  0.3444905478845219  0.743414775050762  1.0000
  C   C14       1.0  0.4444090091867085  0.38762184293410673  0.7906608492275393  1.0000
  C   C15       1.0  0.48860972980548584  0.4854785278990388  0.7163023415736438  1.0000
  H   H1        1.0  0.495278795226977  0.3701038057849822  0.4096165451107663  1.0000
  H   H2        1.0  0.37258225381196597  0.432159155362672  0.4120985258816998  1.0000
  H   H3        1.0  0.26480468565452975  0.4898356966991136  0.7739923849537603  1.0000
  H   H4        1.0  0.1389228308263694  0.4954953027723329  0.7555215972898814  1.0000
  H   H5        1.0  0.1525822599374487  0.2942370316260938  0.4046553005188336  1.0000
  H   H6        1.0  0.278286627941243  0.2860839685378407  0.4232359412894662  1.0000
  H   H7        1.0  0.35477452905406653  0.28027641842497875  0.8076557582116167  1.0000
  H   H8        1.0  0.4595754868829645  0.35356421525151227  0.8885918599081266  1.0000
  H   H9        1.0  0.45850315775222633  0.576196885819959  0.6910585137987177  1.0000
  H   H10       1.0  0.5319093636513783  0.5110745155278249  0.7793892896679588  1.0000
  C   C16       1.0  0.8257560682751471  0.024293939448495117  0.5607272570003992  1.0000
  C   C17       1.0  0.8579131966474799  0.03216896922437628  0.4379577133478416  1.0000
  C   C18       1.0  0.8734500546901671  0.9190407552375484  0.3751965068147933  1.0000
  C   C19       1.0  0.8579137054101617  0.7969323445822715  0.43790857268561734  1.0000
  C   C20       1.0  0.8258217966710971  0.7870869307003977  0.5607722654127567  1.0000
  C   C21       1.0  0.809781033338099  0.9013324729714223  0.6212489034344696  1.0000
  C   C22       1.0  0.9079923582430733  0.9271545708695801  0.2460959868302801  1.0000
  O   O1        1.0  0.9499831292811877  0.838392967277173  0.2205355218785931  1.0000
  C   C23       1.0  0.8949002405541842  0.03590403068034132  0.14600030805452824  1.0000
  C   C24       1.0  0.8297722180218313  0.09649612956347098  0.13443362416636706  1.0000
  C   C25       1.0  0.8177065250278526  0.1983612847012946  0.03862826612752369  1.0000
  N   N3        1.0  0.751477631540336  0.25981619572514925  0.02797408416142866  1.0000
  C   C26       1.0  0.8708112088029257  0.23924072464080792  0.9530544505550946  1.0000
  C   C27       1.0  0.935311159239524  0.17849491035467893  0.9627703015488577  1.0000
  C   C28       1.0  0.9473233109705793  0.07705512723305154  0.05827190022909168  1.0000
  H   H11       1.0  0.7659488455038308  0.21669181625298053  0.7935561226145125  1.0000
  H   H12       1.0  0.8715842274616254  0.12641919059154397  0.3916230695749945  1.0000
  H   H13       1.0  0.8703113422811817  0.70949727850211  0.39010843686445135  1.0000
  H   H14       1.0  0.7849970839042808  0.8945101080540452  0.7158838560602043  1.0000
  H   H15       1.0  0.7654429365511011  0.5611612483684207  0.7931173569193949  1.0000
  H   H16       1.0  0.78812983289457  0.06388090081955135  0.19874102085418105  1.0000
  H   H17       1.0  0.711524512659461  0.2301194880975604  0.09125601120724867  1.0000
  H   H18       1.0  0.8621329861932964  0.31773023171835413  0.8786403763098916  1.0000
  H   H19       1.0  0.9761105083447583  0.21008941031040032  0.8961376248885115  1.0000
  H   H20       1.0  0.9977674533341199  0.03148288614554341  0.06438064724026814  1.0000
  C   C29       1.0  0.8257352504658656  0.40557087282339044  0.1793833272315821  1.0000
  C   C30       1.0  0.7604421331793283  0.3480920174213698  0.18320944969470276  1.0000
  C   C31       1.0  0.7272137374815976  0.32043021733228616  0.06797026451493648  1.0000
  C   C32       1.0  0.7606358352768945  0.3482520091464064  0.9479535517640894  1.0000
  C   C33       1.0  0.825842634522418  0.40580996285789583  0.9421162253642507  1.0000
  C   C34       1.0  0.857959632032103  0.4343939774955075  0.058373535883742486  1.0000
  C   C35       1.0  0.6586154904313558  0.25839500236346025  0.07433870090487926  1.0000
  O   O2        1.0  0.644556616371881  0.1794415646412464  0.1703472285091885  1.0000
  C   C36       1.0  0.605969050112419  0.2859214355015198  0.9718624742360199  1.0000
  C   C37       1.0  0.6006905955106292  0.40940192924356555  0.9040602612717071  1.0000
  C   C38       1.0  0.5503499715865517  0.4345139326363095  0.8087839759753485  1.0000
  C   C39       1.0  0.5040758617393355  0.33769661936738415  0.7801134341212048  1.0000
  C   C40       1.0  0.508631019606849  0.21442306391173366  0.8488398784702248  1.0000
  C   C41       1.0  0.5589654690193184  0.18918396480750688  0.9441886124285084  1.0000
  O   O3        1.0  0.454566521314037  0.36777365963824304  0.6835415845299979  1.0000
  C   C42       1.0  0.4044111896579435  0.2789317906575277  0.6445799224155451  1.0000
  H   H21       1.0  0.9490606867926089  0.513539815535528  0.37947054831979377  1.0000
  H   H22       1.0  0.7349745769324881  0.3258198399522377  0.27595356762375517  1.0000
  H   H23       1.0  0.7360468907972276  0.32362426273124906  0.8591020833597307  1.0000
  H   H24       1.0  0.9082621014091636  0.47879156269572853  0.05460324547787354  1.0000
  H   H25       1.0  0.8509726849797692  0.42740540539701694  0.6124397517751281  1.0000
  H   H26       1.0  0.6349793149731952  0.48702553525425907  0.9256045258313286  1.0000
  H   H27       1.0  0.473552311842825  0.1374999040863263  0.829398987994937  1.0000
  H   H28       1.0  0.561566033041932  0.09348659896387645  0.9956117554252324  1.0000
  H   H29       1.0  0.3721091771468824  0.32822794727929216  0.5667675600839619  1.0000
  H   H30       1.0  0.3708231885610391  0.24733682214042468  0.7284064711317101  1.0000
  H   H31       1.0  0.43004275351650895  0.19313095194536256  0.6057062398918815  1.0000
  Zn  Zn1       1.0  0.7504250943649226  0.40708477167405044  0.5613772163171742  1.0000
  Zn  Zn2       1.0  0.9011461947375065  0.40429557461074406  0.5601217777242422  1.0000
  C   C43       1.0  0.8258203469803783  0.4005906888436607  0.7979430695499421  1.0000
  C   C44       1.0  0.8257525881509541  0.41079126578263964  0.3235560383444729  1.0000
  C   C45       1.0  0.8258051117632748  0.6429012444932656  0.5555886605333056  1.0000
  C   C46       1.0  0.8257677718127484  0.16847915067069533  0.565910516935582  1.0000
  O   O4        1.0  0.8829562784499104  0.41147912537396725  0.3714652844902562  1.0000
  O   O5        1.0  0.8830104842782763  0.3977849132955638  0.7490806006595538  1.0000
  O   O6        1.0  0.8829974107832133  0.5934537661100573  0.5533777071833066  1.0000
  O   O7        1.0  0.8829693005011645  0.2158102827717277  0.5671680810214119  1.0000
  O   O8        1.0  0.7686019371675492  0.5955700644662947  0.5543309134415932  1.0000
  O   O9        1.0  0.7686150107842066  0.3999027720673682  0.7500337377649564  1.0000
  O   O10       1.0  0.7685608047778797  0.41359693839562617  0.37241686020204856  1.0000
  O   O11       1.0  0.7685738268392277  0.21792808653436047  0.5681197540998847  1.0000
