data_image0
_chemical_formula_structural       NC8NH4C10H6C6SCH7Zn2C4O8
_chemical_formula_sum              "N2 C29 H17 S1 Zn2 O8"
_cell_length_a       11.048855714531884
_cell_length_b       9.275150299802176
_cell_length_c       9.275274088470228
_cell_angle_alpha    85.77620997522486
_cell_angle_beta     89.72578532380932
_cell_angle_gamma    89.4838956589931

_space_group_name_H-M_alt    "P 1"
_space_group_IT_number       1

loop_
  _space_group_symop_operation_xyz
  'x, y, z'

loop_
  _atom_site_type_symbol
  _atom_site_label
  _atom_site_symmetry_multiplicity
  _atom_site_fract_x
  _atom_site_fract_y
  _atom_site_fract_z
  _atom_site_occupancy
  N   N1        1.0  0.1342774081343927  0.5638802040754867  0.40151034072937763  1.0000
  C   C1        1.0  0.08055062952573322  0.5050970132358559  0.3168723158490976  1.0000
  C   C2        1.0  0.013516185964679519  0.43175234730840883  0.21126794939377813  1.0000
  C   C3        1.0  0.8857994315994768  0.4317521576080053  0.2112680521719581  1.0000
  C   C4        1.0  0.8239967218304556  0.3592476847861621  0.1068737161706248  1.0000
  C   C5        1.0  0.8883823871660186  0.28731672204207204  0.0033050589989023224  1.0000
  C   C6        1.0  0.01478860032354579  0.2873166120796695  0.003305082281703117  1.0000
  C   C7        1.0  0.07725426001791691  0.3592477830063707  0.10687368790321461  1.0000
  C   C8        1.0  0.8168072079360248  0.505097088080529  0.3168723022949895  1.0000
  N   N2        1.0  0.761511293833909  0.5638802470409663  0.401510369271624  1.0000
  H   H1        1.0  0.7259466012096364  0.3583397543170002  0.10556580636904678  1.0000
  H   H2        1.0  0.8402291537546757  0.2315253935477221  0.9229754129543744  1.0000
  H   H3        1.0  0.0644311941588942  0.23152550301757582  0.9229754117253456  1.0000
  H   H4        1.0  0.1753286122170794  0.358339707859882  0.10556608169798996  1.0000
  C   C9        1.0  0.4510837131003636  0.14019757841816416  0.40392286858862647  1.0000
  C   C10       1.0  0.5151774937746311  0.2212146155501611  0.2948985581647685  1.0000
  C   C11       1.0  0.5689143094643331  0.15397743162173572  0.18033377405090856  1.0000
  C   C12       1.0  0.5591039072036494  0.004743310494087937  0.1733176537747536  1.0000
  C   C13       1.0  0.4976550976224887  0.9222762841367582  0.28169430444937693  1.0000
  C   C14       1.0  0.4447165995212856  0.9875518242677753  0.39911036591307103  1.0000
  C   C15       1.0  0.6330329801775331  0.23871294110293118  0.0688167336835479  1.0000
  C   C16       1.0  0.6867164915751837  0.3096815672933222  0.9754537276303878  1.0000
  C   C17       1.0  0.7495773933182408  0.3927908089403396  0.8661297193037081  1.0000
  C   C18       1.0  0.8032505542686168  0.4637541228872731  0.7727846102825602  1.0000
  H   H5        1.0  0.392757503201539  0.40469384609358494  0.6327607203167191  1.0000
  H   H6        1.0  0.5209835371840335  0.33768411486920025  0.29712479551371485  1.0000
  H   H7        1.0  0.6000375184357353  0.9517565683976986  0.08466858162411728  1.0000
  H   H8        1.0  0.4939791508378569  0.8062171588827816  0.2754726967113137  1.0000
  H   H9        1.0  0.3646726503698383  0.8603314880442893  0.7415011696284  1.0000
  H   H10       1.0  0.8503800665945901  0.5260659387625732  0.690819894747305  1.0000
  C   C19       1.0  0.4496299740635437  0.5598543950156752  0.9783425340798763  1.0000
  C   C20       1.0  0.5523163717664786  0.6106390250349929  0.047402452874600425  1.0000
  C   C21       1.0  0.6481942158601389  0.6729182474233968  0.9669846793960772  1.0000
  C   C22       1.0  0.6429919841073125  0.6845512110426692  0.8163584843997764  1.0000
  C   C23       1.0  0.5429000803878679  0.6326744637387305  0.7458018562964313  1.0000
  C   C24       1.0  0.4461703812485118  0.5678950619032279  0.8246906913261012  1.0000
  S   S1        1.0  0.7776897867052097  0.7383332569135905  0.057301515451902985  1.0000
  C   C25       1.0  0.7141234869031456  0.9189223221046918  0.06800803165152014  1.0000
  H   H11       1.0  0.15699459264172133  0.5004895743983926  0.08738439399411278  1.0000
  H   H12       1.0  0.7169981087961059  0.7328923585298164  0.7535860630815496  1.0000
  H   H13       1.0  0.5424882806233549  0.640149507684789  0.628699938689266  1.0000
  H   H14       1.0  0.2506378870737853  0.522040093361217  0.5480363142048694  1.0000
  H   H15       1.0  0.6964436164127763  0.9693424212991573  0.9577595812926859  1.0000
  H   H16       1.0  0.6285993506393667  0.9135026339445517  0.1314043765849926  1.0000
  H   H17       1.0  0.779736401449559  0.9862405753610779  0.12262502371475571  1.0000
  Zn  Zn1       1.0  0.31528356799572266  0.5638764249078376  0.40151868970624816  1.0000
  Zn  Zn2       1.0  0.580505201811243  0.563872304593874  0.4015138810221133  1.0000
  C   C26       1.0  0.44686480108929727  0.5606274712966612  0.6647454138169546  1.0000
  C   C27       1.0  0.44892685067268695  0.5671230799320157  0.13828728795901912  1.0000
  C   C28       1.0  0.4459373936877852  0.8273293008473024  0.394277559843317  1.0000
  C   C29       1.0  0.4498541802835886  0.3004195176909068  0.40875522860766234  1.0000
  O   O1        1.0  0.5493411511547335  0.5695546589839346  0.1919644193522252  1.0000
  O   O2        1.0  0.5477475937365373  0.5581916726557776  0.6110642240988606  1.0000
  O   O3        1.0  0.5469973375929282  0.7735567871794451  0.39265950991460463  1.0000
  O   O4        1.0  0.550091317160281  0.35418955375616146  0.41036902543075215  1.0000
  O   O5        1.0  0.3456973621395773  0.7735591757484552  0.39266354529166136  1.0000
  O   O6        1.0  0.34644760556668835  0.5581957939181599  0.6110681727949645  1.0000
  O   O7        1.0  0.34804117052531  0.5695587135091018  0.19196663577447026  1.0000
  O   O8        1.0  0.3487913361618112  0.35419359898833913  0.410371349952779  1.0000
