data_image0
_chemical_formula_structural       NC6NC2H4C9H6C6H4Zn2C4O8
_chemical_formula_sum              "N2 C27 H14 Zn2 O8"
_cell_length_a       14.927258858638513
_cell_length_b       9.275152443626249
_cell_length_c       10.681121600428286
_cell_angle_alpha    85.36323627709002
_cell_angle_beta     89.99986493836577
_cell_angle_gamma    90.5735452640029

_space_group_name_H-M_alt    "P 1"
_space_group_IT_number       1

loop_
  _space_group_symop_operation_xyz
  'x, y, z'

loop_
  _atom_site_type_symbol
  _atom_site_label
  _atom_site_symmetry_multiplicity
  _atom_site_fract_x
  _atom_site_fract_y
  _atom_site_fract_z
  _atom_site_occupancy
  N   N1        1.0  0.8533907022546776  0.578793343565366  0.613934642621899  1.0000
  C   C1        1.0  0.7758642109096061  0.578793315045687  0.6139346519058544  1.0000
  C   C2        1.0  0.679431704081537  0.5787934301842885  0.6139346082469701  1.0000
  C   C3        1.0  0.6322321092729184  0.5550943250331669  0.5039520743089398  1.0000
  C   C4        1.0  0.5385207980890807  0.5550943506780242  0.5039519582955043  1.0000
  C   C5        1.0  0.4916156389850901  0.5787932525719524  0.6139346249623658  1.0000
  C   C6        1.0  0.39518306516550317  0.5787933677135202  0.6139345812983262  1.0000
  N   N2        1.0  0.3176565738204314  0.5787933391938409  0.6139345905822818  1.0000
  C   C7        1.0  0.5388151668021912  0.6024923577260398  0.7239171588952407  1.0000
  C   C8        1.0  0.6325264779860291  0.6024923320811828  0.7239172749086762  1.0000
  H   H1        1.0  0.667813760470226  0.5366550850495175  0.4183793506323109  1.0000
  H   H2        1.0  0.5027101061882195  0.5366552826564301  0.41837934575320945  1.0000
  H   H3        1.0  0.503233582528366  0.620931587388533  0.8094899764975874  1.0000
  H   H4        1.0  0.6683371704901022  0.6209314974657709  0.8094899827427888  1.0000
  C   C9        1.0  0.08288524953075349  0.15516103831604203  0.6152131454762975  1.0000
  C   C10       1.0  0.05056855651810912  0.23790043142183492  0.5088226650043663  1.0000
  C   C11       1.0  0.02657908853484604  0.17245907813626316  0.400440288687  1.0000
  C   C12       1.0  0.03452963394679842  0.023117138226519604  0.3963024537708436  1.0000
  C   C13       1.0  0.06509452730236531  0.938689598310091  0.5017937969549275  1.0000
  C   C14       1.0  0.08817055267585833  0.0024145565052577735  0.6126669381638236  1.0000
  C   C15       1.0  0.0102587554699467  0.9559676215290583  0.28406568671506327  1.0000
  C   C16       1.0  0.9899375662836654  0.8997122607601595  0.19008499178294772  1.0000
  C   C17       1.0  0.9652818199897777  0.8314443310874616  0.0760559008384396  1.0000
  H   H5        1.0  0.21160961605622142  0.23681249945829164  0.8653154629295903  1.0000
  H   H6        1.0  0.0026275386078613585  0.23869883739461684  0.31933388754918  1.0000
  H   H7        1.0  0.17196503471140712  0.7071151662833456  0.7837285266320881  1.0000
  H   H8        1.0  0.9816587117552631  0.7147225020606932  0.08775523618223269  1.0000
  H   H9        1.0  0.8923684348139415  0.8440268986883055  0.058911779495485206  1.0000
  H   H10       1.0  0.0031137683608892792  0.8837928561442638  0.9949952235608193  1.0000
  C   C18       1.0  0.0855279171560328  0.5787877608244161  0.2461948297429455  1.0000
  C   C19       1.0  0.020907127440397577  0.4985554720077846  0.18501345709336087  1.0000
  C   C20       1.0  0.020907072085903713  0.49855556450876976  0.05413131686248529  1.0000
  C   C21       1.0  0.08552784717261264  0.5787878315406668  0.9816852652067763  1.0000
  C   C22       1.0  0.1500952990897837  0.6589536318174596  0.042866257322125456  1.0000
  C   C23       1.0  0.1500952874887243  0.658953609447884  0.17375855605239687  1.0000
  H   H11       1.0  0.9702543017770007  0.43566561208559507  0.23823928950293194  1.0000
  H   H12       1.0  0.9702542834911279  0.4356656799913795  0.009735260073328698  1.0000
  H   H13       1.0  0.20075473983770767  0.721851779004054  0.9896847353752447  1.0000
  H   H14       1.0  0.20075469438648585  0.7218517284327319  0.21810910301163028  1.0000
  Zn  Zn1       1.0  0.9873677879591336  0.5787894767353376  0.6139418752679877  1.0000
  Zn  Zn2       1.0  0.1836794252852436  0.578785389606082  0.6139376661533835  1.0000
  C   C24       1.0  0.08549003463146732  0.5730407654083443  0.8426791112478416  1.0000
  C   C25       1.0  0.08555933368463564  0.5845359211001492  0.3852005475703973  1.0000
  C   C26       1.0  0.08716690123739439  0.8422655781732336  0.6081579526172651  1.0000
  C   C27       1.0  0.08388238927920222  0.3153093751210674  0.6197217781762996  1.0000
  O   O1        1.0  0.16006908137663312  0.5864572115346296  0.4318505578828063  1.0000
  O   O2        1.0  0.15997627053896823  0.5711152846417853  0.7960255490943097  1.0000
  O   O3        1.0  0.1613293572446233  0.7885177257828719  0.6066480497377218  1.0000
  O   O4        1.0  0.15871592774749543  0.36905478071469794  0.6212279633136761  1.0000
  O   O5        1.0  0.012331218505363895  0.7885200856296863  0.6066515781025397  1.0000
  O   O6        1.0  0.010978142607697809  0.5711193777057574  0.7960290054786462  1.0000
  O   O7        1.0  0.011070953191424591  0.5864612543272822  0.4318525087956334  1.0000
  O   O8        1.0  0.009717799494252107  0.36905881318916034  0.6212300081470656  1.0000
