data_image0
_chemical_formula_structural       NC6NC2H4C6ClH5C6SCH7Zn2C4O8
_chemical_formula_sum              "N2 C25 H16 Cl1 S1 Zn2 O8"
_cell_length_a       14.927258858638513
_cell_length_b       9.276545438789551
_cell_length_c       9.275274088470228
_cell_angle_alpha    86.1334652357246
_cell_angle_beta     89.7257804702982
_cell_angle_gamma    89.40960950127158

_space_group_name_H-M_alt    "P 1"
_space_group_IT_number       1

loop_
  _space_group_symop_operation_xyz
  'x, y, z'

loop_
  _atom_site_type_symbol
  _atom_site_label
  _atom_site_symmetry_multiplicity
  _atom_site_fract_x
  _atom_site_fract_y
  _atom_site_fract_z
  _atom_site_occupancy
  N   N1        1.0  0.8382846689020842  0.5629749580007932  0.41129210338857347  1.0000
  C   C1        1.0  0.7607581778848823  0.5629749295947301  0.411292113957455  1.0000
  C   C2        1.0  0.6643256697547124  0.5629750442071426  0.41129206417950037  1.0000
  C   C3        1.0  0.6178093583980903  0.5380843945696984  0.28462915739286077  1.0000
  C   C4        1.0  0.5240980472952467  0.5380844189360436  0.2846290239886726  1.0000
  C   C5        1.0  0.47650960684361826  0.5629748668532941  0.4112920826990223  1.0000
  C   C6        1.0  0.38007703172191115  0.5629749814686137  0.41129203291514704  1.0000
  N   N2        1.0  0.3025505407047096  0.5629749530625512  0.4112920434840279  1.0000
  C   C7        1.0  0.5230258512087032  0.587865516493646  0.5379549894797406  1.0000
  C   C8        1.0  0.616737162311547  0.5878654921273008  0.5379551228839294  1.0000
  H   H1        1.0  0.6539226430338844  0.5187180645786387  0.18607814639330744  1.0000
  H   H2        1.0  0.4888189862726268  0.5187182620478477  0.18607814157558455  1.0000
  H   H3        1.0  0.4869126332989196  0.6072318371941873  0.63650610852687  1.0000
  H   H4        1.0  0.6520162223748115  0.6072317473780648  0.6365061153510769  1.0000
  C   C9        1.0  0.07312631552836885  0.13953754777699998  0.41105451902620116  1.0000
  C   C10       1.0  0.07386046775374844  0.221926132280851  0.2780383718408945  1.0000
  C   C11       1.0  0.06643578442590425  0.15561134407994578  0.14791734537234325  1.0000
  C   C12       1.0  0.05809792810560713  0.006028682547717161  0.14881058603056485  1.0000
  C   C13       1.0  0.05875314785335362  0.922078502406055  0.2793852200572027  1.0000
  C   C14       1.0  0.06771753708516241  0.9864014050805433  0.41154211894025083  1.0000
  Cl  Cl1       1.0  0.0662303247848544  0.26067070725851504  0.9833913540844375  1.0000
  H   H5        1.0  0.11827028864406497  0.4046477096965083  0.6376286662432424  1.0000
  H   H6        1.0  0.07806659607596078  0.3386196083405275  0.27518512396684836  1.0000
  H   H7        1.0  0.05196196864975458  0.9543513068746797  0.0481411902579092  1.0000
  H   H8        1.0  0.05438135694612334  0.8057928773551852  0.27673521326667117  1.0000
  H   H9        1.0  0.03699474754945988  0.6898783194112018  0.6445766880617465  1.0000
  C   C15       1.0  0.07170558011198412  0.5589514631328818  0.988099085067049  1.0000
  C   C16       1.0  0.1476702645090087  0.609706693325487  0.05747664530001217  1.0000
  C   C17       1.0  0.21858595325855687  0.671949863054031  0.9774484111476359  1.0000
  C   C18       1.0  0.21472581096964047  0.6835760936681554  0.8268949793773395  1.0000
  C   C19       1.0  0.14068241572115392  0.6317293781871853  0.7560138785270722  1.0000
  C   C20       1.0  0.06913825471358508  0.5669874761821163  0.8344975360068396  1.0000
  S   S1        1.0  0.31438222908497  0.7373270031572952  0.06817439720456409  1.0000
  C   C21       1.0  0.2671834006638505  0.917811544919719  0.08001048140558042  1.0000
  H   H10       1.0  0.8551515395797683  0.49962101826533106  0.09676965405272431  1.0000
  H   H11       1.0  0.26946394323067113  0.7318892570929953  0.7644249186187109  1.0000
  H   H12       1.0  0.14037146982784532  0.6392000955283246  0.6389587164162425  1.0000
  H   H13       1.0  0.9244467144260758  0.5211590588384458  0.5575563609093841  1.0000
  H   H14       1.0  0.2540557021762526  0.9682024613823496  0.970077404125536  1.0000
  H   H15       1.0  0.20388461291776827  0.9123949980610586  0.14337293521180872  1.0000
  H   H16       1.0  0.3156934603408428  0.9850908304117908  0.13504853424749585  1.0000
  Zn  Zn1       1.0  0.9722617782083757  0.5629711718459025  0.41130041108043525  1.0000
  Zn  Zn2       1.0  0.16857348185766416  0.5629670404735272  0.4112955507670648  1.0000
  C   C22       1.0  0.06965821988043013  0.559724092090198  0.674506800568252  1.0000
  C   C23       1.0  0.07117917185417524  0.5662159409016181  0.1480893037212514  1.0000
  C   C24       1.0  0.06875270211312318  0.8262715521586683  0.4057071329588593  1.0000
  C   C25       1.0  0.0720846334656793  0.29966674914558145  0.4168890471678972  1.0000
  O   O1        1.0  0.1455018130598955  0.5686461074429956  0.20178163454478226  1.0000
  O   O2        1.0  0.14433162760683615  0.5572896981990478  0.620810365401826  1.0000
  O   O3        1.0  0.14359940172682742  0.7725301574054111  0.40375273289309943  1.0000
  O   O4        1.0  0.14623397221389456  0.3534056575271509  0.4188391590059328  1.0000
  O   O5        1.0  0.9946012208606083  0.7725325547951862  0.4037568028356462  1.0000
  O   O6        1.0  0.9953334359048834  0.5572938272792971  0.620814359501199  1.0000
  O   O7        1.0  0.9965036269940319  0.5686501698246572  0.2017838959528635  1.0000
  O   O8        1.0  0.9972357858825031  0.35340971062120197  0.4188415284556697  1.0000
