data_image0
_chemical_formula_structural       NC6NC2H4C6ClH5C6OCH7Zn2C4O8
_chemical_formula_sum              "N2 C25 H16 Cl1 O9 Zn2"
_cell_length_a       14.927258858638513
_cell_length_b       10.302970706292308
_cell_length_c       9.273891588657152
_cell_angle_alpha    86.0762958320409
_cell_angle_beta     89.68012649256188
_cell_angle_gamma    89.9983139300619

_space_group_name_H-M_alt    "P 1"
_space_group_IT_number       1

loop_
  _space_group_symop_operation_xyz
  'x, y, z'

loop_
  _atom_site_type_symbol
  _atom_site_label
  _atom_site_symmetry_multiplicity
  _atom_site_fract_x
  _atom_site_fract_y
  _atom_site_fract_z
  _atom_site_occupancy
  N   N1        1.0  0.8490544303481015  0.4079182842548019  0.4100977146840012  1.0000
  C   C1        1.0  0.7715279391442312  0.40791825867454845  0.4100977252711977  1.0000
  C   C2        1.0  0.6750954317707628  0.40791836188844516  0.41009767541802244  1.0000
  C   C3        1.0  0.6284828655996146  0.38556138804679435  0.28342563080533445  1.0000
  C   C4        1.0  0.5347715547184676  0.38556141004186717  0.28342549736239525  1.0000
  C   C5        1.0  0.4872793677177063  0.40791820219770164  0.41009769404310104  1.0000
  C   C6        1.0  0.39084679335272177  0.40791830541421925  0.4100976441840025  1.0000
  N   N2        1.0  0.3133203021488515  0.4079182798339655  0.41009765477119875  1.0000
  C   C7        1.0  0.5338918668973384  0.4302751760419732  0.5367697386498655  1.0000
  C   C8        1.0  0.6276031777784852  0.43027515404690053  0.5367698720928048  1.0000
  H   H1        1.0  0.6645212586184716  0.36816640085121577  0.18486751003887036  1.0000
  H   H2        1.0  0.4994176031208706  0.3681665786472881  0.18486750510654665  1.0000
  H   H3        1.0  0.4978535404916443  0.4476701548269417  0.6353279674892764  1.0000
  H   H4        1.0  0.662957128990485  0.4476700739569093  0.6353279743664668  1.0000
  C   C9        1.0  0.08119162455075185  0.026670874864396454  0.4101039128184303  1.0000
  C   C10       1.0  0.17359895302773914  0.023753374853890067  0.43786680551335944  1.0000
  C   C11       1.0  0.21944900337685114  0.905348944489408  0.45164191111032914  1.0000
  C   C12       1.0  0.17359895254758895  0.7886454056332097  0.43786673772446694  1.0000
  C   C13       1.0  0.08119163382510443  0.7891558173474781  0.41010399533028863  1.0000
  C   C14       1.0  0.035438413697554544  0.9087620151400778  0.39635784890387715  1.0000
  Cl  Cl1       1.0  0.33488777359083755  0.9032078079985518  0.4863242793718383  1.0000
  H   H5        1.0  0.04638340516782516  0.3550729577880647  0.39964531040931867  1.0000
  H   H6        1.0  0.21035159375415696  0.1131182776996309  0.4489086589087325  1.0000
  H   H7        1.0  0.21035155868617894  0.6979170840301271  0.4489085553499923  1.0000
  H   H8        1.0  0.9641710778390049  0.9100837521854181  0.37494622710567305  1.0000
  H   H9        1.0  0.046383399855526086  0.4620449933229546  0.39964558254685073  1.0000
  C   C15       1.0  0.08265921705757309  0.40447494014484375  0.9868285959077896  1.0000
  C   C16       1.0  0.15602261168603263  0.45931100697023114  0.0554022938883616  1.0000
  C   C17       1.0  0.2243045576526006  0.5238415546348392  0.9755925466059019  1.0000
  C   C18       1.0  0.21946727755771406  0.5338613509064076  0.824151934489997  1.0000
  C   C19       1.0  0.14798595670762163  0.4782391804437134  0.7542360384745588  1.0000
  C   C20       1.0  0.07972404044634063  0.4113516680595569  0.8333792370413533  1.0000
  O   O1        1.0  0.29522144961400243  0.5770791507700599  0.05079915241018651  1.0000
  C   C21       1.0  0.36899169232850393  0.645404723613749  0.983722779546683  1.0000
  H   H10       1.0  0.86957632880276  0.32473581295784193  0.0978458446899777  1.0000
  H   H11       1.0  0.2710724058863412  0.5834370229814376  0.7592297974915851  1.0000
  H   H12       1.0  0.14726311967679195  0.4849302990698734  0.6371548626256143  1.0000
  H   H13       1.0  0.9376260313845683  0.35252004746249077  0.5579365951143109  1.0000
  H   H14       1.0  0.344944621216386  0.7332599704080074  0.9193272062175493  1.0000
  H   H15       1.0  0.4063445214645207  0.5809716212210241  0.9133101070941003  1.0000
  H   H16       1.0  0.41484897490082817  0.6764368083152406  0.06856632300082155  1.0000
  Zn  Zn1       1.0  0.9830315113574001  0.40791487182072794  0.4101060260954393  1.0000
  Zn  Zn2       1.0  0.17934319102580987  0.40791115414341483  0.41010116726041107  1.0000
  C   C22       1.0  0.0802768678928705  0.4048798270358027  0.6733630572480771  1.0000
  C   C23       1.0  0.08209997771732436  0.4109478381346261  0.1468442775277805  1.0000
  C   C24       1.0  0.08120695155127038  0.6449832441651285  0.4043600961836595  1.0000
  C   C25       1.0  0.08116982680496795  0.17084286182521957  0.41584731544065456  1.0000
  O   O2        1.0  0.1564115512330556  0.4131131270546955  0.2005451581379555  1.0000
  O   O3        1.0  0.15496131834098892  0.40271073370366683  0.6196580739686957  1.0000
  O   O4        1.0  0.1557113631754944  0.5965972917516758  0.40243627969351015  1.0000
  O   O5        1.0  0.15566143978538793  0.21922657741729765  0.41776684434019384  1.0000
  O   O6        1.0  0.006713195606306906  0.5965994485494657  0.4024403490097329  1.0000
  O   O7        1.0  0.005963151034242391  0.4027144496841586  0.6196620664305377  1.0000
  O   O8        1.0  0.007413389994447742  0.41311678371618776  0.20054741762584594  1.0000
  O   O9        1.0  0.0066632781684268245  0.21923022567079942  0.41776921189510813  1.0000
