data_image0
_chemical_formula_structural       NC6NC2H4C7NH5C7OH5Zn2C4O8
_chemical_formula_sum              "N3 C26 H14 O9 Zn2"
_cell_length_a       14.927258858638513
_cell_length_b       9.275154477615127
_cell_length_c       9.274074313596557
_cell_angle_alpha    86.3499061385644
_cell_angle_beta     90.23360497227152
_cell_angle_gamma    89.43371000992973

_space_group_name_H-M_alt    "P 1"
_space_group_IT_number       1

loop_
  _space_group_symop_operation_xyz
  'x, y, z'

loop_
  _atom_site_type_symbol
  _atom_site_label
  _atom_site_symmetry_multiplicity
  _atom_site_fract_x
  _atom_site_fract_y
  _atom_site_fract_z
  _atom_site_occupancy
  N   N1        1.0  0.8299625131266357  0.5623507624536188  0.4164033468231034  1.0000
  C   C1        1.0  0.7524360221599109  0.5623507340530616  0.4164033572971533  1.0000
  C   C2        1.0  0.6560035137867983  0.562350848640985  0.4164033079010674  1.0000
  C   C3        1.0  0.6087831379205223  0.537421666337454  0.28964291781582796  1.0000
  C   C4        1.0  0.515071826089866  0.5374216906594154  0.2896427844798226  1.0000
  C   C5        1.0  0.4681874509295376  0.5623506713063686  0.41640332582348427  1.0000
  C   C6        1.0  0.3717548755648562  0.562350785897197  0.41640327642148667  1.0000
  N   N2        1.0  0.29422838459813194  0.5623507574966397  0.4164032868955363  1.0000
  C   C7        1.0  0.5154077598042452  0.587279853612805  0.543163715902812  1.0000
  C   C8        1.0  0.6091190716349009  0.5872798292908437  0.5431638492388173  1.0000
  H   H1        1.0  0.6443486199661819  0.5180253557188864  0.1910160592960952  1.0000
  H   H2        1.0  0.4792449632319803  0.5180255531717222  0.19101605514487363  1.0000
  H   H3        1.0  0.4798423450769036  0.6066761549760171  0.641790682450176  1.0000
  H   H4        1.0  0.6449459341659945  0.6066760651688194  0.6417906889717251  1.0000
  C   C9        1.0  0.06468796144451908  0.13894509068036287  0.41473545126539046  1.0000
  C   C10       1.0  0.03978388734445473  0.22087734857730326  0.2876541539579145  1.0000
  C   C11       1.0  0.007609797154753078  0.15365814343552045  0.16730454308753306  1.0000
  C   C12       1.0  0.9998114161130758  0.003589759046753964  0.17261885190769477  1.0000
  C   C13       1.0  0.025538611264652067  0.9204214056304334  0.29680343213908533  1.0000
  C   C14       1.0  0.05951162838450431  0.9857454592240746  0.4180836684284843  1.0000
  C   C15       1.0  0.9815101013755465  0.23915718617079929  0.03869158482865087  1.0000
  N   N3        1.0  0.9605331788137677  0.3078828337107635  0.9353197103014664  1.0000
  H   H5        1.0  0.08293331210200815  0.2190872975103515  0.7685278360450678  1.0000
  H   H6        1.0  0.043431840197522664  0.3377947900375806  0.28337756921354895  1.0000
  H   H7        1.0  0.9746062677150207  0.9505556796087861  0.08012261743423399  1.0000
  H   H8        1.0  0.020834177811861924  0.8039525652832669  0.29667658824206744  1.0000
  H   H9        1.0  0.07559538339136229  0.6893009824375105  0.6551346294445508  1.0000
  C   C16       1.0  0.06105254923121975  0.558192580283406  0.9931519414880366  1.0000
  C   C17       1.0  0.982683143305928  0.600759742114851  0.06320910688501802  1.0000
  C   C18       1.0  0.9086543035648866  0.6549143579806218  0.9842410030481837  1.0000
  C   C19       1.0  0.9112621366410595  0.6679422511905544  0.8330125122861185  1.0000
  C   C20       1.0  0.988432621714019  0.6236343629039434  0.7618085783703923  1.0000
  C   C21       1.0  0.06314700549326435  0.5664979014373808  0.8396671857768578  1.0000
  C   C22       1.0  0.8338478310026252  0.7260618945389703  0.7478516105664195  1.0000
  O   O1        1.0  0.7634017757063998  0.7662349625643115  0.8087167336624637  1.0000
  H   H10       1.0  0.2801638665982711  0.5214581152839494  0.09979525034820713  1.0000
  H   H11       1.0  0.8496737821002542  0.6879211824632647  0.041773166318344934  1.0000
  H   H12       1.0  0.9894279685266331  0.6306216923310831  0.6446795425798797  1.0000
  H   H13       1.0  0.21046309068770752  0.5365304209861121  0.5620828612388039  1.0000
  H   H14       1.0  0.8369754254928411  0.7348136634280007  0.6310166966730115  1.0000
  Zn  Zn1       1.0  0.9639396671415593  0.5623469792331723  0.4164116426054967  1.0000
  Zn  Zn2       1.0  0.16025134291265064  0.5623428466208633  0.41640676782270347  1.0000
  C   C23       1.0  0.06278424480057891  0.5591841006991001  0.6796349254302805  1.0000
  C   C24       1.0  0.06140889820037554  0.5655075457359642  0.15318363360486553  1.0000
  C   C25       1.0  0.0604712393679252  0.8256257927917035  0.41170714791938473  1.0000
  C   C26       1.0  0.06372184742487332  0.2990641221100929  0.4211114811117509  1.0000
  O   O2        1.0  0.13602778848913366  0.5679546564061824  0.20688985656106418  1.0000
  O   O3        1.0  0.13716137970151498  0.5567327616875258  0.625924583417593  1.0000
  O   O4        1.0  0.13529259798523088  0.7718878123926833  0.4095710133967101  1.0000
  O   O5        1.0  0.13789650288709987  0.35279961495638035  0.42324331855431585  1.0000
  O   O6        1.0  0.9862944401755424  0.7718902109005609  0.40957509186797303  1.0000
  O   O7        1.0  0.9881632111084127  0.5567368917315771  0.6259285918869548  1.0000
  O   O8        1.0  0.9870296159751236  0.5679587192039655  0.206892131930428  1.0000
  O   O9        1.0  0.9888983306998388  0.3528036685017136  0.4232457019454001  1.0000
