data_image0
_chemical_formula_structural       NC9NC5H8C6NCOCH9C6OCH7Zn2C4O8
_chemical_formula_sum              "N3 C33 H24 O10 Zn2"
_cell_length_a       17.807436237873137
_cell_length_b       10.300268703208214
_cell_length_c       9.273891588657152
_cell_angle_alpha    86.07587478402297
_cell_angle_beta     89.08663702953788
_cell_angle_gamma    88.37019024828581

_space_group_name_H-M_alt    "P 1"
_space_group_IT_number       1

loop_
  _space_group_symop_operation_xyz
  'x, y, z'

loop_
  _atom_site_type_symbol
  _atom_site_label
  _atom_site_symmetry_multiplicity
  _atom_site_fract_x
  _atom_site_fract_y
  _atom_site_fract_z
  _atom_site_occupancy
  N   N1        1.0  0.7117934062854849  0.374464437106552  0.3984999032679506  1.0000
  C   C1        1.0  0.6512485305006341  0.3391753600554055  0.38626411331753213  1.0000
  C   C2        1.0  0.5759373595146696  0.2952796342839388  0.3710441191670304  1.0000
  C   C3        1.0  0.5581993873939337  0.22290561077571505  0.25449760538677557  1.0000
  C   C4        1.0  0.485076414803852  0.18017399383487523  0.23962825982636524  1.0000
  C   C5        1.0  0.42864287627081177  0.20943859142020482  0.34126940955366747  1.0000
  C   C6        1.0  0.3509317180397813  0.1641415514985798  0.32555824317985693  1.0000
  C   C7        1.0  0.2886552110765394  0.24613153750404806  0.3543486532752746  1.0000
  C   C8        1.0  0.2153899301113927  0.20319701760103487  0.3394944933613113  1.0000
  C   C9        1.0  0.1520616189656785  0.287881561875309  0.36868880726053294  1.0000
  N   N2        1.0  0.1011586486141571  0.3559620866769577  0.39216022929217376  1.0000
  C   C10       1.0  0.20381774480943876  0.07801431177041397  0.29582178726218  1.0000
  C   C11       1.0  0.2652369118222945  0.996010397237789  0.26702206515069427  1.0000
  C   C12       1.0  0.33838349398393147  0.03854853868702702  0.28165142083105676  1.0000
  C   C13       1.0  0.4470714457767904  0.2823089669184775  0.4580592536064811  1.0000
  C   C14       1.0  0.520247830564727  0.3248487720031062  0.47275583684679623  1.0000
  H   H1        1.0  0.6008304297421749  0.1997641908380967  0.17490092174624605  1.0000
  H   H2        1.0  0.47244243238996336  0.12573430037794653  0.14759179021486468  1.0000
  H   H3        1.0  0.29703988439636947  0.3438564003060549  0.38640015266256245  1.0000
  H   H4        1.0  0.1473937576405217  0.043882795431643196  0.28406220200831805  1.0000
  H   H5        1.0  0.256157606619809  0.8990945921579537  0.23363818138040224  1.0000
  H   H6        1.0  0.3850990205512337  0.9726320854872459  0.26050902836410067  1.0000
  H   H7        1.0  0.4051532107815475  0.3049232281213128  0.5390927518423667  1.0000
  H   H8        1.0  0.5334132822287037  0.3804994453961143  0.5636361621389592  1.0000
  C   C15       1.0  0.9065559189617934  0.9838619051130686  0.3953373065493102  1.0000
  C   C16       1.0  0.9196579889309456  0.9914081047714716  0.24529282111041906  1.0000
  C   C17       1.0  0.9272841133437867  0.8778640993822486  0.16997653375945587  1.0000
  C   C18       1.0  0.9194879207901833  0.7562569595546003  0.24533154848461478  1.0000
  C   C19       1.0  0.9064032642072983  0.7465544422563738  0.39533520690618296  1.0000
  C   C20       1.0  0.9002889221415833  0.8609372265388602  0.4696291277900482  1.0000
  N   N3        1.0  0.939529582651573  0.8840524205847767  0.016014228933044935  1.0000
  C   C21       1.0  0.9838613779596312  0.9804242511996807  0.9378432903695577  1.0000
  O   O1        1.0  0.02609013776655611  0.05195375904303546  0.0037155542036819734  1.0000
  C   C22       1.0  0.9843622294649674  0.9899746254958645  0.7763699615994678  1.0000
  H   H9        1.0  0.900483020205837  0.308490653273781  0.45206357189832475  1.0000
  H   H10       1.0  0.9224451222963984  0.08564851164621579  0.18661011340017652  1.0000
  H   H11       1.0  0.92432341280708  0.6691856000296157  0.1862518269571316  1.0000
  H   H12       1.0  0.8902041447474976  0.8543068324100851  0.5853598887527915  1.0000
  H   H13       1.0  0.9003352976276652  0.41554398852594077  0.4518526854043501  1.0000
  H   H14       1.0  0.9190037247355203  0.8091332444434464  0.9584341939410668  1.0000
  H   H15       1.0  0.9269793372748675  0.9753343547441735  0.7364396431945197  1.0000
  H   H16       1.0  0.0031109618464091352  0.08740217837737309  0.7340357929810779  1.0000
  H   H17       1.0  0.023256708128167373  0.9140785244295124  0.7360591420402396  1.0000
  C   C23       1.0  0.9077110982530604  0.36171035108398514  0.9720409017935188  1.0000
  C   C24       1.0  0.9692276953377417  0.41363761211282535  0.039612664614665935  1.0000
  C   C25       1.0  0.02648069987635937  0.47546450353743175  0.9588703428796886  1.0000
  C   C26       1.0  0.022421818708672877  0.48567980714175657  0.8074957564269818  1.0000
  C   C27       1.0  0.9624838152246912  0.43289122252961  0.7385560978814476  1.0000
  C   C28       1.0  0.9052480808861487  0.3687059263921322  0.8186316039300032  1.0000
  O   O2        1.0  0.08594581200989304  0.5258903586214916  0.03310842514923018  1.0000
  C   C29       1.0  0.14780091892614755  0.5912945845520285  0.9650245241728211  1.0000
  H   H18       1.0  0.7290211333211001  0.29044146184330644  0.08596803577854817  1.0000
  H   H19       1.0  0.06569149401118769  0.5332123689119477  0.7418688097429138  1.0000
  H   H20       1.0  0.9618762547888469  0.439612970089323  0.6214847738743488  1.0000
  H   H21       1.0  0.7860867200227195  0.3155212903834068  0.5451294849598247  1.0000
  H   H22       1.0  0.1276158046362321  0.6801320956078274  0.90095707189784  1.0000
  H   H23       1.0  0.1791404652312938  0.5253553235851829  0.8941019745087946  1.0000
  H   H24       1.0  0.18625376922273396  0.6205075776426856  0.049241796666056555  1.0000
  Zn  Zn1       1.0  0.8241557797164009  0.3691216622067006  0.3966787468167342  1.0000
  Zn  Zn2       1.0  0.9887962246281679  0.3612943738161236  0.3939932361359735  1.0000
  C   C30       1.0  0.9057130157155941  0.3622102914972631  0.6586078931813837  1.0000
  C   C31       1.0  0.9072407857579735  0.3682072987645779  0.1320642019208471  1.0000
  C   C32       1.0  0.9064449738310526  0.6023420174645064  0.38959156587899435  1.0000
  C   C33       1.0  0.906508771550914  0.12807401587297895  0.401080606994376  1.0000
  O   O3        1.0  0.9695631365352545  0.3674116531256115  0.18475034598227058  1.0000
  O   O4        1.0  0.9683489545090427  0.3570642232529761  0.6038830937089861  1.0000
  O   O5        1.0  0.9689391733206993  0.5509736812796264  0.38665051981212584  1.0000
  O   O6        1.0  0.9689728618555452  0.17350220616658277  0.40198281271576863  1.0000
  O   O7        1.0  0.8439790863053416  0.5569138325286618  0.38868917114579  1.0000
  O   O8        1.0  0.8433888674016039  0.3630059340987877  0.6059216681803619  1.0000
  O   O9        1.0  0.8446030545288502  0.3733533043944399  0.18678718739699884  1.0000
  O   O10       1.0  0.8440127795335116  0.17944384904021016  0.4040197622027104  1.0000
