data_image0
_chemical_formula_structural       NC6NC2H4C6NCH9C6NCH7Zn2C4O8
_chemical_formula_sum              "N4 C26 H20 Zn2 O8"
_cell_length_a       14.927258858638513
_cell_length_b       9.273386996610927
_cell_length_c       9.273390368590327
_cell_angle_alpha    86.07317832945773
_cell_angle_beta     89.9908392513429
_cell_angle_gamma    89.39858807063658

_space_group_name_H-M_alt    "P 1"
_space_group_IT_number       1

loop_
  _space_group_symop_operation_xyz
  'x, y, z'

loop_
  _atom_site_type_symbol
  _atom_site_label
  _atom_site_symmetry_multiplicity
  _atom_site_fract_x
  _atom_site_fract_y
  _atom_site_fract_z
  _atom_site_occupancy
  N   N1        1.0  0.833541572185466  0.5619482232727286  0.40762045221536525  1.0000
  C   C1        1.0  0.7560150812019848  0.5619481948646168  0.40762046284889725  1.0000
  C   C2        1.0  0.6595825729153053  0.5619483094772255  0.40762041280927996  1.0000
  C   C3        1.0  0.6127060950464526  0.5369020829989526  0.2809987184752851  1.0000
  C   C4        1.0  0.5189947835581882  0.5369021072263824  0.28099858500151864  1.0000
  C   C5        1.0  0.4717665100786459  0.5619481320568778  0.40762043172705986  1.0000
  C   C6        1.0  0.3753339348004121  0.5619482466723895  0.40762038168151443  1.0000
  N   N2        1.0  0.2978074438169305  0.5619482182642772  0.40762039231504654  1.0000
  C   C7        1.0  0.5186429209559441  0.5869943585380537  0.5342421260551263  1.0000
  C   C8        1.0  0.6123542324442085  0.5869943343106239  0.5342422595288936  1.0000
  H   H1        1.0  0.6485391494619385  0.5174147053085789  0.18247977307564645  1.0000
  H   H2        1.0  0.4834354926631105  0.5174149028697081  0.1824797678162895  1.0000
  H   H3        1.0  0.48280993357737423  0.6064817270555702  0.6327611795353651  1.0000
  H   H4        1.0  0.6479135226836374  0.606481637202881  0.6327611865609695  1.0000
  C   C9        1.0  0.0684334806908105  0.13830175022071978  0.4083286720777759  1.0000
  C   C10       1.0  0.08418497098911737  0.22039217061006844  0.27801254024638244  1.0000
  C   C11       1.0  0.09150163088990526  0.15450401726404706  0.14768835350263654  1.0000
  C   C12       1.0  0.08317770887231823  0.004167849569829853  0.1443482118888948  1.0000
  C   C13       1.0  0.069005000233406  0.9211097029100431  0.2742116545549077  1.0000
  C   C14       1.0  0.06292417537024722  0.985583683727887  0.4069247049971912  1.0000
  N   N3        1.0  0.0897375147582447  0.9332146714720394  0.011333353473105932  1.0000
  C   C15       1.0  0.10468463279643775  0.009616189544034318  0.8706873525972458  1.0000
  H   H5        1.0  0.08669611626089951  0.4029616208284048  0.6449515744154661  1.0000
  H   H6        1.0  0.08875448693226452  0.33701926851494046  0.27624430812717515  1.0000
  H   H7        1.0  0.10281540453992322  0.22206552065242446  0.049788414215460756  1.0000
  H   H8        1.0  0.06477696553420031  0.8046844658935131  0.27193798387698065  1.0000
  H   H9        1.0  0.09584967206014944  0.8579530552316371  0.7579638511202289  1.0000
  H   H10       1.0  0.08340355986884228  0.8208793172079659  0.01432205134022179  1.0000
  H   H11       1.0  0.04915327417664608  0.08792357730413534  0.8456456895247011  1.0000
  H   H12       1.0  0.16952552067019988  0.06717040630558091  0.8709199198136561  1.0000
  H   H13       1.0  0.10695721931979656  0.9312726496344166  0.7853628255543781  1.0000
  C   C16       1.0  0.06574961122104295  0.557443953814698  0.9843883570288722  1.0000
  C   C17       1.0  0.14804663658206918  0.5545774861733919  0.05799558853598752  1.0000
  C   C18       1.0  0.22882133953511424  0.5651219515850778  0.9825633232040478  1.0000
  C   C19       1.0  0.22935051233042847  0.5789237145554236  0.8309124640983114  1.0000
  C   C20       1.0  0.1476153373828668  0.5793572276878971  0.7564996621438398  1.0000
  C   C21       1.0  0.06560808453889094  0.5664415245197705  0.8308649819671063  1.0000
  N   N4        1.0  0.311628524893135  0.5911292564902617  0.7501039630742059  1.0000
  C   C22       1.0  0.40007725994378895  0.591299283305853  0.8170918745456539  1.0000
  H   H14       1.0  0.9248028085261055  0.4881454959253249  0.2703431919371386  1.0000
  H   H15       1.0  0.2905528469817573  0.5637944573398206  0.04368652417944639  1.0000
  H   H16       1.0  0.8575640387703185  0.4543625618972379  0.7355596308548992  1.0000
  H   H17       1.0  0.30865968793879656  0.6006903420541014  0.6372122864542793  1.0000
  H   H18       1.0  0.4052894629618666  0.6838437518171392  0.8864070563872021  1.0000
  H   H19       1.0  0.41167515493186846  0.48817607758892817  0.8828166949967183  1.0000
  H   H20       1.0  0.45250540424143026  0.6022055308429306  0.7321832326600006  1.0000
  Zn  Zn1       1.0  0.9675187057666305  0.561944444650039  0.4076287693078986  1.0000
  Zn  Zn2       1.0  0.16383039597772928  0.5619403057416679  0.40762391767075545  1.0000
  C   C23       1.0  0.06567018927665562  0.5589935493038238  0.6708723054497636  1.0000
  C   C24       1.0  0.06568104432562974  0.5648930228191862  0.14438051992024037  1.0000
  C   C25       1.0  0.06396191568375831  0.8253683284387823  0.40144672245166557  1.0000
  C   C26       1.0  0.06738926218849639  0.2985165112285788  0.41380618263227115  1.0000
  O   O1        1.0  0.14015733692172205  0.5673851338996625  0.19807352059127603  1.0000
  O   O2        1.0  0.14018993435352411  0.5564972041455407  0.6171752094123037  1.0000
  O   O3        1.0  0.13880947728688509  0.7715982230166627  0.3996121424497856  1.0000
  O   O4        1.0  0.14153772695144506  0.35228412420139765  0.4156364794731946  1.0000
  O   O5        1.0  0.98981130780136  0.771600626193212  0.39961620749953175  1.0000
  O   O6        1.0  0.9911917536064748  0.5565013397806411  0.6171791947421892  1.0000
  O   O7        1.0  0.9911591568509068  0.5673892008429604  0.19807577318206282  1.0000
  O   O8        1.0  0.9925395469259911  0.35228818197474077  0.41563884013865415  1.0000
