data_image0
_chemical_formula_structural       NC5NC4H6C6NH7C7OH5Zn2C4O8
_chemical_formula_sum              "N3 C26 H18 O9 Zn2"
_cell_length_a       13.854160002989762
_cell_length_b       9.274771166103582
_cell_length_c       9.274074313596557
_cell_angle_alpha    86.0140142098405
_cell_angle_beta     90.23361037791132
_cell_angle_gamma    90.59704847255895

_space_group_name_H-M_alt    "P 1"
_space_group_IT_number       1

loop_
  _space_group_symop_operation_xyz
  'x, y, z'

loop_
  _atom_site_type_symbol
  _atom_site_label
  _atom_site_symmetry_multiplicity
  _atom_site_fract_x
  _atom_site_fract_y
  _atom_site_fract_z
  _atom_site_occupancy
  N   N1        1.0  0.9154654783455071  0.5630266053353916  0.4073503269016303  1.0000
  C   C1        1.0  0.8431434128110195  0.587663549294621  0.3482706522033929  1.0000
  C   C2        1.0  0.7531737434982729  0.6183125693410642  0.27477327525111317  1.0000
  C   C3        1.0  0.6655975927799973  0.589527927409527  0.3465348457902302  1.0000
  C   C4        1.0  0.5780313311621113  0.6183125834456265  0.27477325205737024  1.0000
  C   C5        1.0  0.4880352706757876  0.5876634028486247  0.3482707440743604  1.0000
  N   N2        1.0  0.41569190730472805  0.5630265418265766  0.4073503269308385  1.0000
  C   C6        1.0  0.5780781356045289  0.6764885627865935  0.13126797211720942  1.0000
  C   C7        1.0  0.665636255255861  0.70742268786896  0.05939906158887665  1.0000
  C   C8        1.0  0.6656199563076128  0.7657271235102137  0.9044068168257985  1.0000
  C   C9        1.0  0.7531552243784309  0.676488560575286  0.1312678818608377  1.0000
  H   H1        1.0  0.6655858961710526  0.5443895377046477  0.45760550037672876  1.0000
  H   H2        1.0  0.5102014030633326  0.6977328173121125  0.07559062634439018  1.0000
  H   H3        1.0  0.730882915609547  0.8336662126329901  0.8805009447189769  1.0000
  H   H4        1.0  0.601174438146014  0.8336662151487432  0.8805010097863736  1.0000
  H   H5        1.0  0.6647886967006178  0.6744849942142395  0.8330332166741706  1.0000
  H   H6        1.0  0.8210243626906294  0.6977329289770793  0.07559054073121252  1.0000
  C   C10       1.0  0.16262215773108624  0.13943772982927594  0.4081359227010539  1.0000
  C   C11       1.0  0.1400503004010556  0.2214813374183724  0.2792505009885107  1.0000
  C   C12       1.0  0.12648812848029475  0.15515877981096438  0.1495473577808213  1.0000
  C   C13       1.0  0.1355457867648182  0.0054059198880207545  0.14779018431219004  1.0000
  C   C14       1.0  0.15632781644914792  0.9220255050374977  0.2749050970570317  1.0000
  C   C15       1.0  0.16854444288295098  0.986604468063832  0.40657728136900273  1.0000
  N   N3        1.0  0.10450533674664975  0.2402879805989948  0.019245410659888273  1.0000
  H   H7        1.0  0.2721333974373372  0.2221942341716359  0.7235582052062026  1.0000
  H   H8        1.0  0.13518194832013597  0.33806861174696223  0.27869687472376325  1.0000
  H   H9        1.0  0.1255679021959801  0.9529391198063588  0.047996701428750344  1.0000
  H   H10       1.0  0.16057002944635457  0.805820971573475  0.2707774175809401  1.0000
  H   H11       1.0  0.23839852807225728  0.6916446608622289  0.6211761139738328  1.0000
  H   H12       1.0  0.0978548990529351  0.35236142323958175  0.01919859857986372  1.0000
  H   H13       1.0  0.09462495490579846  0.19186165439536665  0.9218221417214368  1.0000
  C   C16       1.0  0.1643985402214576  0.5588666007709039  0.9841230531667895  1.0000
  C   C17       1.0  0.08053695334789322  0.6014521865720761  0.05393354768625991  1.0000
  C   C18       1.0  0.0015094966685225155  0.6556302391012078  0.9746516293411007  1.0000
  C   C19       1.0  0.004496242966972593  0.6686637683642114  0.8233476479463859  1.0000
  C   C20       1.0  0.08704240534958485  0.6243367031308882  0.752400471480009  1.0000
  C   C21       1.0  0.16676801264056795  0.5671755148819058  0.8305901720185984  1.0000
  C   C22       1.0  0.9218749381315405  0.7268085641271824  0.7378499555487159  1.0000
  O   O1        1.0  0.8465179074436022  0.7669990195514078  0.7984822817718591  1.0000
  H   H14       1.0  0.3999826641680202  0.5221162209641015  0.09097925729465928  1.0000
  H   H15       1.0  0.938408765725336  0.6886513494558006  0.031992522864401796  1.0000
  H   H16       1.0  0.08820973649096595  0.6313270554176248  0.6352309472739557  1.0000
  H   H17       1.0  0.32508777139651945  0.5371950545313378  0.553179519570286  1.0000
  H   H18       1.0  0.9253636351178027  0.7355641190172696  0.620964329409539  1.0000
  Zn  Zn1       1.0  0.059820022136845896  0.5630228068997138  0.407358665895043  1.0000
  Zn  Zn2       1.0  0.27133731530544747  0.5630186526034597  0.4073538462527586  1.0000
  C   C23       1.0  0.16627783223214498  0.5598585499771316  0.6706002919491438  1.0000
  C   C24       1.0  0.16488182809161  0.5661847308945018  0.1441123582564574  1.0000
  C   C25       1.0  0.16740394773620257  0.8264155141991474  0.4011285988739106  1.0000
  C   C26       1.0  0.1637556285114667  0.29962603439010205  0.4135841313611628  1.0000
  O   O2        1.0  0.24531369034939798  0.5686328927069015  0.19780441311399313  1.0000
  O   O3        1.0  0.24638269254378484  0.5574061428934189  0.6169041662119117  1.0000
  O   O4        1.0  0.24729096717595977  0.772654277307365  0.39930386476186364  1.0000
  O   O5        1.0  0.24440534331033215  0.3533847675523216  0.4154046064827681  1.0000
  O   O6        1.0  0.08675192195147981  0.7726566919537656  0.39930790565909424  1.0000
  O   O7        1.0  0.0858436592149096  0.5574102898251166  0.6169081270737309  1.0000
  O   O8        1.0  0.0847746518827095  0.5686369723632387  0.19780664126547753  1.0000
  O   O9        1.0  0.08386630507005342  0.35338883795220677  0.41540694270958656  1.0000
