data_image0
_chemical_formula_structural       NC8NC6H8C7F3H5C7H7Zn2C4O8
_chemical_formula_sum              "N2 C32 H20 F3 Zn2 O8"
_cell_length_a       17.457602349358154
_cell_length_b       9.27228830945605
_cell_length_c       9.274345330872308
_cell_angle_alpha    84.82071203492734
_cell_angle_beta     92.4462132353122
_cell_angle_gamma    91.12935064675003

_space_group_name_H-M_alt    "P 1"
_space_group_IT_number       1

loop_
  _space_group_symop_operation_xyz
  'x, y, z'

loop_
  _atom_site_type_symbol
  _atom_site_label
  _atom_site_symmetry_multiplicity
  _atom_site_fract_x
  _atom_site_fract_y
  _atom_site_fract_z
  _atom_site_occupancy
  N   N1        1.0  0.7200490824090031  0.6262006967553859  0.4649545512653004  1.0000
  C   C1        1.0  0.6592895620977646  0.5752667281420567  0.4534530911863228  1.0000
  C   C2        1.0  0.5837020591588838  0.5119111370485396  0.4391558387719851  1.0000
  C   C3        1.0  0.5245995187188457  0.5558805409128462  0.5221050076732245  1.0000
  C   C4        1.0  0.4504348500536383  0.49487314796775994  0.5084768876530492  1.0000
  C   C5        1.0  0.38770828450705275  0.5412962806071375  0.59632401573039  1.0000
  C   C6        1.0  0.3133038982253563  0.5623028260566779  0.534258816768914  1.0000
  C   C7        1.0  0.2542019525965607  0.6060669317650792  0.6173290797166568  1.0000
  C   C8        1.0  0.1783658171913718  0.6277659636952828  0.5527988683209433  1.0000
  N   N2        1.0  0.1174065177445664  0.6452048956915841  0.5009167866655255  1.0000
  C   C9        1.0  0.2690085080203884  0.6290902038193302  0.7630279123411623  1.0000
  C   C10       1.0  0.34262415288096576  0.6085124712335914  0.8255212259897106  1.0000
  C   C11       1.0  0.4017113715338606  0.5649444257152886  0.7429583044935408  1.0000
  C   C12       1.0  0.43667181168219  0.3891561890860537  0.4103120629228848  1.0000
  C   C13       1.0  0.4957591906777047  0.3454929302016892  0.3278054900815406  1.0000
  C   C14       1.0  0.5691359551176418  0.4066203819289284  0.3420438383164184  1.0000
  H   H1        1.0  0.5362004469941769  0.6388459995635841  0.5956479309201068  1.0000
  H   H2        1.0  0.3015065205550813  0.546560041036019  0.4210144103050135  1.0000
  H   H3        1.0  0.22370062652536218  0.6628899720318571  0.8281928236968101  1.0000
  H   H4        1.0  0.35390032192136783  0.6259892000686023  0.9383410854764264  1.0000
  H   H5        1.0  0.4580777082599855  0.5478849316520804  0.7942733604845571  1.0000
  H   H6        1.0  0.3805022574587671  0.33887770450220134  0.39876673640699667  1.0000
  H   H7        1.0  0.4846708895364727  0.263778408430946  0.2529242575168643  1.0000
  H   H8        1.0  0.6144467035677664  0.37184984846567354  0.2774522600283986  1.0000
  C   C15       1.0  0.9209786312761205  0.21196877459994282  0.4853637025393227  1.0000
  C   C16       1.0  0.9578700846033368  0.2966157374402072  0.3747075352870426  1.0000
  C   C17       1.0  0.9872100494470634  0.23331414416972926  0.25833596528851877  1.0000
  C   C18       1.0  0.9793948777197271  0.0838063218674703  0.24840327908273682  1.0000
  C   C19       1.0  0.9452928401606417  0.9975962471962581  0.3611489976519009  1.0000
  C   C20       1.0  0.9164843238071282  0.059425953985030595  0.48052086457705856  1.0000
  C   C21       1.0  0.013049379453403455  0.0148453865678766  0.12467620922027998  1.0000
  F   F1        1.0  0.012886353263962258  0.11038428798959532  0.0010252892880633334  1.0000
  F   F2        1.0  0.9709400215574461  0.892689021260113  0.09335333316088712  1.0000
  F   F3        1.0  0.08768986365257114  0.9756185264817582  0.16268581489591094  1.0000
  H   H9        1.0  0.7910220960322306  0.2863422025778999  0.7332041222913893  1.0000
  H   H10       1.0  0.96270033395347  0.4130995842031857  0.3766381012503781  1.0000
  H   H11       1.0  0.015493965789949314  0.301799949989338  0.17525203414343649  1.0000
  H   H12       1.0  0.942856059163604  0.8810657418764145  0.3576831485594522  1.0000
  H   H13       1.0  0.8793601423982782  0.9252866238307323  0.8266907476327725  1.0000
  C   C22       1.0  0.9204487694623915  0.6390247494463064  0.059278252803607316  1.0000
  C   C23       1.0  0.87425678819218  0.7384800230041564  0.11982525309351998  1.0000
  C   C24       1.0  0.8235424210247336  0.8261118681532191  0.032730510013230685  1.0000
  C   C25       1.0  0.8172405913347729  0.8151927985836659  0.8832715295884217  1.0000
  C   C26       1.0  0.8645999298563366  0.7198514621482974  0.8208046559650833  1.0000
  C   C27       1.0  0.9170141429032195  0.6323699718376317  0.9066062506869378  1.0000
  C   C28       1.0  0.7638708693727976  0.9117907245449878  0.7893936970257388  1.0000
  H   H14       1.0  0.8761680053458312  0.7463165357507209  0.23577468521732015  1.0000
  H   H15       1.0  0.7885243010365113  0.901536287902665  0.08231997669689403  1.0000
  H   H16       1.0  0.8617146835078966  0.7164227465473065  0.7041686942991199  1.0000
  H   H17       1.0  0.9801739990263746  0.42672692569573045  0.6495190186663633  1.0000
  H   H18       1.0  0.7946514782019097  0.013474033697791207  0.7525310058485193  1.0000
  H   H19       1.0  0.713399076247631  0.9387770028991524  0.8502468899066296  1.0000
  H   H20       1.0  0.7426132191177747  0.8574359507481404  0.6931473293019557  1.0000
  Zn  Zn1       1.0  0.8347178416421535  0.6316809630456939  0.4753408277618878  1.0000
  Zn  Zn2       1.0  0.002737759124916692  0.6397127059772669  0.49054238948693185  1.0000
  C   C29       1.0  0.9176921537438726  0.6278793671967116  0.7464758405594007  1.0000
  C   C30       1.0  0.9197652715660263  0.6435162090697746  0.21940767388866075  1.0000
  C   C31       1.0  0.9173531850797787  0.8992834557259838  0.47568676992390974  1.0000
  C   C32       1.0  0.9201041917788721  0.3721103835634827  0.49019682616133453  1.0000
  O   O1        1.0  0.9832985998547575  0.6480652934012959  0.2789175198302376  1.0000
  O   O2        1.0  0.9816820625646898  0.6294251046129842  0.6985032191407619  1.0000
  O   O3        1.0  0.9814074754493686  0.8485872856030787  0.4798390423822149  1.0000
  O   O4        1.0  0.9835731300199978  0.42890312084234056  0.49758158316868667  1.0000
  O   O5        1.0  0.8538824134101434  0.8424905454414116  0.4683016288849884  1.0000
  O   O6        1.0  0.8541569916397834  0.6233300986891265  0.6869657188112086  1.0000
  O   O7        1.0  0.8557735362784902  0.6419702508195733  0.26737828522734153  1.0000
  O   O8        1.0  0.8560480660568824  0.4228080670902694  0.4860424567907444  1.0000
