data_image0
_chemical_formula_structural       NC9NC5H8C6NO2H5C6OCH7Zn2C4O8
_chemical_formula_sum              "N3 C31 H20 O11 Zn2"
_cell_length_a       17.807436237873137
_cell_length_b       9.273392599741051
_cell_length_c       9.273891588657152
_cell_angle_alpha    86.1963526091537
_cell_angle_beta     89.08663702953788
_cell_angle_gamma    87.79638846343423

_space_group_name_H-M_alt    "P 1"
_space_group_IT_number       1

loop_
  _space_group_symop_operation_xyz
  'x, y, z'

loop_
  _atom_site_type_symbol
  _atom_site_label
  _atom_site_symmetry_multiplicity
  _atom_site_fract_x
  _atom_site_fract_y
  _atom_site_fract_z
  _atom_site_occupancy
  N   N1        1.0  0.7038018214783076  0.5269460473973415  0.4019284919323174  1.0000
  C   C1        1.0  0.643462127904366  0.48774203799206145  0.3896046737097314  1.0000
  C   C2        1.0  0.5684061809938337  0.43897656748961666  0.3742751820824451  1.0000
  C   C3        1.0  0.5510890150657414  0.3585734474476261  0.25754813197844384  1.0000
  C   C4        1.0  0.4782144980424324  0.31110123076076107  0.24257219279982256  1.0000
  C   C5        1.0  0.421610805588245  0.343612411410631  0.34428634279169334  1.0000
  C   C6        1.0  0.3441630191304486  0.2932901664693721  0.32846218337607547  1.0000
  C   C7        1.0  0.2814097956303412  0.38437603357319117  0.35745711672362  1.0000
  C   C8        1.0  0.2083941499760088  0.33667840408717953  0.34249585705190744  1.0000
  C   C9        1.0  0.1445734552522591  0.43075776086374495  0.37190141575361846  1.0000
  N   N2        1.0  0.0932746425107994  0.5063910660582065  0.395542664016697  1.0000
  C   C10       1.0  0.1975498177803479  0.19760806315281274  0.29851088386561186  1.0000
  C   C11       1.0  0.2594457823150716  0.1065067223059748  0.26950660375741875  1.0000
  C   C12       1.0  0.3323450338395864  0.15376399953773762  0.28424207043319055  1.0000
  C   C13       1.0  0.4396156829491207  0.42456694820001895  0.46125796131364316  1.0000
  C   C14       1.0  0.5125447274270161  0.47182607362909756  0.4760606596992905  1.0000
  H   H1        1.0  0.5938546091819271  0.33286474320548876  0.17789372228263578  1.0000
  H   H2        1.0  0.46589704577322577  0.25062205610814275  0.15039992388290657  1.0000
  H   H3        1.0  0.289226264704381  0.49294238782685484  0.38975238986582245  1.0000
  H   H4        1.0  0.141324282386577  0.15969003300364615  0.2866661578639369  1.0000
  H   H5        1.0  0.2509299772327359  0.9988391817703207  0.23588096441912176  1.0000
  H   H6        1.0  0.3794438201782677  0.08053484572729586  0.2629352499911377  1.0000
  H   H7        1.0  0.3975659612588604  0.4496900112828097  0.5423478706122813  1.0000
  H   H8        1.0  0.5253866079137469  0.5336505730329095  0.5670798050749772  1.0000
  C   C15       1.0  0.9008354247525623  0.09301048949639411  0.39779154085621893  1.0000
  C   C16       1.0  0.8916545913153737  0.17564129796720176  0.26627328539071415  1.0000
  C   C17       1.0  0.8758275239779231  0.11022426426299493  0.13964168253444598  1.0000
  C   C18       1.0  0.8686553890211791  0.9601980300992116  0.1409974936775307  1.0000
  C   C19       1.0  0.8790114570948695  0.8763276672980131  0.2714913549104743  1.0000
  C   C20       1.0  0.8962482416945197  0.9403152589972271  0.39969195495752885  1.0000
  N   N3        1.0  0.8516714113635504  0.8933861056358873  0.01015835822099187  1.0000
  O   O1        1.0  0.8421890190184949  0.9758183035737346  0.8823481917003995  1.0000
  O   O2        1.0  0.8450528490094711  0.7598042557227703  0.01049698789403042  1.0000
  H   H9        1.0  0.8844848073729753  0.17357837642489768  0.7518258942123761  1.0000
  H   H10       1.0  0.894952512879186  0.2922708031511414  0.2619606235312726  1.0000
  H   H11       1.0  0.8684415957125023  0.1776282913953089  0.04069698729164406  1.0000
  H   H12       1.0  0.8753785127658151  0.7599266042168036  0.2725769407184948  1.0000
  H   H13       1.0  0.8877971750071159  0.6448557166444617  0.6389201655800996  1.0000
  C   C21       1.0  0.8997936698644381  0.5127770367524961  0.9754376755097631  1.0000
  C   C22       1.0  0.961008344906531  0.570465052418492  0.043138970397168075  1.0000
  C   C23       1.0  0.01790186772059865  0.6391509528572159  0.9625508752637445  1.0000
  C   C24       1.0  0.013783591443892625  0.6504995312856432  0.8112017707901957  1.0000
  C   C25       1.0  0.9541525180189144  0.5918546377219343  0.7421304316147945  1.0000
  C   C26       1.0  0.8972899779396107  0.5205486936813086  0.8220458280433303  1.0000
  O   O3        1.0  0.07707378747570526  0.6951709982134477  0.03691474435647679  1.0000
  C   C27       1.0  0.13854861287709408  0.7678310988108519  0.9689939936090397  1.0000
  H   H14       1.0  0.7215180855138186  0.43360165338823564  0.08918702991812633  1.0000
  H   H15       1.0  0.056776896919561885  0.7033053044713464  0.7456933936362486  1.0000
  H   H16       1.0  0.95350587514905  0.5993220887456314  0.6250758749440237  1.0000
  H   H17       1.0  0.7784378499072598  0.46146381120392094  0.5484110404967844  1.0000
  H   H18       1.0  0.11784696830491437  0.8665241480488753  0.9051481456732859  1.0000
  H   H19       1.0  0.17027155156542118  0.6945766069641329  0.8979069590761549  1.0000
  H   H20       1.0  0.17683160929790698  0.8002849500187652  0.053284137639914464  1.0000
  Zn  Zn1       1.0  0.8161952595461578  0.5210105507811936  0.40009400797915684  1.0000
  Zn  Zn2       1.0  0.9808812148671392  0.5123149114127491  0.39738897220082015  1.0000
  C   C28       1.0  0.8977926805102487  0.5133324400189463  0.6620059139943071  1.0000
  C   C29       1.0  0.8992855819951944  0.5199947488396223  0.13547718221222804  1.0000
  C   C30       1.0  0.8971284344016085  0.7801041220802689  0.3935885930331362  1.0000
  C   C31       1.0  0.8999497810646993  0.2532213371304257  0.40389457706080495  1.0000
  O   O4        1.0  0.961612558915887  0.5191108351269424  0.18816134154305741  1.0000
  O   O5        1.0  0.9604585402239392  0.5076154724837276  0.6072682777028752  1.0000
  O   O6        1.0  0.9599213061623908  0.7230370377808732  0.3905194091327988  1.0000
  O   O7        1.0  0.9621497370450321  0.3036892821252477  0.4049101029773796  1.0000
  O   O8        1.0  0.834926681169045  0.7296361830375906  0.39257287811811525  1.0000
  O   O9        1.0  0.8354639060705074  0.5142163503572136  0.6093216737163025  1.0000
  O   O10       1.0  0.8366179302098901  0.5257116468140384  0.19021300435122268  1.0000
  O   O11       1.0  0.8371551080722177  0.3102900844857883  0.40696187383681615  1.0000
