data_image0
_chemical_formula_structural       NC5NC4H6C7NH5C6SCH8Zn2C4O8
_chemical_formula_sum              "N3 C27 H19 S1 Zn2 O8"
_cell_length_a       13.854160002989762
_cell_length_b       9.275154477615127
_cell_length_c       10.302812801239593
_cell_angle_alpha    85.78691219350036
_cell_angle_beta     89.99986876837025
_cell_angle_gamma    89.43370676253429

_space_group_name_H-M_alt    "P 1"
_space_group_IT_number       1

loop_
  _space_group_symop_operation_xyz
  'x, y, z'

loop_
  _atom_site_type_symbol
  _atom_site_label
  _atom_site_symmetry_multiplicity
  _atom_site_fract_x
  _atom_site_fract_y
  _atom_site_fract_z
  _atom_site_occupancy
  N   N1        1.0  0.8984705580943357  0.5778877579035204  0.5735785007005605  1.0000
  C   C1        1.0  0.8259711911468244  0.6030922937584284  0.520491133808541  1.0000
  C   C2        1.0  0.7357809559126368  0.6344474199887327  0.4544484156906585  1.0000
  C   C3        1.0  0.6484046626079047  0.6049727901303588  0.5189373363613644  1.0000
  C   C4        1.0  0.5606385434466334  0.6344474343139541  0.4544483948725253  1.0000
  C   C5        1.0  0.4708630507568065  0.6030921464827146  0.5204912157971002  1.0000
  N   N2        1.0  0.3986969879165367  0.5778876944254923  0.573578500395532  1.0000
  C   C6        1.0  0.5602773407132378  0.6940029174273874  0.3254898071628863  1.0000
  C   C7        1.0  0.647606678560074  0.7256270318889855  0.2609154144692145  1.0000
  C   C8        1.0  0.6472112505686067  0.7854236100675646  0.1216106356286153  1.0000
  C   C9        1.0  0.7353544297578107  0.6940029161026903  0.3254897258530978  1.0000
  H   H1        1.0  0.6487102673589203  0.5587667422765799  0.6187485177118437  1.0000
  H   H2        1.0  0.4922603414791968  0.715783042667931  0.2754493811503935  1.0000
  H   H3        1.0  0.7116146788745535  0.8535640050562989  0.10043191884991409  1.0000
  H   H4        1.0  0.5819062012033649  0.8535640069324277  0.10043197747237209  1.0000
  H   H5        1.0  0.6478102116346708  0.6949263883144552  0.05684497592912385  1.0000
  H   H6        1.0  0.8030832998172559  0.7157831551182363  0.27544930461706746  1.0000
  C   C10       1.0  0.15138153446124078  0.15449842614613973  0.5720761804796839  1.0000
  C   C11       1.0  0.1248872643035181  0.23767751443981663  0.4576079445568611  1.0000
  C   C12       1.0  0.09054191947990486  0.17163909410682288  0.349203261115123  1.0000
  C   C13       1.0  0.08212533307816794  0.021518570446849246  0.35399011337811315  1.0000
  C   C14       1.0  0.10951420314232328  0.9371318069977491  0.4658491371234655  1.0000
  C   C15       1.0  0.14579533300398007  0.0012659449882543822  0.5750920798651296  1.0000
  C   C16       1.0  0.06276350196497747  0.2583999948878879  0.23335538438691497  1.0000
  N   N3        1.0  0.04043735953348348  0.32813985307457716  0.14024336566424456  1.0000
  H   H7        1.0  0.1700969148964644  0.2311694815081955  0.8907539883154341  1.0000
  H   H8        1.0  0.12882917710936992  0.3546369142159731  0.4537558196530456  1.0000
  H   H9        1.0  0.05521446594748736  0.9693919983423541  0.2706743057629186  1.0000
  H   H10       1.0  0.10444571750136865  0.8206642116331131  0.46573488205809466  1.0000
  H   H11       1.0  0.1624929155792667  0.7024956975883851  0.7886152760856567  1.0000
  C   C17       1.0  0.14858845999919532  0.5778821821666846  0.1923356502086442  1.0000
  C   C18       1.0  0.11508819247476487  0.721662364720131  0.18165045761719603  1.0000
  C   C19       1.0  0.09817207696776226  0.7929901911590052  0.05935750049541766  1.0000
  C   C20       1.0  0.1150881064559308  0.7216622133719912  0.9464992873889004  1.0000
  C   C21       1.0  0.1485883974554438  0.5778821724504439  0.9548325538035733  1.0000
  C   C22       1.0  0.16514517334468823  0.5066821078235058  0.07829311777293291  1.0000
  S   S1        1.0  0.055568063139820524  0.9767973868444199  0.04720082170935092  1.0000
  C   C23       1.0  0.928936346153862  0.926423696413907  0.050533538904404596  1.0000
  H   H12       1.0  0.16117734610238388  0.5236799174127316  0.5236766810023308  1.0000
  H   H13       1.0  0.10178056549968124  0.7787722634798837  0.2679729113008025  1.0000
  H   H14       1.0  0.10178037362283128  0.7787720557904301  0.8526225975789857  1.0000
  H   H15       1.0  0.19096797454476933  0.39576852201370594  0.08562862748516231  1.0000
  H   H16       1.0  0.1611755538141841  0.5236791688835343  0.630661092822202  1.0000
  H   H17       1.0  0.9122437053463253  0.8622841471853252  0.9666587754612915  1.0000
  H   H18       1.0  0.9122441091333442  0.8622856042771105  0.14289347268440422  1.0000
  H   H19       1.0  0.8836071246982211  0.02593950871377748  0.043951468422014806  1.0000
  Zn  Zn1       1.0  0.04282513127335874  0.5778838795102779  0.573585992215558  1.0000
  Zn  Zn2       1.0  0.2543424937460439  0.5778797745333871  0.5735816292583497  1.0000
  C   C24       1.0  0.14862415039136606  0.5721384383578363  0.8106838684066792  1.0000
  C   C25       1.0  0.14854577238982425  0.583627034808617  0.3364838869249509  1.0000
  C   C26       1.0  0.1468462719351029  0.8412088401671276  0.5693484415058081  1.0000
  C   C27       1.0  0.15032359009762186  0.31455490077931403  0.5778193768745661  1.0000
  O   O1        1.0  0.22880122426034832  0.5855472120079414  0.3848596738552308  1.0000
  O   O2        1.0  0.2289054896344948  0.5702140579047692  0.7623043924910075  1.0000
  O   O3        1.0  0.22746874822217242  0.7874918102464112  0.567424333142056  1.0000
  O   O4        1.0  0.2302378934280886  0.36826946998154897  0.5797396358984931  1.0000
  O   O5        1.0  0.06692965941080886  0.7874941840650864  0.5674279855700803  1.0000
  O   O6        1.0  0.0683663893910913  0.5702181639464261  0.7623079818649532  1.0000
  O   O7        1.0  0.06826212441271307  0.5855512678072281  0.38486170214271104  1.0000
  O   O8        1.0  0.06969879364453012  0.3682735154685568  0.579741761486328  1.0000
