data_image0
_chemical_formula_structural       NC6NCNCH5C6NCH9C7F3H4Zn2C4O8
_chemical_formula_sum              "N4 C26 H18 F3 Zn2 O8"
_cell_length_a       14.933214217465613
_cell_length_b       9.273386996610927
_cell_length_c       10.299327507215196
_cell_angle_alpha    85.45811780594276
_cell_angle_beta     89.947286011659
_cell_angle_gamma    89.43266693644959

_space_group_name_H-M_alt    "P 1"
_space_group_IT_number       1

loop_
  _space_group_symop_operation_xyz
  'x, y, z'

loop_
  _atom_site_type_symbol
  _atom_site_label
  _atom_site_symmetry_multiplicity
  _atom_site_fract_x
  _atom_site_fract_y
  _atom_site_fract_z
  _atom_site_occupancy
  N   N1        1.0  0.8332590354312637  0.5799611946928702  0.5643240076495868  1.0000
  C   C1        1.0  0.7557624752642785  0.5809584406254131  0.5634301085065163  1.0000
  C   C2        1.0  0.6593561798760208  0.5822017515797671  0.5623155269458018  1.0000
  C   C3        1.0  0.6121371140849243  0.4863845813964331  0.6482203246113644  1.0000
  C   C4        1.0  0.5185968443373434  0.4874680670965512  0.6472489530807775  1.0000
  C   C5        1.0  0.47137363324013515  0.5843138245330171  0.560422009448803  1.0000
  C   C6        1.0  0.3748114352421977  0.5822039094635159  0.562313657974858  1.0000
  N   N2        1.0  0.2973369133540369  0.5804437742069464  0.5638913745236716  1.0000
  C   C7        1.0  0.5186838213007056  0.6813409042794796  0.47343258378504627  1.0000
  N   N3        1.0  0.47273622202523097  0.7820008501925253  0.38318624441964233  1.0000
  C   C8        1.0  0.612710556069122  0.6792907393847578  0.4752707620319687  1.0000
  H   H1        1.0  0.6476119606101194  0.410839186642761  0.7159504415967584  1.0000
  H   H2        1.0  0.4829866702694888  0.41255817199310196  0.7144091983466334  1.0000
  H   H3        1.0  0.5086426498820792  0.8530965770823674  0.31944539778449865  1.0000
  H   H4        1.0  0.40296090969564546  0.7873568177914674  0.3783844208102813  1.0000
  H   H5        1.0  0.6494499282070338  0.7534469177148659  0.40878611289355726  1.0000
  C   C9        1.0  0.06805579256042665  0.15655124606810245  0.5647433329561068  1.0000
  C   C10       1.0  0.0838054074882959  0.2400612691551103  0.44730028710899233  1.0000
  C   C11       1.0  0.09112360824810817  0.1755840379415119  0.32985784188024303  1.0000
  C   C12       1.0  0.08280317270022275  0.025275184519677477  0.326855782964007  1.0000
  C   C13       1.0  0.06863171569905546  0.940803950682642  0.44388943786721935  1.0000
  C   C14       1.0  0.06254876692788636  0.003842570883086942  0.5634833459462835  1.0000
  N   N4        1.0  0.08936491894606836  0.9557611147363184  0.20698946827616876  1.0000
  C   C15       1.0  0.10431084436750382  0.03369263036715831  0.08023888698094604  1.0000
  H   H6        1.0  0.08630285447025443  0.41868216873676567  0.777948128609168  1.0000
  H   H7        1.0  0.08837313397124236  0.3567121568257434  0.4457026687895125  1.0000
  H   H8        1.0  0.10243618342567373  0.2442114772554604  0.24162928708567089  1.0000
  H   H9        1.0  0.06440547185359113  0.824398801623893  0.4418445637959764  1.0000
  H   H10       1.0  0.0954487975715455  0.8724662132359415  0.8797753991354531  1.0000
  H   H11       1.0  0.08303342590317557  0.8433869948737305  0.20968849696531278  1.0000
  H   H12       1.0  0.04880284035969917  0.11221194391431254  0.05772548752946481  1.0000
  H   H13       1.0  0.1691254648374646  0.09131173954123595  0.08038804040906643  1.0000
  H   H14       1.0  0.10658545932967871  0.9562702181156363  0.003350508627077084  1.0000
  C   C16       1.0  0.0653876612807634  0.5802556045381564  0.18273157798754514  1.0000
  C   C17       1.0  0.15203209158947892  0.6381919745565137  0.17729396466378944  1.0000
  C   C18       1.0  0.19507099142697779  0.6698665948641727  0.05725162295393459  1.0000
  C   C19       1.0  0.1518079131141934  0.6380387564556864  0.9420569444103042  1.0000
  C   C20       1.0  0.06521694520980281  0.5801382542445783  0.9454950883790003  1.0000
  C   C21       1.0  0.022372521268912104  0.5521171564330956  0.06630436052658095  1.0000
  C   C22       1.0  0.28934487267944853  0.7271736545798013  0.05281598636813322  1.0000
  F   F1        1.0  0.30443913636050723  0.8114366611164687  0.15556728452876745  1.0000
  F   F2        1.0  0.3492419871357155  0.6122110465802892  0.06080085946866553  1.0000
  F   F3        1.0  0.30419325998829355  0.8114168316601389  0.9379241392887091  1.0000
  H   H15       1.0  0.9025026089597337  0.46851151706880656  0.4004021062161453  1.0000
  H   H16       1.0  0.1862411572814445  0.6585186834802466  0.2666283083653065  1.0000
  H   H17       1.0  0.185863236952321  0.6582564879802277  0.8496150309972941  1.0000
  H   H18       1.0  0.9555907848201963  0.5074659343520399  0.06969044813086556  1.0000
  Zn  Zn1       1.0  0.967181910451444  0.5800965845207933  0.5642066725492889  1.0000
  Zn  Zn2       1.0  0.16341409820836095  0.5802965474128852  0.5640193924749076  1.0000
  C   C23       1.0  0.06528454678545437  0.5744131308283642  0.8013249898307823  1.0000
  C   C24       1.0  0.06531359286413044  0.5859818235623215  0.32690119791209193  1.0000
  C   C25       1.0  0.06358627629338898  0.8436872805755518  0.5585461478255926  1.0000
  C   C26       1.0  0.06701180764598047  0.3167059404432071  0.5696801117997395  1.0000
  O   O1        1.0  0.139757868315479  0.587973185950799  0.37521477691200655  1.0000
  O   O2        1.0  0.1397759684952864  0.5725724473615329  0.7528688973476466  1.0000
  O   O3        1.0  0.1384035894141009  0.7900147274880316  0.5568232634552024  1.0000
  O   O4        1.0  0.14113018039063274  0.37053091609127836  0.5712603134750651  1.0000
  O   O5        1.0  0.9894657613047484  0.7898622157757342  0.5569657516062076  1.0000
  O   O6        1.0  0.9908381291317264  0.5724216689544964  0.7530113136732699  1.0000
  O   O7        1.0  0.9908200296877618  0.5878223575106147  0.3753556318591047  1.0000
  O   O8        1.0  0.9921923418045236  0.37038007731744993  0.5714012658086254  1.0000
