data_image0
_chemical_formula_structural       NC11NC3H8C6SCOC6H10C6OC7H11Zn2C4O8
_chemical_formula_sum              "N2 C44 H29 S1 O10 Zn2"
_cell_length_a       17.807433833752565
_cell_length_b       10.302038109246572
_cell_length_c       10.299362532796529
_cell_angle_alpha    85.5856087193975
_cell_angle_beta     88.53944106115836
_cell_angle_gamma    90.70325301409062

_space_group_name_H-M_alt    "P 1"
_space_group_IT_number       1

loop_
  _space_group_symop_operation_xyz
  'x, y, z'

loop_
  _atom_site_type_symbol
  _atom_site_label
  _atom_site_symmetry_multiplicity
  _atom_site_fract_x
  _atom_site_fract_y
  _atom_site_fract_z
  _atom_site_occupancy
  N   N1        1.0  0.7074541858190415  0.43767305881895213  0.5348624713618468  1.0000
  C   C1        1.0  0.6566385553975121  0.4029756278836013  0.6014192039101665  1.0000
  C   C2        1.0  0.59341878474471  0.3598148829027513  0.6842072854333843  1.0000
  C   C3        1.0  0.6051530818431516  0.2963185670430124  0.8069154080516661  1.0000
  C   C4        1.0  0.5438406636378387  0.2548364770373093  0.8874198143398387  1.0000
  C   C5        1.0  0.4706396416532572  0.27653771140140954  0.8458568422195727  1.0000
  C   C6        1.0  0.45792850868216944  0.3401883962865956  0.722688550678926  1.0000
  C   C7        1.0  0.3801590845175771  0.3632185545432145  0.6783451475711033  1.0000
  C   C8        1.0  0.3613522507338351  0.3463091604962459  0.5487651612472133  1.0000
  C   C9        1.0  0.2881212721545458  0.3679716620008683  0.5071581136042822  1.0000
  C   C10       1.0  0.2327539858188273  0.4068617496562463  0.5943108337779246  1.0000
  C   C11       1.0  0.1573861976766402  0.4291821290067985  0.5513426003704314  1.0000
  N   N2        1.0  0.09679586962769919  0.4471260557628176  0.5167992679260933  1.0000
  C   C12       1.0  0.2508692130618962  0.4239815024586801  0.7233597225855917  1.0000
  C   C13       1.0  0.3240474630205269  0.4022841602853644  0.7652221902693215  1.0000
  C   C14       1.0  0.5200982404663915  0.38166592764833956  0.6422005593324354  1.0000
  H   H1        1.0  0.6616207940556325  0.2789187898783204  0.8402781282723863  1.0000
  H   H2        1.0  0.5530442150841764  0.2054259410036962  0.9821479476373208  1.0000
  H   H3        1.0  0.4240037620192683  0.24200997595785712  0.9092903722172782  1.0000
  H   H4        1.0  0.4030140297339373  0.31465299523050594  0.4800460090455192  1.0000
  H   H5        1.0  0.27466167738790737  0.3540624585561809  0.4071237756056163  1.0000
  H   H6        1.0  0.2084903422106553  0.454414767138539  0.7915639631458619  1.0000
  H   H7        1.0  0.3369788857483043  0.4177383489913173  0.8650739708090669  1.0000
  H   H8        1.0  0.5115934573785765  0.43243856806052894  0.547706908047692  1.0000
  C   C15       1.0  0.90205745792942  0.06111946500357978  0.5257938220063048  1.0000
  C   C16       1.0  0.8378217456796756  0.06430464930449187  0.44925521382530675  1.0000
  C   C17       1.0  0.8062140258225938  0.9489393815407984  0.41067247467986356  1.0000
  C   C18       1.0  0.8380633736636459  0.8291779007270446  0.4491899980367719  1.0000
  C   C19       1.0  0.9021998016619979  0.8236698470904166  0.5258787915378957  1.0000
  C   C20       1.0  0.9339047369618667  0.9402865601941301  0.5636961375738174  1.0000
  S   S1        1.0  0.7246777536864573  0.9544627012733665  0.31184722987792646  1.0000
  C   C21       1.0  0.7798876496197404  0.9642520194731617  0.16286528189301297  1.0000
  O   O1        1.0  0.7979948143147044  0.8594094718948528  0.11567562474261738  1.0000
  C   C22       1.0  0.8046540535198262  0.09099910137449574  0.09621935649587043  1.0000
  C   C23       1.0  0.8577536154144407  0.09459595896910501  0.9922503106953204  1.0000
  C   C24       1.0  0.8818888158587608  0.2134988885976224  0.929408090912625  1.0000
  C   C25       1.0  0.8533306524320875  0.3300544222520186  0.9692339148036782  1.0000
  C   C26       1.0  0.8004568151827817  0.3279352066774614  0.07183945761175825  1.0000
  C   C27       1.0  0.7760712575577559  0.2093299359612515  0.13501346196093866  1.0000
  H   H9        1.0  0.02304727244752414  0.26241773383787237  0.6702329221923184  1.0000
  H   H10       1.0  0.8122576603354268  0.15619629711935756  0.41916575450707394  1.0000
  H   H11       1.0  0.8127412399407173  0.7408017373091552  0.4186007873194053  1.0000
  H   H12       1.0  0.9834262686203801  0.9369107000586426  0.6226989709406552  1.0000
  H   H13       1.0  0.9267154244861531  0.4942642409101404  0.5547076861059537  1.0000
  H   H14       1.0  0.8809881770655581  0.005585849861115432  0.9598750935250289  1.0000
  H   H15       1.0  0.9228573371757147  0.21522291274171068  0.8498105500442321  1.0000
  H   H16       1.0  0.872101400773211  0.42199972120522067  0.9204892460725587  1.0000
  H   H17       1.0  0.7782065708453966  0.41835155529490836  0.1024083714793662  1.0000
  H   H18       1.0  0.7346624837350357  0.21098257947838106  0.21349910131001248  1.0000
  C   C28       1.0  0.9020699643245293  0.44227272100429044  0.14447212093604134  1.0000
  C   C29       1.0  0.8307458156395977  0.3818744759714973  0.15106177126228015  1.0000
  C   C30       1.0  0.8309574087482811  0.3820431319051314  0.9157976743108146  1.0000
  C   C31       1.0  0.9021872806550228  0.4425165658649292  0.9072004821373394  1.0000
  C   C32       1.0  0.9372709077908887  0.4725364975067541  0.022098459772381455  1.0000
  C   C33       1.0  0.719513586990691  0.2876246005179326  0.04650082675090084  1.0000
  O   O2        1.0  0.704149960519837  0.20806399411468823  0.1431006680286584  1.0000
  C   C34       1.0  0.66201109942576  0.3127733220502102  0.9462569938690542  1.0000
  C   C35       1.0  0.6562569257007712  0.43597655851017686  0.8786853646885215  1.0000
  C   C36       1.0  0.601272828644979  0.45881537879768075  0.7855436307953493  1.0000
  C   C37       1.0  0.5507192616007809  0.35994710854084566  0.7588284984596965  1.0000
  C   C38       1.0  0.5556834067010937  0.23691819868733544  0.8273550197569998  1.0000
  C   C39       1.0  0.6106607476681916  0.21395204577806856  0.9205694568365965  1.0000
  C   C40       1.0  0.4418513851924107  0.29671674059013964  0.6275149109791354  1.0000
  H   H19       1.0  0.036786738768513016  0.5557559899144386  0.33933956579302715  1.0000
  H   H20       1.0  0.8029258714549768  0.3584635441964281  0.24488381046626229  1.0000
  H   H21       1.0  0.8040969431880401  0.356316923021007  0.8279867647980995  1.0000
  H   H22       1.0  0.9922197546234006  0.5191831725049567  0.016199126367909548  1.0000
  H   H23       1.0  0.6937172301393915  0.5151180123077208  0.898781016886716  1.0000
  H   H24       1.0  0.5977111706725787  0.5541653769485282  0.7341566936929813  1.0000
  H   H25       1.0  0.5173602729136906  0.15844141970797462  0.8093962560094186  1.0000
  H   H26       1.0  0.6134924641150107  0.11840250037933586  0.9718770451103493  1.0000
  H   H27       1.0  0.40657286782156454  0.3445435841902278  0.5510740816800634  1.0000
  H   H28       1.0  0.4051607213544178  0.2636206358860554  0.7127629566579419  1.0000
  H   H29       1.0  0.4698404824685229  0.2120968266448211  0.5875503067971062  1.0000
  Zn  Zn1       1.0  0.8198097858244795  0.44039751810357  0.5296573050757807  1.0000
  Zn  Zn2       1.0  0.9844402545082365  0.4443909827418499  0.5220150189114057  1.0000
  C   C41       1.0  0.9021624537862799  0.43729796920135167  0.7630279785289826  1.0000
  C   C42       1.0  0.90208938463139  0.4474922135316284  0.28864438965203143  1.0000
  C   C43       1.0  0.9021682118571046  0.6795298347232774  0.520687781339271  1.0000
  C   C44       1.0  0.9020835701032027  0.20525878672963113  0.530984658513523  1.0000
  O   O3        1.0  0.9645723060931917  0.4507537574994933  0.3341297116608044  1.0000
  O   O4        1.0  0.9646302485254037  0.43706639287740184  0.7117419642014183  1.0000
  O   O5        1.0  0.9646340562362761  0.6326716677284934  0.5160505796207653  1.0000
  O   O6        1.0  0.9645684421918501  0.25514849054263156  0.5298210014768296  1.0000
  O   O7        1.0  0.8396815419605661  0.6296400089414257  0.5218513251114629  1.0000
  O   O8        1.0  0.839677734526755  0.43403629400904387  0.7175426406214427  1.0000
  O   O9        1.0  0.8396197918959293  0.4477236128877106  0.33992882669219826  1.0000
  O   O10       1.0  0.8396159280047566  0.25211833667525707  0.5356202138739579  1.0000
