data_image0
_chemical_formula_structural       NC8NH4C6NH7C10H6Zn2C4O8
_chemical_formula_sum              "N3 C28 H17 Zn2 O8"
_cell_length_a       13.859017981522156
_cell_length_b       9.274771166103582
_cell_length_c       9.275153671780863
_cell_angle_alpha    85.60840141486051
_cell_angle_beta     89.40939788478961
_cell_angle_gamma    90.59707920365587

_space_group_name_H-M_alt    "P 1"
_space_group_IT_number       1

loop_
  _space_group_symop_operation_xyz
  'x, y, z'

loop_
  _atom_site_type_symbol
  _atom_site_label
  _atom_site_symmetry_multiplicity
  _atom_site_fract_x
  _atom_site_fract_y
  _atom_site_fract_z
  _atom_site_occupancy
  N   N1        1.0  0.9305622753033999  0.5745813830575166  0.40661968157035716  1.0000
  C   C1        1.0  0.8585805701769164  0.567391972370648  0.34529972297514977  1.0000
  C   C2        1.0  0.7690395579067371  0.558449658592785  0.2690256728153617  1.0000
  C   C3        1.0  0.7697615503047366  0.5410112709472297  0.12028753393286376  1.0000
  C   C4        1.0  0.6827793392099868  0.5323279836936938  0.04621562710142557  1.0000
  C   C5        1.0  0.5948962880975536  0.5410129931290624  0.12028728240519727  1.0000
  C   C6        1.0  0.5938093290829518  0.5584506316525932  0.2690254871875267  1.0000
  C   C7        1.0  0.6809723467573642  0.5671678513976062  0.3433834098312123  1.0000
  C   C8        1.0  0.5033407613797126  0.567392875754499  0.34529948082181505  1.0000
  N   N2        1.0  0.43061336247255677  0.5745816963858053  0.40661958736382076  1.0000
  H   H1        1.0  0.8374129202848711  0.5341491276550825  0.06176064586554131  1.0000
  H   H2        1.0  0.6834779568469284  0.5188578385486966  0.9313218143242389  1.0000
  H   H3        1.0  0.5279566750942026  0.5341522251539377  0.06176022011277161  1.0000
  H   H4        1.0  0.6802722992847631  0.5806651568517349  0.45851080975699304  1.0000
  C   C9        1.0  0.17762471617864778  0.15098701165581785  0.407405569147574  1.0000
  C   C10       1.0  0.15630844942588373  0.23396561192558746  0.2784610466358346  1.0000
  C   C11       1.0  0.14400662597542804  0.16858398664558785  0.14869842512363318  1.0000
  C   C12       1.0  0.1530781197267479  0.018843881750310265  0.1469404433022532  1.0000
  C   C13       1.0  0.17262232566350474  0.934541317068529  0.2741136453841618  1.0000
  C   C14       1.0  0.18356001391495447  0.9981650620694525  0.40584621137886595  1.0000
  N   N3        1.0  0.12329293105039785  0.254658456913742  0.01833672741949477  1.0000
  H   H5        1.0  0.28404411632686166  0.23145534586614636  0.7229724744517382  1.0000
  H   H6        1.0  0.1514471631965375  0.3505568985831289  0.27790716782645  1.0000
  H   H7        1.0  0.14406978601730125  0.9671010345391984  0.0471011977376774  1.0000
  H   H8        1.0  0.17690300978571938  0.8183667317272432  0.26998407177214534  1.0000
  H   H9        1.0  0.251312184226268  0.701648485186943  0.6205434399824921  1.0000
  H   H10       1.0  0.11664527763824939  0.36673223368703756  0.018289895714497684  1.0000
  H   H11       1.0  0.11435912097452518  0.20693888872396224  0.9208687827566857  1.0000
  C   C15       1.0  0.18350514361264625  0.5734919247467016  0.9831982461596698  1.0000
  C   C16       1.0  0.20976774967419146  0.7009730629716806  0.04670729324812983  1.0000
  C   C17       1.0  0.22702464955748422  0.8298119372883631  0.9614777451782582  1.0000
  C   C18       1.0  0.21813060055528727  0.8327743926424394  0.8115317742751507  1.0000
  C   C19       1.0  0.19374378747027501  0.7069021743743225  0.7464013624561816  1.0000
  C   C20       1.0  0.17767959860968888  0.5756600895921595  0.8300535333578378  1.0000
  C   C21       1.0  0.2527935598428761  0.9596659743682553  0.02834778591081788  1.0000
  C   C22       1.0  0.2743696772337838  0.06838191811321614  0.08435935801374206  1.0000
  C   C23       1.0  0.2996342430164669  0.19568350018317426  0.1499544996887483  1.0000
  C   C24       1.0  0.32120619256119554  0.304378658005775  0.20596345894397405  1.0000
  H   H12       1.0  0.1862603141642798  0.3345768134715996  0.2821744691924518  1.0000
  H   H13       1.0  0.2146353937618135  0.7010460991814971  0.16332255014443553  1.0000
  H   H14       1.0  0.23099209784147656  0.9322249671890698  0.7446420409796155  1.0000
  H   H15       1.0  0.18967245771176855  0.7114185982756307  0.629561373182793  1.0000
  H   H16       1.0  0.18728915853892247  0.2209091272052692  0.7542076944356706  1.0000
  H   H17       1.0  0.340148127173041  0.3998219185297618  0.25514422645294466  1.0000
  Zn  Zn1       1.0  0.07486613911461193  0.5745776428549021  0.4066279843812411  1.0000
  Zn  Zn2       1.0  0.2863093377523518  0.57457369749243  0.40662310390819456  1.0000
  C   C25       1.0  0.17873831614293215  0.5695037627007502  0.6699903039504014  1.0000
  C   C26       1.0  0.1824394814548027  0.5796493980153987  0.14326092245950317  1.0000
  C   C27       1.0  0.1824726646478419  0.8380156352392442  0.40039503042558877  1.0000
  C   C28       1.0  0.17870504812854993  0.3111357926138707  0.41285627605051334  1.0000
  O   O1        1.0  0.26232338334838423  0.5817081119898118  0.19697757828578902  1.0000
  O   O2        1.0  0.25933490478428145  0.5674409650262191  0.6162695308859317  1.0000
  O   O3        1.0  0.26234934642041985  0.7842677017559803  0.39856943734753814  1.0000
  O   O4        1.0  0.25930887037701766  0.36488138530344294  0.41467756369336306  1.0000
  O   O5        1.0  0.10186653433482219  0.784269955046786  0.3985735245901505  1.0000
  O   O6        1.0  0.0988521053649032  0.5674449511829567  0.6162735380564249  1.0000
  O   O7        1.0  0.10184059556654113  0.5817120434412921  0.19697985195132484  1.0000
  O   O8        1.0  0.09882608177527952  0.364885306714428  0.4146799454837964  1.0000
