data_image0
_chemical_formula_structural       NC8NC6H8C6SCH6C6NCH6Zn2C4O8
_chemical_formula_sum              "N3 C32 H20 S1 Zn2 O8"
_cell_length_a       17.457602349358154
_cell_length_b       10.302809429070853
_cell_length_c       9.273390368590327
_cell_angle_alpha    86.16778919332907
_cell_angle_beta     92.8511133753594
_cell_angle_gamma    91.68806441137123

_space_group_name_H-M_alt    "P 1"
_space_group_IT_number       1

loop_
  _space_group_symop_operation_xyz
  'x, y, z'

loop_
  _atom_site_type_symbol
  _atom_site_label
  _atom_site_symmetry_multiplicity
  _atom_site_fract_x
  _atom_site_fract_y
  _atom_site_fract_z
  _atom_site_occupancy
  N   N1        1.0  0.7225529332791261  0.4378113932020728  0.4756969241280704  1.0000
  C   C1        1.0  0.661475992605587  0.3917877318422895  0.46391560413365823  1.0000
  C   C2        1.0  0.5854936944847576  0.33454011096294356  0.44927023172129726  1.0000
  C   C3        1.0  0.5269580815043894  0.3754842005728695  0.5323916253348826  1.0000
  C   C4        1.0  0.4524138087301746  0.3203607071526109  0.518428155703933  1.0000
  C   C5        1.0  0.39028688709226367  0.3635941666148712  0.6064568640595458  1.0000
  C   C6        1.0  0.3157454204910085  0.38146523265584387  0.5445705538829042  1.0000
  C   C7        1.0  0.2572097946153825  0.42222659895228065  0.6278117544424652  1.0000
  C   C8        1.0  0.1812303791801217  0.4406798256480713  0.563466727006406  1.0000
  N   N2        1.0  0.1201558456637706  0.4555098437873959  0.5117334925811412  1.0000
  C   C9        1.0  0.27272342521996723  0.44536536078620353  0.7735036176724052  1.0000
  C   C10       1.0  0.34648015165627827  0.427887273569318  0.8358200839621777  1.0000
  C   C11       1.0  0.4050041299334224  0.3873107622435152  0.7530868622128062  1.0000
  C   C12       1.0  0.4376939283861378  0.22360071113400903  0.41975303913493067  1.0000
  C   C13       1.0  0.496217785915545  0.18293945934012681  0.33707556892956025  1.0000
  C   C14       1.0  0.5699772417586827  0.23818112843098715  0.35164937249529415  1.0000
  H   H1        1.0  0.5392959059013076  0.4513622399930668  0.6063383406273717  1.0000
  H   H2        1.0  0.3034099309254572  0.36541713750564186  0.4313438506132259  1.0000
  H   H3        1.0  0.2278569669103246  0.4768628199194741  0.838799589183408  1.0000
  H   H4        1.0  0.35830196490002314  0.44548858793996415  0.9486325427893902  1.0000
  H   H5        1.0  0.4614854471497969  0.37281275444146084  0.8042557758785032  1.0000
  H   H6        1.0  0.38121026906928746  0.17816615262544275  0.40793163658638  1.0000
  H   H7        1.0  0.48439388295449537  0.1081648229455543  0.2617989573856001  1.0000
  H   H8        1.0  0.6148436963822914  0.205819662779799  0.28692064722044813  1.0000
  C   C15       1.0  0.9213580724676933  0.06540740865872108  0.49372180408436533  1.0000
  C   C16       1.0  0.965627049190988  0.07382889338426857  0.37091390622776577  1.0000
  C   C17       1.0  0.9874433121524564  0.9610291884928449  0.3096262516984929  1.0000
  C   C18       1.0  0.9656269524600687  0.8386777304169751  0.3709138200024824  1.0000
  C   C19       1.0  0.921358041888866  0.8279042685942769  0.4937217937465529  1.0000
  C   C20       1.0  0.899420029786187  0.9419048202732401  0.5544964840099547  1.0000
  S   S1        1.0  0.044144994328165765  0.9732874021790698  0.15290224067553826  1.0000
  C   C21       1.0  0.9610158591841637  0.9767472715761586  0.02642304487220004  1.0000
  H   H9        1.0  0.9832102110289258  0.16774068777352635  0.32213260474285965  1.0000
  H   H10       1.0  0.9832100417359636  0.7523902856754633  0.3221324770849787  1.0000
  H   H11       1.0  0.8652608816640603  0.9345022271686931  0.6492077398702167  1.0000
  H   H12       1.0  0.9258070648437724  0.8859087046701064  0.04245092376892056  1.0000
  H   H13       1.0  0.9258077833767472  0.06214369330806277  0.04245046496584481  1.0000
  H   H14       1.0  0.9808353465796389  0.9844812056134641  0.9142978212599816  1.0000
  C   C22       1.0  0.9213936144767042  0.44260882186683215  0.07047922388132809  1.0000
  C   C23       1.0  0.9918578167800534  0.4431657571299476  0.1504682050322177  1.0000
  C   C24       1.0  0.0610929641013247  0.45573692262208554  0.08132851611004921  1.0000
  C   C25       1.0  0.06162301072064436  0.4681811761805146  0.9297485669544349  1.0000
  C   C26       1.0  0.9916264357051536  0.4654555607021717  0.8489923672227238  1.0000
  C   C27       1.0  0.9213225132975256  0.45070286625333106  0.9169643134527042  1.0000
  N   N3        1.0  0.13215486040305402  0.4823049189143742  0.8553529209072471  1.0000
  C   C28       1.0  0.20790437009741303  0.4858297594204061  0.9292066455196246  1.0000
  H   H15       1.0  0.8002991774372187  0.374854603789128  0.3453438783998777  1.0000
  H   H16       1.0  0.11395317890603018  0.4568952266343216  0.14724048528587863  1.0000
  H   H17       1.0  0.7425269604636683  0.3418806252622695  0.8052681738974106  1.0000
  H   H18       1.0  0.12966555462108498  0.490798447606726  0.7422514694944646  1.0000
  H   H19       1.0  0.21288350780057777  0.5693352009297741  0.9991264548902143  1.0000
  H   H20       1.0  0.21726269408026577  0.39344236647148256  0.9956087806352594  1.0000
  Zn  Zn1       1.0  0.8372925444309752  0.44291538165794186  0.4861046211383277  1.0000
  Zn  Zn2       1.0  0.005416219271091374  0.45039532356667045  0.5013375955319769  1.0000
  C   C29       1.0  0.9213342256617146  0.4440007101605458  0.7569603572776724  1.0000
  C   C30       1.0  0.9213763739336919  0.44931171622075583  0.23048216719814602  1.0000
  C   C31       1.0  0.92135457727397  0.683721025963512  0.48797799859401175  1.0000
  C   C32       1.0  0.9213559649461937  0.2095898387701309  0.4994645975248957  1.0000
  O   O1        1.0  0.9851726462681547  0.4543942037444661  0.28996145101575244  1.0000
  O   O2        1.0  0.9851399324487722  0.4445943420785261  0.7090421336642223  1.0000
  O   O3        1.0  0.9851555064248715  0.6381715048308871  0.49183689800269875  1.0000
  O   O4        1.0  0.9851570149319124  0.260817046693796  0.5071665734130583  1.0000
  O   O5        1.0  0.8575516913977957  0.6324936559796204  0.4802756380513988  1.0000
  O   O6        1.0  0.8575361174245806  0.43891805232372166  0.6974807968639858  1.0000
  O   O7        1.0  0.8575688314405793  0.4487178521804049  0.2783983813804169  1.0000
  O   O8        1.0  0.8575532000921213  0.25514068687684777  0.49560361183609286  1.0000
