data_image0
_chemical_formula_structural       NC10NC5H10C12ClH9C13F3H9Zn2C4O8
_chemical_formula_sum              "N2 C44 H28 Cl1 F3 Zn2 O8"
_cell_length_a       19.4436361288709
_cell_length_b       10.299768534541528
_cell_length_c       10.298532869026799
_cell_angle_alpha    85.58012551441328
_cell_angle_beta     89.71035499971406
_cell_angle_gamma    89.43641405984484

_space_group_name_H-M_alt    "P 1"
_space_group_IT_number       1

loop_
  _space_group_symop_operation_xyz
  'x, y, z'

loop_
  _atom_site_type_symbol
  _atom_site_label
  _atom_site_symmetry_multiplicity
  _atom_site_fract_x
  _atom_site_fract_y
  _atom_site_fract_z
  _atom_site_occupancy
  N   N1        1.0  0.6478083006140881  0.4088438654420665  0.5620505295290499  1.0000
  C   C1        1.0  0.5889756212361436  0.41874749029760433  0.5764360737825631  1.0000
  C   C2        1.0  0.5156504039401837  0.43109864514654683  0.5944303523472265  1.0000
  C   C3        1.0  0.473450764957999  0.3990898183163136  0.49974785472675115  1.0000
  C   C4        1.0  0.3975484152055376  0.4095286297060907  0.505076835743917  1.0000
  C   C5        1.0  0.357816745475933  0.3847952436940851  0.6121562871770572  1.0000
  C   C6        1.0  0.2816954313766539  0.38871009044283467  0.5991961022539353  1.0000
  C   C7        1.0  0.24115230929503922  0.4463827591774711  0.6929766979253646  1.0000
  C   C8        1.0  0.16948836296909692  0.4500190629980254  0.6824321629865264  1.0000
  C   C9        1.0  0.1373727486740612  0.3955867311488801  0.5783935621127179  1.0000
  C   C10       1.0  0.0635795508801826  0.39928425675420204  0.5676937361996051  1.0000
  N   N2        1.0  0.004254824967571699  0.4022568733377536  0.559091785553774  1.0000
  C   C11       1.0  0.17719090437699836  0.3372070344506186  0.48499619706516284  1.0000
  C   C12       1.0  0.24887124335008223  0.3335164744847927  0.4952889327206378  1.0000
  C   C13       1.0  0.38595710223302393  0.3443524010432073  0.7432590267403028  1.0000
  C   C14       1.0  0.44463296449387063  0.3874797323895049  0.7905071952400042  1.0000
  C   C15       1.0  0.4888485072849865  0.48532645395954266  0.7161387365178571  1.0000
  H   H1        1.0  0.4955351603187724  0.36996137077099545  0.40943273608523767  1.0000
  H   H2        1.0  0.3728436050395517  0.43201066744662264  0.41191242615448354  1.0000
  H   H3        1.0  0.2650386993528511  0.48968350521912396  0.7738332769073228  1.0000
  H   H4        1.0  0.13915896168589945  0.49534245930375925  0.7553607661582118  1.0000
  H   H5        1.0  0.152832700470145  0.29410198638538265  0.40447413598335324  1.0000
  H   H6        1.0  0.2785347323294344  0.2859498196187986  0.42305660885506824  1.0000
  H   H7        1.0  0.3549879663755118  0.2801448921933214  0.8075077907671685  1.0000
  H   H8        1.0  0.45978787724720255  0.3534259574876448  0.8884475042641056  1.0000
  H   H9        1.0  0.45875179154014023  0.5760358088369346  0.6908892217954674  1.0000
  H   H10       1.0  0.5321446795607023  0.5109202767144778  0.7792297658835807  1.0000
  C   C16       1.0  0.825969982198002  0.024186116580239503  0.5605695707713358  1.0000
  C   C17       1.0  0.8304928448138603  0.03362579635361574  0.4240532004182247  1.0000
  C   C18       1.0  0.8328507371569102  0.9212683703467327  0.3548861103962586  1.0000
  C   C19       1.0  0.8306242069356735  0.7983356562009128  0.4240676011203972  1.0000
  C   C20       1.0  0.8260997263087301  0.7869044772708959  0.5605839228496781  1.0000
  C   C21       1.0  0.823798457794322  0.9003861064521494  0.6280704111415124  1.0000
  C   C22       1.0  0.8376364632499287  0.9323084155259467  0.21046316353275388  1.0000
  C   C23       1.0  0.7985044126485008  0.02654848206393768  0.13631877481395405  1.0000
  C   C24       1.0  0.8030701559744547  0.036742762328169754  0.0003912695748211602  1.0000
  C   C25       1.0  0.8467014434346154  0.953219813731382  0.9369167245144842  1.0000
  C   C26       1.0  0.885822144990348  0.8592917314039545  0.009549877268357095  1.0000
  C   C27       1.0  0.8813785429803045  0.8487029473310829  0.14549101299359202  1.0000
  Cl  Cl1       1.0  0.8523532117197593  0.9662575120553987  0.7663724441704427  1.0000
  H   H11       1.0  0.8242112586451841  0.34804353534536564  0.6125860676437098  1.0000
  H   H12       1.0  0.8331418255509706  0.12857281447752889  0.3712947967503717  1.0000
  H   H13       1.0  0.8314782661830902  0.7114696218354882  0.3711105255084137  1.0000
  H   H14       1.0  0.8203085809263474  0.8923356521978248  0.7333865124165673  1.0000
  H   H15       1.0  0.8244030725397811  0.45509441259203565  0.6126077060568371  1.0000
  H   H16       1.0  0.7637314990337094  0.09118152723961193  0.18335426724635528  1.0000
  H   H17       1.0  0.7725299777164768  0.10940360172579111  0.9445289390826841  1.0000
  H   H18       1.0  0.9198279307013889  0.7946257219708702  0.9608311518649786  1.0000
  H   H19       1.0  0.912791411392467  0.7763188253570937  0.19985168610207094  1.0000
  C   C28       1.0  0.8260150620987252  0.40542374000834397  0.1791794489262628  1.0000
  C   C29       1.0  0.8949746241898692  0.363258428995503  0.18081932914479903  1.0000
  C   C30       1.0  0.929916971059572  0.3420116150061998  0.06447941558472392  1.0000
  C   C31       1.0  0.8950152716943857  0.363513292138221  0.9455183204138362  1.0000
  C   C32       1.0  0.8260546358777018  0.40566691827356055  0.9419740996463144  1.0000
  C   C33       1.0  0.7919949244754652  0.42634777606140756  0.0592983730041834  1.0000
  C   C34       1.0  0.0028236518006354884  0.29744501330290224  0.06714759779064017  1.0000
  C   C35       1.0  0.05032392336442994  0.35116715323029396  0.9752127651268911  1.0000
  C   C36       1.0  0.11893890157664244  0.3093261255428472  0.9777453704086176  1.0000
  C   C37       1.0  0.14130196919032545  0.211517734149816  0.071029275799948  1.0000
  C   C38       1.0  0.09420013335247601  0.15960725870619097  0.1645381650653757  1.0000
  C   C39       1.0  0.02558963789343949  0.20148125820371418  0.16211644422577542  1.0000
  C   C40       1.0  0.21586526867194  0.16985368042976634  0.07669307035145145  1.0000
  F   F1        1.0  0.25115114351540657  0.2485154045003941  0.15588647019472845  1.0000
  F   F2        1.0  0.2451581430755414  0.18048541912988966  0.9535929413893798  1.0000
  F   F3        1.0  0.2222130315673998  0.041616513554314505  0.1265238712625445  1.0000
  H   H20       1.0  0.6958383684501351  0.4859165894533961  0.3833415410620824  1.0000
  H   H21       1.0  0.9219066122060303  0.34860133209962774  0.27267449638309915  1.0000
  H   H22       1.0  0.9214266271987576  0.34564386881507264  0.8556680613225285  1.0000
  H   H23       1.0  0.7388462010974306  0.4588401700433831  0.0573013625176988  1.0000
  H   H24       1.0  0.6956178871911454  0.4845810533691841  0.7280090725525974  1.0000
  H   H25       1.0  0.03466369098150813  0.4272200639864356  0.9026150038254676  1.0000
  H   H26       1.0  0.1546044838313121  0.35389288790204443  0.9069649612295474  1.0000
  H   H27       1.0  0.11041072926641271  0.0864356847610317  0.2395742948099191  1.0000
  H   H28       1.0  0.9901719424077408  0.15786393241618968  0.2339144921932097  1.0000
  Zn  Zn1       1.0  0.750671068940058  0.4069395328759724  0.5612042125634218  1.0000
  Zn  Zn2       1.0  0.9013920469066671  0.4041506017572006  0.5599487842945718  1.0000
  C   C41       1.0  0.8260447429699413  0.4004473494683751  0.7977894845679706  1.0000
  C   C42       1.0  0.8260200190305134  0.4106443933496904  0.3233636260876622  1.0000
  C   C43       1.0  0.8260713874276135  0.6427329227054202  0.5554057192854012  1.0000
  C   C44       1.0  0.8259933228804971  0.1683572608031223  0.5657474610129554  1.0000
  O   O1        1.0  0.8832195073077327  0.41133244180608863  0.37127672448949234  1.0000
  O   O2        1.0  0.8832389893372968  0.3976415869947483  0.7489231712663418  1.0000
  O   O3        1.0  0.8832597340898528  0.5932902662009703  0.5531965723433816  1.0000
  O   O4        1.0  0.8831987111208442  0.21568377281060425  0.5670032264590996  1.0000
  O   O5        1.0  0.7688643532922079  0.5954063627757056  0.5541497708204781  1.0000
  O   O6        1.0  0.7688436087983234  0.3997592438321435  0.7498763005222993  1.0000
  O   O7        1.0  0.768824126725787  0.41345005288946424  0.37222829222722886  1.0000
  O   O8        1.0  0.7688033305395581  0.21780137463637916  0.5679548915717738  1.0000
