data_image0
_chemical_formula_structural       NC8NH4C6NH5C6BrH3Zn2C4O8
_chemical_formula_sum              "N3 C24 H12 Br1 Zn2 O8"
_cell_length_a       14.927258825633057
_cell_length_b       9.274771166103582
_cell_length_c       10.302972455390005
_cell_angle_alpha    85.45577943417274
_cell_angle_beta     89.99987566927602
_cell_angle_gamma    90.59705077502286

_space_group_name_H-M_alt    "P 1"
_space_group_IT_number       1

loop_
  _space_group_symop_operation_xyz
  'x, y, z'

loop_
  _atom_site_type_symbol
  _atom_site_label
  _atom_site_symmetry_multiplicity
  _atom_site_fract_x
  _atom_site_fract_y
  _atom_site_fract_z
  _atom_site_occupancy
  N   N1        1.0  0.8537916845168103  0.5786601512954612  0.5653644525319137  1.0000
  C   C1        1.0  0.7762652599979437  0.5786601248371666  0.565364461268976  1.0000
  C   C2        1.0  0.6798326182502247  0.5786601245473486  0.5653645108799517  1.0000
  C   C3        1.0  0.632208491949193  0.4903231081545669  0.48468460615202824  1.0000
  C   C4        1.0  0.5384971798115387  0.49032301830024805  0.484684580662881  1.0000
  C   C5        1.0  0.4920166211850951  0.5786601776038337  0.5653644316971569  1.0000
  C   C6        1.0  0.5396407475567712  0.6669972043139376  0.6460442390724073  1.0000
  C   C7        1.0  0.6333521266859424  0.6669972941652903  0.6460442645668948  1.0000
  C   C8        1.0  0.3955839788094123  0.5786600799592378  0.5653643823768373  1.0000
  N   N2        1.0  0.318057554989154  0.5786601611730438  0.5653643926925214  1.0000
  H   H1        1.0  0.6674597202912128  0.4215917278702817  0.42191112968122474  1.0000
  H   H2        1.0  0.5023560642549305  0.421591704190204  0.42191121729350106  1.0000
  H   H3        1.0  0.5043895192147514  0.7357285845982233  0.7088177155432098  1.0000
  H   H4        1.0  0.6694931751803892  0.7357285979609786  0.7088177252836076  1.0000
  C   C9        1.0  0.0831785905567861  0.15506358187042937  0.5660720753761666  1.0000
  C   C10       1.0  0.06256423354250383  0.2383723297443041  0.44997398313309417  1.0000
  C   C11       1.0  0.050313993252875555  0.1733229398303877  0.33313929827155053  1.0000
  C   C12       1.0  0.05872507483574707  0.023587328998961415  0.3315564611066779  1.0000
  C   C13       1.0  0.07768287205440982  0.9389591530884156  0.4460597050936316  1.0000
  C   C14       1.0  0.08867918061444846  0.0022456201790024308  0.5646680734287555  1.0000
  N   N3        1.0  0.03025003488319267  0.2597311855867257  0.21576522067205722  1.0000
  H   H5        1.0  0.18399776473360152  0.23472390252032715  0.8501998215968284  1.0000
  H   H6        1.0  0.04972374784872535  0.9721001030392732  0.2416639585593776  1.0000
  H   H7        1.0  0.15295403302616006  0.7051793114817234  0.7579755415800773  1.0000
  H   H8        1.0  0.02407780905055756  0.3718050872646028  0.21572305385356283  1.0000
  H   H9        1.0  0.021333043513529278  0.21226116744437462  0.12800777202445457  1.0000
  C   C15       1.0  0.0859288508983056  0.5786545717659457  0.18412750951839849  1.0000
  C   C16       1.0  0.11109972297991355  0.43270623564324023  0.19332044476698917  1.0000
  C   C17       1.0  0.12358588351822042  0.3603079809444725  0.08094280177530977  1.0000
  C   C18       1.0  0.11109987360267869  0.43270617934185673  0.9582380542589624  1.0000
  C   C19       1.0  0.08592889330876272  0.5786545757135004  0.9466125915863496  1.0000
  C   C20       1.0  0.07346496185973672  0.6509239239829694  0.06021572608397174  1.0000
  Br  Br1       1.0  0.1578224215413888  0.1617930172337276  0.09510117043673483  1.0000
  H   H10       1.0  0.12111965292965186  0.3746068737783075  0.2874634571785435  1.0000
  H   H11       1.0  0.12112000722602743  0.3746069221019046  0.872382554469095  1.0000
  H   H12       1.0  0.05405217392689776  0.7634848773897489  0.052187725209290374  1.0000
  Zn  Zn1       1.0  0.98776876951283  0.5786562812281597  0.5653719464693321  1.0000
  Zn  Zn2       1.0  0.18408040620014066  0.5786521892226049  0.5653675790633208  1.0000
  C   C21       1.0  0.08588958527154666  0.5729080467667063  0.8024961240811113  1.0000
  C   C22       1.0  0.08596174597566075  0.584402243697504  0.3282435258116947  1.0000
  C   C23       1.0  0.08763482959604714  0.8421101506101496  0.5597599803987712  1.0000
  C   C24       1.0  0.08421642341126567  0.31519840678610017  0.5709797415834184  1.0000
  O   O1        1.0  0.1604719880405443  0.5863233689196827  0.37660853041746883  1.0000
  O   O2        1.0  0.16037532604475246  0.5709827276032786  0.7541274327965388  1.0000
  O   O3        1.0  0.16178362862308182  0.7883668310030983  0.5581162769111689  1.0000
  O   O4        1.0  0.15906361854134296  0.36893927584015285  0.572619588944824  1.0000
  O   O5        1.0  0.012785490180110774  0.7883691946135791  0.5581199365824878  1.0000
  O   O6        1.0  0.011377198850158974  0.5709868242846867  0.7541310203731328  1.0000
  O   O7        1.0  0.011473860579044535  0.5863274153340492  0.3766105571940408  1.0000
  O   O8        1.0  0.010065491009198181  0.36894331193719654  0.5726217130740701  1.0000
