data_image0
_chemical_formula_structural       NC12NC2H8C6NH7C6SCH8Zn2C4O8
_chemical_formula_sum              "N3 C31 H23 S1 Zn2 O8"
_cell_length_a       19.240039667572717
_cell_length_b       9.274771166103584
_cell_length_c       10.302812801239591
_cell_angle_alpha    85.45577702643503
_cell_angle_beta     89.99986115562673
_cell_angle_gamma    90.59704977044065

_space_group_name_H-M_alt    "P 1"
_space_group_IT_number       1

loop_
  _space_group_symop_operation_xyz
  'x, y, z'

loop_
  _atom_site_type_symbol
  _atom_site_label
  _atom_site_symmetry_multiplicity
  _atom_site_fract_x
  _atom_site_fract_y
  _atom_site_fract_z
  _atom_site_occupancy
  N   N1        1.0  0.6624088492590651  0.5786602026889891  0.5653421613334627  1.0000
  C   C1        1.0  0.6022604809104559  0.5786602959699654  0.565342079271083  1.0000
  C   C2        1.0  0.5274424444238565  0.5786604262436175  0.5653419417984547  1.0000
  C   C3        1.0  0.49060891642979576  0.5070560721298645  0.6688373815367583  1.0000
  C   C4        1.0  0.4179375495665719  0.5069329125458282  0.6689240961582412  1.0000
  C   C5        1.0  0.3811102100032858  0.5786605290605418  0.5653417140220209  1.0000
  C   C6        1.0  0.4186585498702157  0.6503883532636976  0.4617595260280701  1.0000
  C   C7        1.0  0.4913286182566137  0.650264932103061  0.4618463635355734  1.0000
  C   C8        1.0  0.3039051191249079  0.5786604416905946  0.5653416187783218  1.0000
  C   C9        1.0  0.2660853311223678  0.4528583325891589  0.6074029380489474  1.0000
  C   C10       1.0  0.19341523929599821  0.45297707040336377  0.6073114491198444  1.0000
  C   C11       1.0  0.157572831480927  0.5786602982143052  0.5653416799018065  1.0000
  C   C12       1.0  0.0827547936910272  0.5786601718744482  0.5653419286886161  1.0000
  N   N2        1.0  0.0226064766108778  0.5786601265283736  0.5653421371154748  1.0000
  C   C13       1.0  0.1946779349456094  0.7043436102495058  0.5233718576732843  1.0000
  C   C14       1.0  0.2673492287264334  0.7044625481304609  0.5232802058769015  1.0000
  H   H1        1.0  0.518045205556783  0.45161841612662007  0.7496429208553943  1.0000
  H   H2        1.0  0.3905701172657539  0.45238169740900736  0.7508433530014337  1.0000
  H   H3        1.0  0.3918394515339093  0.7049395984489152  0.37984021830385634  1.0000
  H   H4        1.0  0.519322100032936  0.7057024767390704  0.3810411001055154  1.0000
  H   H5        1.0  0.2926811338996431  0.35383081185200327  0.6387211319443051  1.0000
  H   H6        1.0  0.1652079403696533  0.35494828023392716  0.6396606646775447  1.0000
  H   H7        1.0  0.16745541028724503  0.802372373165064  0.49102265670556955  1.0000
  H   H8        1.0  0.294939905208183  0.8034901568116157  0.4919619670816922  1.0000
  C   C15       1.0  0.8403771785771079  0.15506362805162754  0.5660497804226676  1.0000
  C   C16       1.0  0.8243836775909047  0.2383723821093147  0.4499498900188837  1.0000
  C   C17       1.0  0.8148794218930151  0.17332299822670572  0.33311339504283205  1.0000
  C   C18       1.0  0.8214051046535485  0.02358738728339805  0.3315305328046252  1.0000
  C   C19       1.0  0.8361133747447405  0.9389592053049858  0.44603555033897013  1.0000
  C   C20       1.0  0.8446447755210403  0.0022456663052030563  0.5646457563606191  1.0000
  N   N3        1.0  0.7993129442344757  0.2597312502172824  0.2157374994699293  1.0000
  H   H9        1.0  0.9185970431592954  0.23472393243094847  0.8501819240628301  1.0000
  H   H10       1.0  0.8208792431549451  0.3549650906261266  0.4494511847677643  1.0000
  H   H11       1.0  0.8144214940667309  0.9721001659546223  0.24163663752961995  1.0000
  H   H12       1.0  0.8391763819623087  0.8227951896199456  0.4423173388838735  1.0000
  H   H13       1.0  0.8945119774282957  0.7051793466356293  0.7579562165913283  1.0000
  H   H14       1.0  0.7945242632326736  0.3718051520365493  0.2156953323940212  1.0000
  H   H15       1.0  0.7923947646460693  0.2122612365987766  0.1279786911818708  1.0000
  C   C21       1.0  0.842510992675094  0.5786546366981267  0.184099294368032  1.0000
  C   C22       1.0  0.8197961216935493  0.7225052001591019  0.17266361163591437  1.0000
  C   C23       1.0  0.8083136631626485  0.7938679418063019  0.049998344354516444  1.0000
  C   C24       1.0  0.8197960582723041  0.7225050487368705  0.9375124421976331  1.0000
  C   C25       1.0  0.8425109475441406  0.5786546269771269  0.9465961980136894  1.0000
  C   C26       1.0  0.8537359074997861  0.5074197096652826  0.07042840532375227  1.0000
  S   S1        1.0  0.7794353381938792  0.9777651117747356  0.036882246185867336  1.0000
  C   C27       1.0  0.6877585691931597  0.9273667563431691  0.040477924399806575  1.0000
  H   H16       1.0  0.8510452096349314  0.5244258397420091  0.5157232450024545  1.0000
  H   H17       1.0  0.8107728279503641  0.7796430544160831  0.25868796849448833  1.0000
  H   H18       1.0  0.8107726877524281  0.7796428466249523  0.8433376558567931  1.0000
  H   H19       1.0  0.8712442427137472  0.39645183126224093  0.07834285124021756  1.0000
  H   H20       1.0  0.8510439117351309  0.5244250908463064  0.6227076607297861  1.0000
  H   H21       1.0  0.6751107722183055  0.8631958090005624  0.956937956248794  1.0000
  H   H22       1.0  0.6751110772381541  0.8631972668056365  0.13317264586618216  1.0000
  H   H23       1.0  0.6560926747801075  0.026931280880465366  0.03337641476724573  1.0000
  Zn  Zn1       1.0  0.7663540935873268  0.5786563295973317  0.565349646787844  1.0000
  Zn  Zn2       1.0  0.9186611917808657  0.5786522331610564  0.5653452667140653  1.0000
  C   C28       1.0  0.842480459699838  0.5729080812414138  0.8024774934518211  1.0000
  C   C29       1.0  0.8425364980254675  0.5844023015303654  0.3282175444120297  1.0000
  C   C30       1.0  0.8438345231677644  0.8421101970016744  0.5597375873237709  1.0000
  C   C31       1.0  0.841182373855623  0.31519845270214164  0.5709575226305865  1.0000
  O   O1        1.0  0.9003447761626361  0.5863234226885123  0.37658329387775735  1.0000
  O   O2        1.0  0.900269739463519  0.5709827627792217  0.7541080476869888  1.0000
  O   O3        1.0  0.9013623836699887  0.7883668758019786  0.5580938536001134  1.0000
  O   O4        1.0  0.8992520800360565  0.3689393199860511  0.5725973906051136  1.0000
  O   O5        1.0  0.7857631533572065  0.7883692427753053  0.5580975228914586  1.0000
  O   O6        1.0  0.7846705178777246  0.5709868628234788  0.7541116448824909  1.0000
  O   O7        1.0  0.7847455543699385  0.5863274724658047  0.37658533024904584  1.0000
  O   O8        1.0  0.783652858188539  0.3689433594460163  0.5725995243305846  1.0000
