data_image0
_chemical_formula_structural       NC9NC5H8C9H8C6OCH7Zn2C4O8
_chemical_formula_sum              "N2 C34 H23 O9 Zn2"
_cell_length_a       17.807436237873137
_cell_length_b       9.275152443626249
_cell_length_c       9.273891588657152
_cell_angle_alpha    85.88202133130156
_cell_angle_beta     89.08663702953788
_cell_angle_gamma    88.96355956710403

_space_group_name_H-M_alt    "P 1"
_space_group_IT_number       1

loop_
  _space_group_symop_operation_xyz
  'x, y, z'

loop_
  _atom_site_type_symbol
  _atom_site_label
  _atom_site_symmetry_multiplicity
  _atom_site_fract_x
  _atom_site_fract_y
  _atom_site_fract_z
  _atom_site_occupancy
  N   N1        1.0  0.7200694073265731  0.5263835519666491  0.39309362236659906  1.0000
  C   C1        1.0  0.6593120470055424  0.48719398450985363  0.38099663750864954  1.0000
  C   C2        1.0  0.5837365686556503  0.43844647820095695  0.3659493016077777  1.0000
  C   C3        1.0  0.5655628140746839  0.3580729770100808  0.24968746183616397  1.0000
  C   C4        1.0  0.49218254351694096  0.3106182481087316  0.2349861956514838  1.0000
  C   C5        1.0  0.4359252145921998  0.3431174523101912  0.33651223680941156  1.0000
  C   C6        1.0  0.3579413113272281  0.2928137450460757  0.32097924057606075  1.0000
  C   C7        1.0  0.2961584869877203  0.3838660579950938  0.34944715349841493  1.0000
  C   C8        1.0  0.22263468632441089  0.3361859993320243  0.33476187105315414  1.0000
  C   C9        1.0  0.1598162824252264  0.4302306992139339  0.3636230890773644  1.0000
  N   N2        1.0  0.1093232422828288  0.5058361426586945  0.3868267250309865  1.0000
  C   C10       1.0  0.21030874401295482  0.19716688904294  0.2915815551923151  1.0000
  C   C11       1.0  0.2712341445348609  0.10609910805111088  0.2631043850399821  1.0000
  C   C12       1.0  0.34463685969886265  0.15333897667662  0.27756642235583273  1.0000
  C   C13       1.0  0.45479255522037454  0.4240421671179079  0.4530154545162138  1.0000
  C   C14       1.0  0.5282250830278492  0.47128388325989556  0.4675447128483195  1.0000
  H   H1        1.0  0.608054516029441  0.33237374332434566  0.17018180202517996  1.0000
  H   H2        1.0  0.47922076581962203  0.25016135273667583  0.14316385764431283  1.0000
  H   H3        1.0  0.3051315866388947  0.49239241864302463  0.3811142645777259  1.0000
  H   H4        1.0  0.15367924227623408  0.15926282711402373  0.279956221913211  1.0000
  H   H5        1.0  0.2615712845439902  0.9984712300167533  0.230101707252105  1.0000
  H   H6        1.0  0.3909554864842726  0.08013679897609483  0.2566833038667242  1.0000
  H   H7        1.0  0.4130104864613801  0.4491559753824206  0.533960002434333  1.0000
  H   H8        1.0  0.5417256215944067  0.533085607793253  0.5582061433007253  1.0000
  C   C15       1.0  0.9124800025038484  0.09260784697533819  0.39146741098593174  1.0000
  C   C16       1.0  0.8857349423645298  0.17565372645989583  0.2694462083670488  1.0000
  C   C17       1.0  0.8659782225269802  0.11012927569311269  0.1450198929549431  1.0000
  C   C18       1.0  0.8726578071411848  0.9603917558732931  0.1401498488812758  1.0000
  C   C19       1.0  0.8979370677438365  0.8757257628608354  0.2611597741023546  1.0000
  C   C20       1.0  0.9169197328483073  0.9396005547598462  0.388465336223782  1.0000
  C   C21       1.0  0.8526778312973403  0.8931308832939335  0.011290856537012893  1.0000
  C   C22       1.0  0.8359492987865556  0.8367821968424733  0.9033916289162086  1.0000
  C   C23       1.0  0.815652538120034  0.7684010127794096  0.7724748334766964  1.0000
  H   H9        1.0  0.019582994858387204  0.17120403136979023  0.6776022715492458  1.0000
  H   H10       1.0  0.881779691380638  0.29237590407877945  0.26905649872295556  1.0000
  H   H11       1.0  0.8461635162038098  0.17657236875436988  0.05198822097881805  1.0000
  H   H12       1.0  0.9011109374286513  0.7592119009572549  0.25708777601487154  1.0000
  H   H13       1.0  0.986612383064933  0.6423994939335674  0.5842293242948173  1.0000
  H   H14       1.0  0.8293448853470724  0.6510779571612887  0.7857199256736545  1.0000
  H   H15       1.0  0.7545762964306034  0.7840294710389253  0.7537258391802779  1.0000
  H   H16       1.0  0.8476387363353017  0.8182189581530847  0.678661816779373  1.0000
  C   C24       1.0  0.9159103036882738  0.5122197608930901  0.9666847874660096  1.0000
  C   C25       1.0  0.9777395680597423  0.5698865254839267  0.03405230101596456  1.0000
  C   C26       1.0  0.03536484808543938  0.6385471234535716  0.9530667910738027  1.0000
  C   C27       1.0  0.031367475866971084  0.6498915212997693  0.8016520240247211  1.0000
  C   C28       1.0  0.9711116188471591  0.5912682313053021  0.7329200026570537  1.0000
  C   C29       1.0  0.9134894084650642  0.5199885549037806  0.8132479733975191  1.0000
  O   O1        1.0  0.09513358715751519  0.6945465321805043  0.02710652966131333  1.0000
  C   C30       1.0  0.15738250960458952  0.7671798662954575  0.9587653694878174  1.0000
  H   H17       1.0  0.7367912105914591  0.43307354410707366  0.080892248554717  1.0000
  H   H18       1.0  0.07492335685082274  0.7026778419277466  0.7358381140595727  1.0000
  H   H19       1.0  0.9705445317682821  0.5987329314740577  0.6158222395115702  1.0000
  H   H20       1.0  0.7940078093393016  0.460925438078475  0.5399550494229595  1.0000
  H   H21       1.0  0.13773230863373653  0.8658365590496804  0.8943484861716402  1.0000
  H   H22       1.0  0.18832501879645935  0.6939523598926663  0.8881021835130865  1.0000
  H   H23       1.0  0.1960112587856466  0.7996217621739445  0.0428677363913883  1.0000
  Zn  Zn1       1.0  0.8323996105467221  0.5204502418650352  0.391293481040345  1.0000
  Zn  Zn2       1.0  0.9969929253581238  0.511757805790787  0.38863875800209624  1.0000
  C   C31       1.0  0.913915231419585  0.5127749595604323  0.653249812401899  1.0000
  C   C32       1.0  0.9154791109727292  0.5194348141239481  0.12668253267666363  1.0000
  C   C33       1.0  0.9160930839215778  0.7794483684362334  0.3832889575229079  1.0000
  C   C34       1.0  0.9133011930044967  0.2527596762374402  0.39664347145075785  1.0000
  O   O2        1.0  0.977796670964626  0.5185512260268499  0.17937180630892646  1.0000
  O   O3        1.0  0.9765201844232251  0.5070600980381417  0.598545254333873  1.0000
  O   O4        1.0  0.9782779815535207  0.7224023064736884  0.3805499622675068  1.0000
  O   O5        1.0  0.9760388180329194  0.30320902988222453  0.39736699116839747  1.0000
  O   O6        1.0  0.8533536617043359  0.7289990207414001  0.38256524877238296  1.0000
  O   O7        1.0  0.8515958738726899  0.5136585442843615  0.600560457841985  1.0000
  O   O8        1.0  0.8528723651563968  0.5251496061110617  0.18138527699472928  1.0000
  O   O9        1.0  0.8511145118585111  0.3098074006433168  0.39938056995943505  1.0000
