data_image0
_chemical_formula_structural       NC8NC6H8C12SCH12C13NH12Zn2C4O8
_chemical_formula_sum              "N3 C44 H32 S1 Zn2 O8"
_cell_length_a       17.457602349358154
_cell_length_b       10.299776766347527
_cell_length_c       10.299780419254978
_cell_angle_alpha    85.57449051580878
_cell_angle_beta     92.86230706440831
_cell_angle_gamma    91.66964631390691

_space_group_name_H-M_alt    "P 1"
_space_group_IT_number       1

loop_
  _space_group_symop_operation_xyz
  'x, y, z'

loop_
  _atom_site_type_symbol
  _atom_site_label
  _atom_site_symmetry_multiplicity
  _atom_site_fract_x
  _atom_site_fract_y
  _atom_site_fract_z
  _atom_site_occupancy
  N   N1        1.0  0.7223375595451129  0.45250276779972415  0.6265779157667255  1.0000
  C   C1        1.0  0.6612697926793217  0.40657638623995185  0.6159625538084292  1.0000
  C   C2        1.0  0.5852989052739175  0.3494496838674982  0.6027665850454855  1.0000
  C   C3        1.0  0.5267523970333706  0.389626626488105  0.677660741008043  1.0000
  C   C4        1.0  0.45221910637643503  0.3346182673338549  0.6650791874945399  1.0000
  C   C5        1.0  0.3900806705036138  0.37703925262393523  0.7443949386997506  1.0000
  C   C6        1.0  0.31553814307982964  0.3954952512104408  0.688634216418333  1.0000
  C   C7        1.0  0.2569916520963215  0.43548829595585414  0.7636363201619747  1.0000
  C   C8        1.0  0.1810111579447017  0.45454965791775187  0.7056602472241547  1.0000
  N   N2        1.0  0.11993575834359949  0.46986861342478053  0.6590476356008341  1.0000
  C   C9        1.0  0.2724954100435261  0.4572685867424766  0.8949076397683391  1.0000
  C   C10       1.0  0.34625310656706404  0.43920164853361254  0.9510559425526226  1.0000
  C   C11       1.0  0.4047878957675602  0.3993887518892585  0.8765115383689621  1.0000
  C   C12       1.0  0.4375212946083094  0.23875525528306762  0.576170626029817  1.0000
  C   C13       1.0  0.496055977037485  0.19885707167666553  0.5016764547899872  1.0000
  C   C14       1.0  0.5698044053751296  0.25397792162868393  0.5148079316145096  1.0000
  H   H1        1.0  0.5390730447277212  0.46483342852945003  0.7442884529290833  1.0000
  H   H2        1.0  0.3032099592312266  0.3805034638829307  0.5866146702326387  1.0000
  H   H3        1.0  0.2276205193320297  0.4881632242334481  0.9537407063028586  1.0000
  H   H4        1.0  0.3580673350488963  0.4557509786249172  0.05270225175343935  1.0000
  H   H5        1.0  0.4612700373276845  0.3844071886627057  0.9226156870290512  1.0000
  H   H6        1.0  0.3810466988587196  0.19341851987544034  0.5655191509556892  1.0000
  H   H7        1.0  0.4842490915235529  0.12476644731789353  0.4338504839967221  1.0000
  H   H8        1.0  0.6146794349477821  0.22221371678004195  0.45648596209940595  1.0000
  C   C15       1.0  0.9212126630035333  0.07982385685153347  0.6428173885744025  1.0000
  C   C16       1.0  0.9258040854073812  0.06849223276675316  0.7797001500502182  1.0000
  C   C17       1.0  0.9280567306602857  0.9456085626173844  0.8490590610092549  1.0000
  C   C18       1.0  0.9256573853034558  0.8331980522857176  0.7797033594885503  1.0000
  C   C19       1.0  0.9210680119882745  0.8425378181949392  0.6428200160021862  1.0000
  C   C20       1.0  0.9188709094042382  0.9662908377173569  0.5751432300188088  1.0000
  C   C21       1.0  0.9329054828201653  0.9346845197713087  0.9938648875954659  1.0000
  C   C22       1.0  0.8889874127057783  0.8393219477647998  0.06431771996063129  1.0000
  C   C23       1.0  0.8935736975114834  0.8292766065678864  0.20059549979730606  1.0000
  C   C24       1.0  0.9418865227183568  0.9143072954201128  0.26821139776944736  1.0000
  C   C25       1.0  0.9859874865770583  0.009104366615103611  0.19914650493675612  1.0000
  C   C26       1.0  0.9815136991138187  0.01950450784014723  0.06286749761825183  1.0000
  S   S1        1.0  0.9478559586792324  0.9009608980750683  0.4430814475194627  1.0000
  C   C27       1.0  0.8707604178751774  0.013659669073273532  0.45631331016671134  1.0000
  H   H9        1.0  0.9194933052284203  0.4115965202516094  0.5906613076804339  1.0000
  H   H10       1.0  0.9265810005817707  0.15536873015274552  0.8327195654325747  1.0000
  H   H11       1.0  0.9284347065627847  0.7383170708137685  0.8326900097240119  1.0000
  H   H12       1.0  0.9153293467858978  0.9742642385060785  0.46954404261019556  1.0000
  H   H13       1.0  0.9192809496161731  0.518641251333122  0.590663071591372  1.0000
  H   H14       1.0  0.850373683139944  0.7736611281164779  0.014052316552188533  1.0000
  H   H15       1.0  0.859265615218892  0.7557279501660275  0.25351275309010846  1.0000
  H   H16       1.0  0.02378447949975505  0.07478573426357182  0.2509340734615161  1.0000
  H   H17       1.0  0.016789874931443682  0.0927268033981925  0.011442283022212618  1.0000
  H   H18       1.0  0.8861252883609776  0.11064985489212642  0.4086925998900842  1.0000
  H   H19       1.0  0.8618562066284406  0.02397300435172189  0.5608607311814757  1.0000
  H   H20       1.0  0.8167814290696683  0.9757603940760777  0.40978492552377066  1.0000
  C   C28       1.0  0.9211925818145784  0.4610982495386308  0.26146880182613375  1.0000
  C   C29       1.0  0.9767194068111951  0.5625516499234975  0.25734368349790726  1.0000
  C   C30       1.0  0.004796116143787275  0.6140515909676174  0.13810470275015385  1.0000
  C   C31       1.0  0.9766140060260586  0.5627192772870488  0.022034903368948422  1.0000
  C   C32       1.0  0.9210880929221436  0.46126339741033484  0.024168542766539684  1.0000
  C   C33       1.0  0.89368619974216  0.4110243415203605  0.14436507761334716  1.0000
  C   C34       1.0  0.06354131646574257  0.7213781149874023  0.13483246953035066  1.0000
  C   C35       1.0  0.05833528025718305  0.8257273468172804  0.03858300025961192  1.0000
  C   C36       1.0  0.11365248798983445  0.9266590549985816  0.035590805376897405  1.0000
  C   C37       1.0  0.17480836883056428  0.925627089518813  0.12925948121685193  1.0000
  C   C38       1.0  0.18074991358269954  0.821031147734669  0.22451223774846252  1.0000
  C   C39       1.0  0.12544857328611592  0.7200754338588908  0.2276784986437057  1.0000
  C   C40       1.0  0.23537103962147943  0.03248899600566846  0.12375184216123182  1.0000
  N   N3        1.0  0.2941896639645006  0.002406405766444577  0.03567674808303956  1.0000
  H   H21       1.0  0.9975081579392943  0.6029650990839857  0.3469120165455227  1.0000
  H   H22       1.0  0.9988472536160565  0.6008449716685413  0.9300437784497526  1.0000
  H   H23       1.0  0.8508500384454799  0.3327566274607463  0.14677887536673673  1.0000
  H   H24       1.0  0.8999156131949363  0.4226264149039012  0.6975250589616304  1.0000
  H   H25       1.0  0.011019162620287569  0.8300070803374942  0.9664173616871321  1.0000
  H   H26       1.0  0.10869618119848723  0.005841873147471409  0.9603482902781655  1.0000
  H   H27       1.0  0.2283507873835038  0.8174161041132  0.29617461878045925  1.0000
  H   H28       1.0  0.13174220018634064  0.6399338779048405  0.30156431873104356  1.0000
  H   H29       1.0  0.2088442153466384  0.12635592667622353  0.08830680059670404  1.0000
  H   H30       1.0  0.261826074373231  0.04495469166039045  0.22276918127184756  1.0000
  H   H31       1.0  0.3328893006897179  0.08178735904648393  0.02889909592180029  1.0000
  H   H32       1.0  0.3249836923706122  0.9234488403395567  0.07896248343250312  1.0000
  Zn  Zn1       1.0  0.8370758107899618  0.4575106947089971  0.6359554736088366  1.0000
  Zn  Zn2       1.0  0.005197493411615454  0.46485004119199586  0.6496807097193862  1.0000
  C   C41       1.0  0.9211070919868642  0.4560585496000575  0.8800018314913245  1.0000
  C   C42       1.0  0.921168047769976  0.46630390506374125  0.40563462918173415  1.0000
  C   C43       1.0  0.921092093824461  0.6983673559862105  0.6376442636459594  1.0000
  C   C44       1.0  0.921182988850675  0.22399353591398952  0.6479922615734861  1.0000
  O   O1        1.0  0.984961117376584  0.4708305487148712  0.4592266533683178  1.0000
  O   O2        1.0  0.9849144896562194  0.457101320322969  0.8368265701015749  1.0000
  O   O3        1.0  0.9849015181932919  0.6527687086389176  0.641121049134864  1.0000
  O   O4        1.0  0.98497403148255  0.275163167163466  0.6549320722817575  1.0000
  O   O5        1.0  0.8572992153473495  0.6471975662343801  0.6307041063558851  1.0000
  O   O6        1.0  0.8573121865203024  0.45153173817888365  0.8264095580856295  1.0000
  O   O7        1.0  0.8573588145142268  0.46526092097972693  0.4488080800335954  1.0000
  O   O8        1.0  0.8573717286054761  0.2695935301606316  0.6445135963097268  1.0000
