data_image0
_chemical_formula_structural       NC8NC6H8C7OH6C8H9Zn2C4O8
_chemical_formula_sum              "N2 C33 H23 O9 Zn2"
_cell_length_a       17.457602349358154
_cell_length_b       9.274078303013077
_cell_length_c       9.275657083861812
_cell_angle_alpha    86.02466005452891
_cell_angle_beta     92.37146316173272
_cell_angle_gamma    91.09880916489897

_space_group_name_H-M_alt    "P 1"
_space_group_IT_number       1

loop_
  _space_group_symop_operation_xyz
  'x, y, z'

loop_
  _atom_site_type_symbol
  _atom_site_label
  _atom_site_symmetry_multiplicity
  _atom_site_fract_x
  _atom_site_fract_y
  _atom_site_fract_z
  _atom_site_occupancy
  N   N1        1.0  0.7207724242329244  0.6053164919706413  0.48019269274917714  1.0000
  C   C1        1.0  0.6600250908231124  0.5542768831839595  0.4682826325990155  1.0000
  C   C2        1.0  0.5844527415400377  0.49079000537615536  0.45347712141681945  1.0000
  C   C3        1.0  0.5252969783119424  0.5357817384865806  0.5366948575714001  1.0000
  C   C4        1.0  0.45114682023366165  0.4746497001280748  0.5225771563132773  1.0000
  C   C5        1.0  0.3883639044997414  0.5221556430464906  0.6107075291510817  1.0000
  C   C6        1.0  0.31399356171518444  0.5423538327452255  0.5488878504541375  1.0000
  C   C7        1.0  0.2548383444934977  0.5871419772048665  0.6322248407190669  1.0000
  C   C8        1.0  0.17903761987911698  0.6080006625475589  0.5679487261809606  1.0000
  N   N2        1.0  0.11810679134641891  0.6247639642538989  0.5162708794393074  1.0000
  C   C9        1.0  0.2695572268802347  0.6120046136868873  0.7779464318013503  1.0000
  C   C10       1.0  0.3431385319075006  0.5922403506693958  0.8401972833555518  1.0000
  C   C11       1.0  0.4022787044397663  0.5476545779557049  0.7573686736419109  1.0000
  C   C12       1.0  0.4374525229834243  0.36776611894510625  0.4236498825256058  1.0000
  C   C13       1.0  0.49659283311388186  0.3230859280927465  0.34087676792335736  1.0000
  C   C14       1.0  0.5699547172336822  0.3843457099830174  0.3556049884349366  1.0000
  H   H1        1.0  0.536846003630463  0.6196181727540535  0.6108401711976033  1.0000
  H   H2        1.0  0.3022640971754414  0.5251796685696455  0.4356435791714884  1.0000
  H   H3        1.0  0.2242076131539196  0.6466081224172564  0.843316179053674  1.0000
  H   H4        1.0  0.3543468501885784  0.6111416484193204  0.9530318582350368  1.0000
  H   H5        1.0  0.45861686116694306  0.5312631780365753  0.8084832909268239  1.0000
  H   H6        1.0  0.381295111037201  0.31738090687953546  0.41170143549138133  1.0000
  H   H7        1.0  0.4855570834537531  0.24048235746364258  0.26540504827418654  1.0000
  H   H8        1.0  0.615306966710149  0.34877952884187646  0.2907998731523638  1.0000
  C   C15       1.0  0.9217344494471773  0.19167844983092475  0.4971474785884281  1.0000
  C   C16       1.0  0.9075141726314617  0.2737784774829876  0.36572425368927985  1.0000
  C   C17       1.0  0.8866467875259316  0.20701193750202493  0.2386215046702922  1.0000
  C   C18       1.0  0.8797963242611007  0.05605787188921596  0.24284363649585594  1.0000
  C   C19       1.0  0.8948918128203655  0.9729283051412801  0.371663431307653  1.0000
  C   C20       1.0  0.9171521085440976  0.03839127968050061  0.4993292318505327  1.0000
  C   C21       1.0  0.8714745126361788  0.2964980702901443  0.10308030634700316  1.0000
  O   O1        1.0  0.8522998505524515  0.23967639218936987  0.9871975642248337  1.0000
  H   H9        1.0  0.9177289813883409  0.2699328632106197  0.8517136735059205  1.0000
  H   H10       1.0  0.910957920299735  0.3907966770626701  0.36292772832536024  1.0000
  H   H11       1.0  0.8634671345613744  0.0019183777710629617  0.1461927984382463  1.0000
  H   H12       1.0  0.8908990238693365  0.8562917719835873  0.37052973939670975  1.0000
  H   H13       1.0  0.9178141504448629  0.7407576297829057  0.73779646818772  1.0000
  H   H14       1.0  0.8767742071864429  0.41306426787438477  0.10204674342701736  1.0000
  C   C22       1.0  0.9214079756805301  0.6129571537565959  0.075090183851239  1.0000
  C   C23       1.0  0.9605284851980566  0.7247999673342724  0.14391990704028038  1.0000
  C   C24       1.0  0.9928457752358305  0.842481860653693  0.06347185912179865  1.0000
  C   C25       1.0  0.9871857654525635  0.8473930659204117  0.912334954224939  1.0000
  C   C26       1.0  0.9497177057761038  0.736276781564773  0.8422046509547734  1.0000
  C   C27       1.0  0.9174785653428946  0.6171125801409529  0.9213865133950377  1.0000
  C   C28       1.0  0.03548001437707929  0.9602094072149975  0.13889767152254406  1.0000
  C   C29       1.0  0.11991663195439561  0.9231925504013762  0.1642829607480063  1.0000
  H   H15       1.0  0.9645070600904267  0.7223211522919606  0.2609979893142105  1.0000
  H   H16       1.0  0.012556182312619676  0.9367732255116217  0.8485227147315046  1.0000
  H   H17       1.0  0.9477143299521165  0.7417985416318551  0.72506566045627  1.0000
  H   H18       1.0  0.8278540969297544  0.4465267676118255  0.6449043897996437  1.0000
  H   H19       1.0  0.030714792227912957  0.06466578151087088  0.07294578872039793  1.0000
  H   H20       1.0  0.009891296404808346  0.9752891013540419  0.24450079123371407  1.0000
  H   H21       1.0  0.12592965994479613  0.8209002396734881  0.233262472065944  1.0000
  H   H22       1.0  0.14696920445504835  0.9112446189177226  0.059523827732389734  1.0000
  H   H23       1.0  0.15028046663388595  0.011244259969161348  0.21987214172361824  1.0000
  Zn  Zn1       1.0  0.8354345220130209  0.6109247870475747  0.49061238806536545  1.0000
  Zn  Zn2       1.0  0.00344468851116542  0.619143906837754  0.5058629509944292  1.0000
  C   C30       1.0  0.9182506820669201  0.6105836852462843  0.7614034089915308  1.0000
  C   C31       1.0  0.9206303526218095  0.6194869181362423  0.23507224272154884  1.0000
  C   C32       1.0  0.9180409723143612  0.8783161599845692  0.49317432738138534  1.0000
  C   C33       1.0  0.9208400140616076  0.35175270886093823  0.5033013914884128  1.0000
  O   O2        1.0  0.9841283918522558  0.6247911902343253  0.29455117607885273  1.0000
  O   O3        1.0  0.9822684795299114  0.6115164452536419  0.7134988824198404  1.0000
  O   O4        1.0  0.9820982697942209  0.8277137698538989  0.4969019270974407  1.0000
  O   O5        1.0  0.9842985447032895  0.40859387261211744  0.5111480181817099  1.0000
  O   O6        1.0  0.8545806084872996  0.8214748184699614  0.4853273156662406  1.0000
  O   O7        1.0  0.8547508092021536  0.6052792256034736  0.7019241986200786  1.0000
  O   O8        1.0  0.8566107298912694  0.6185539118408838  0.2829747597010251  1.0000
  O   O9        1.0  0.8567808822933624  0.4023565844373768  0.49957170981158133  1.0000
