data_image0
_chemical_formula_structural       NC10NC5H10C7OC3OC4H12C6NCOC6H10Zn2C4O8
_chemical_formula_sum              "N3 C46 H32 O11 Zn2"
_cell_length_a       19.4436361288709
_cell_length_b       10.299371110280154
_cell_length_c       10.299662537453273
_cell_angle_alpha    85.55769285269642
_cell_angle_beta     89.69093770751046
_cell_angle_gamma    89.43124194409341

_space_group_name_H-M_alt    "P 1"
_space_group_IT_number       1

loop_
  _space_group_symop_operation_xyz
  'x, y, z'

loop_
  _atom_site_type_symbol
  _atom_site_label
  _atom_site_symmetry_multiplicity
  _atom_site_fract_x
  _atom_site_fract_y
  _atom_site_fract_z
  _atom_site_occupancy
  N   N1        1.0  0.6479930609406943  0.40985206264980556  0.5625466396400041  1.0000
  C   C1        1.0  0.5891573681859168  0.41974599802131435  0.5769343210760978  1.0000
  C   C2        1.0  0.5158283833725259  0.43208503208832477  0.5949312620424865  1.0000
  C   C3        1.0  0.4736469672928676  0.40014052775345227  0.5002445134596645  1.0000
  C   C4        1.0  0.3977431726060784  0.4105758616928027  0.5055762892720455  1.0000
  C   C5        1.0  0.35799385205241563  0.3857687239883379  0.6126425197348984  1.0000
  C   C6        1.0  0.28187462956736387  0.38969251238206876  0.5996842075731481  1.0000
  C   C7        1.0  0.24131219749862484  0.44730190063752656  0.6934766971786721  1.0000
  C   C8        1.0  0.16964993102962642  0.4509454869273275  0.6829338194191341  1.0000
  C   C9        1.0  0.1375552753570517  0.39658351522540913  0.5788848488387375  1.0000
  C   C10       1.0  0.0637637817873117  0.40028843067680153  0.5681867067796251  1.0000
  N   N2        1.0  0.004440425955437303  0.4032669882074989  0.559586109855903  1.0000
  C   C11       1.0  0.17739270790178596  0.3382668248286039  0.4854753595396879  1.0000
  C   C12       1.0  0.2490714139815162  0.33456915396352555  0.49576643584395247  1.0000
  C   C13       1.0  0.38611309126911086  0.3452354154722075  0.7437260659728047  1.0000
  C   C14       1.0  0.44477854176797854  0.38833109771530955  0.7909843900391809  1.0000
  C   C15       1.0  0.4890024272279929  0.48623037466360575  0.7166489813169377  1.0000
  H   H1        1.0  0.49574867684196  0.3710734589366578  0.4099257553214748  1.0000
  H   H2        1.0  0.3730536727902387  0.4331220829634408  0.4124236674379276  1.0000
  H   H3        1.0  0.2651822505578091  0.4905479807590528  0.7743416302907016  1.0000
  H   H4        1.0  0.1393054902907775  0.49621968092433977  0.7558718122185828  1.0000
  H   H5        1.0  0.1530507726008408  0.2952162167946464  0.4049449837885495  1.0000
  H   H6        1.0  0.2787499287356354  0.2870511874128994  0.4235240202456374  1.0000
  H   H7        1.0  0.3551357612973096  0.28098283872561636  0.807952290826111  1.0000
  H   H8        1.0  0.45991786512254407  0.35420967678597604  0.8889092242538439  1.0000
  H   H9        1.0  0.4589057531655408  0.5769585234853399  0.6914276970350401  1.0000
  H   H10       1.0  0.532286249753252  0.5117814070747472  0.7797441051715057  1.0000
  C   C16       1.0  0.8261736766817664  0.025188969074312336  0.5609519524671112  1.0000
  C   C17       1.0  0.8182660349351725  0.034675276289382724  0.4250319803501119  1.0000
  C   C18       1.0  0.8135007099529689  0.9222872760835793  0.35665235003757845  1.0000
  C   C19       1.0  0.8183001354215528  0.7994066447050607  0.4253427843449531  1.0000
  C   C20       1.0  0.8262663917081258  0.7879199836982059  0.5611920356377516  1.0000
  C   C21       1.0  0.8299769877000788  0.9014127472565975  0.6282497177111288  1.0000
  C   C22       1.0  0.8058680872191017  0.9321629325900774  0.212968147335993  1.0000
  O   O1        1.0  0.834070026968647  0.8466280648415527  0.14871071751740095  1.0000
  C   C23       1.0  0.766234131891866  0.03899190890837767  0.14218620739967602  1.0000
  C   C24       1.0  0.7854747965349802  0.08384595562978725  0.014883340774421772  1.0000
  C   C25       1.0  0.7482815606001111  0.1835733450451349  0.945811175044486  1.0000
  O   O2        1.0  0.7702563003964191  0.22502383264915607  0.8195303152115754  1.0000
  C   C26       1.0  0.7374816406689009  0.3251461054995924  0.7383672133568595  1.0000
  C   C27       1.0  0.6905785232532252  0.2384754009992001  0.004778751777577695  1.0000
  C   C28       1.0  0.6706319224678888  0.1933451479619032  0.13057041657704804  1.0000
  C   C29       1.0  0.7079473080168877  0.0938970953695859  0.19888938718687646  1.0000
  H   H11       1.0  0.842145818443923  0.2146074639740756  0.8172132807591661  1.0000
  H   H12       1.0  0.816569619053138  0.12966170189816453  0.37201614196623733  1.0000
  H   H13       1.0  0.8151444392923242  0.7126251266078808  0.37264633558588867  1.0000
  H   H14       1.0  0.8360736427592249  0.8932956900713852  0.733034053369198  1.0000
  H   H15       1.0  0.8298987808527223  0.4560495070370023  0.6132489399570675  1.0000
  H   H16       1.0  0.8299503322529448  0.04214594490805367  0.9691409249847234  1.0000
  H   H17       1.0  0.7655502485117889  0.33775528739384475  0.6442628290402124  1.0000
  H   H18       1.0  0.7384890593236043  0.41856587733909595  0.7853780930125326  1.0000
  H   H19       1.0  0.6835832422563304  0.2979162019946062  0.7190505701923788  1.0000
  H   H20       1.0  0.6607098233508033  0.31554625121464525  0.9541381556137529  1.0000
  H   H21       1.0  0.6258965954167524  0.23521183865528242  0.1750932530127418  1.0000
  H   H22       1.0  0.6907777677694994  0.05902849637816067  0.29541105031546544  1.0000
  C   C30       1.0  0.8262673935656988  0.406694123699578  0.17969565381270503  1.0000
  C   C31       1.0  0.896481507559926  0.43777168994694304  0.17530872572701273  1.0000
  C   C32       1.0  0.9320542397345983  0.4515396539279648  0.05641316539406449  1.0000
  C   C33       1.0  0.8963611191553303  0.4374638393713355  0.9401663311390509  1.0000
  C   C34       1.0  0.8261726882071013  0.40641480307769023  0.9424483079685851  1.0000
  C   C35       1.0  0.7915807677790907  0.3907596204809068  0.06277749537415689  1.0000
  N   N3        1.0  0.0036797126290437645  0.48530216769281564  0.05534578013920633  1.0000
  C   C36       1.0  0.05235265823753376  0.4445527603079248  0.9607159394831015  1.0000
  O   O3        1.0  0.03979612276728739  0.34622608235677743  0.8992375908576595  1.0000
  C   C37       1.0  0.1183963925038698  0.5136616799655326  0.9378391816343665  1.0000
  C   C38       1.0  0.12670958697249435  0.6415789234231424  0.9741643875965097  1.0000
  C   C39       1.0  0.18911337991501825  0.7059818963831064  0.9514761985609947  1.0000
  C   C40       1.0  0.2437042082160077  0.6439460863928202  0.89202868936846  1.0000
  C   C41       1.0  0.23594929283298566  0.5174649189006028  0.8546933353845617  1.0000
  C   C42       1.0  0.17366271393145483  0.4526027463262341  0.8770513271169764  1.0000
  H   H23       1.0  0.693661724147744  0.34928051283738915  0.39514297525194597  1.0000
  H   H24       1.0  0.924039672311104  0.4504818068819099  0.26450439010940685  1.0000
  H   H25       1.0  0.9230025557684469  0.45293565513424205  0.8478368998696695  1.0000
  H   H26       1.0  0.7374557719021131  0.366785327645055  0.06529518690809755  1.0000
  H   H27       1.0  0.7990265508364547  0.3961892187623773  0.6157468102660548  1.0000
  H   H28       1.0  0.022456196067262905  0.5321593250145524  0.13412732741087696  1.0000
  H   H29       1.0  0.08492470373687477  0.6928863186183822  0.018301242197907183  1.0000
  H   H30       1.0  0.1950420283286323  0.8043523664070575  0.9795739080510687  1.0000
  H   H31       1.0  0.29193677504554616  0.694033395985297  0.874526673563746  1.0000
  H   H32       1.0  0.16891265092932461  0.3544331250132866  0.8475688617566828  1.0000
  Zn  Zn1       1.0  0.7508560707091338  0.4079482782765058  0.5616998058880072  1.0000
  Zn  Zn2       1.0  0.9015774050863027  0.40516016094249074  0.5604436216567239  1.0000
  C   C43       1.0  0.8261884086641256  0.4012939412539674  0.7982701146882228  1.0000
  C   C44       1.0  0.8262467131869361  0.4118161060985637  0.3238734271236934  1.0000
  C   C45       1.0  0.8262459633055084  0.6437495378008575  0.5559713972951614  1.0000
  C   C46       1.0  0.8261891069166464  0.16935895016867075  0.5661722136942813  1.0000
  O   O4        1.0  0.8834377328795471  0.41247134841881916  0.3717840877747056  1.0000
  O   O5        1.0  0.8833913942368481  0.3985216028001786  0.7494056651101231  1.0000
  O   O6        1.0  0.8834370991140643  0.5943075770501869  0.553747743363064  1.0000
  O   O7        1.0  0.8833919765845717  0.21668538444612406  0.5674419125767782  1.0000
  O   O8        1.0  0.7690414477770715  0.5964230557257365  0.5547015153897965  1.0000
  O   O9        1.0  0.7689957430949692  0.40063864181159414  0.7503593683811731  1.0000
  O   O10       1.0  0.7690420819718251  0.4145883427450017  0.3727362296000798  1.0000
  O   O11       1.0  0.7689963256608154  0.21880236944785736  0.5683941517689826  1.0000
