data_image0
_chemical_formula_structural       NC8NC6H8C7ONH7C8NH11Zn2C4O8
_chemical_formula_sum              "N4 C33 H26 O9 Zn2"
_cell_length_a       17.457602349358154
_cell_length_b       10.297852080636378
_cell_length_c       9.275652972338538
_cell_angle_alpha    85.93999439630132
_cell_angle_beta     93.30040864466163
_cell_angle_gamma    91.66731456120219

_space_group_name_H-M_alt    "P 1"
_space_group_IT_number       1

loop_
  _space_group_symop_operation_xyz
  'x, y, z'

loop_
  _atom_site_type_symbol
  _atom_site_label
  _atom_site_symmetry_multiplicity
  _atom_site_fract_x
  _atom_site_fract_y
  _atom_site_fract_z
  _atom_site_occupancy
  N   N1        1.0  0.715961730161741  0.4436832696972772  0.4750007303849884  1.0000
  C   C1        1.0  0.6548461062120373  0.3976780019632249  0.4632154915188554  1.0000
  C   C2        1.0  0.5788157284953135  0.34045322942592415  0.4485652484623255  1.0000
  C   C3        1.0  0.5206139294818248  0.38113349908155886  0.5317215521566403  1.0000
  C   C4        1.0  0.44602393191043327  0.32603153442737276  0.5177534525161482  1.0000
  C   C5        1.0  0.3842505593646592  0.36898553814245183  0.6058191352435653  1.0000
  C   C6        1.0  0.3094501826994289  0.3870758677781767  0.5439055961849211  1.0000
  C   C7        1.0  0.25124890380404474  0.42757291967186695  0.6271817633283875  1.0000
  C   C8        1.0  0.1750003193493393  0.4462540608202136  0.5628084284896073  1.0000
  N   N2        1.0  0.11370937600044122  0.4612673185963924  0.5110524351482231  1.0000
  C   C9        1.0  0.2673580642179508  0.45022629835488326  0.772936059801706  1.0000
  C   C10       1.0  0.3413753893594371  0.4325276678095751  0.8352799310006147  1.0000
  C   C11       1.0  0.3995670747157051  0.3922138277291289  0.7525119576854908  1.0000
  C   C12       1.0  0.4309181068661549  0.22956197739977144  0.41903812564141374  1.0000
  C   C13       1.0  0.48910991944771637  0.18916316689866994  0.3363259301563605  1.0000
  C   C14       1.0  0.5629175903298616  0.24438128388559877  0.35090462473410655  1.0000
  H   H1        1.0  0.5332402568380721  0.4567954750144742  0.6056983147405235  1.0000
  H   H2        1.0  0.2966514527498159  0.371405909553741  0.4306303224454995  1.0000
  H   H3        1.0  0.22275397625166643  0.48151619917228045  0.8382594719555363  1.0000
  H   H4        1.0  0.35365840232367635  0.44975299012518416  0.9481407413546465  1.0000
  H   H5        1.0  0.45626240457565204  0.3775346595378516  0.8037033776505235  1.0000
  H   H6        1.0  0.374395472659147  0.18414622734142383  0.4072127718078107  1.0000
  H   H7        1.0  0.47699179536198383  0.11460964563500409  0.26101866778314053  1.0000
  H   H8        1.0  0.6075241980099517  0.2122250360332878  0.2861487263114102  1.0000
  C   C15       1.0  0.9149210706093976  0.07104196610298194  0.49304293680885714  1.0000
  C   C16       1.0  0.9038097860969196  0.07918801651278053  0.3414614117795016  1.0000
  C   C17       1.0  0.8974983052290323  0.9661964237727566  0.2646587483215057  1.0000
  C   C18       1.0  0.9036155587585527  0.8439269234399661  0.3413940826659143  1.0000
  C   C19       1.0  0.914757393486821  0.8338989983394588  0.49302330877222206  1.0000
  C   C20       1.0  0.9201557663130048  0.9479589111612859  0.5678746795088967  1.0000
  C   C21       1.0  0.8859528445875319  0.9774092339855955  0.10455620308329028  1.0000
  O   O1        1.0  0.9061676734128415  0.08097866240008145  0.03461268262039342  1.0000
  N   N3        1.0  0.8513638772176816  0.8736258069259785  0.027004032191316762  1.0000
  H   H9        1.0  0.9361990404336178  0.2629312018892118  0.7794807960303776  1.0000
  H   H10       1.0  0.8993708212165901  0.1737713834374952  0.28295840518278625  1.0000
  H   H11       1.0  0.901211326449587  0.7562751627891354  0.2833670969699136  1.0000
  H   H12       1.0  0.9287174568847515  0.9409270150999781  0.6847002707584453  1.0000
  H   H13       1.0  0.9370438897502715  0.6077428764210301  0.779421239048896  1.0000
  H   H14       1.0  0.8470426818213732  0.8818329424702844  0.9139954704223134  1.0000
  H   H15       1.0  0.8253773277358142  0.7926719858438884  0.08003236381632074  1.0000
  C   C22       1.0  0.9131312054664854  0.449863377785576  0.06960761294452222  1.0000
  C   C23       1.0  0.8633318030481603  0.5326275290292843  0.13124041139764286  1.0000
  C   C24       1.0  0.8195907419854496  0.6232390963121437  0.044575115536767074  1.0000
  C   C25       1.0  0.824612643397051  0.6297893214645914  0.8942448833581589  1.0000
  C   C26       1.0  0.8727221858996514  0.5470082830415657  0.8310508388410718  1.0000
  C   C27       1.0  0.9165473108097684  0.4550775973142074  0.9164586800413004  1.0000
  C   C28       1.0  0.7657046421595308  0.7097207712217766  0.11223407090124062  1.0000
  C   C29       1.0  0.6868049850521741  0.6427678755030148  0.12587038499703018  1.0000
  N   N4        1.0  0.6347320747397548  0.7282458326874919  0.18935785959836626  1.0000
  H   H16       1.0  0.9694276816225134  0.25936639592705685  0.3713187460362386  1.0000
  H   H17       1.0  0.859681869361062  0.5288523235398523  0.24773713577440787  1.0000
  H   H18       1.0  0.79056581643623  0.6982482585659555  0.825575255655199  1.0000
  H   H19       1.0  0.8741066418493036  0.5526480731079046  0.7141564171892241  1.0000
  H   H20       1.0  0.021824481837245065  0.34076358755521097  0.6555215699967969  1.0000
  H   H21       1.0  0.7897352037798365  0.7336066352525865  0.22112635317820062  1.0000
  H   H22       1.0  0.7595401846589279  0.8032260087914358  0.04536524637462748  1.0000
  H   H23       1.0  0.6628145932914881  0.6199274322959643  0.016564582859007308  1.0000
  H   H24       1.0  0.6922427089302975  0.5499778099588255  0.1945565095649687  1.0000
  H   H25       1.0  0.5805330092078735  0.6822306023764486  0.1888483731974182  1.0000
  H   H26       1.0  0.6527026202518674  0.7355416305100912  0.2981065918517205  1.0000
  Zn  Zn1       1.0  0.8307431432917357  0.44875421434168006  0.4854127990943974  1.0000
  Zn  Zn2       1.0  0.9989279985250965  0.4561857970144496  0.500652171773976  1.0000
  C   C30       1.0  0.9159009715030956  0.44891735931179577  0.756385677822873  1.0000
  C   C31       1.0  0.9137720071064345  0.4560243729654907  0.22967960094012788  1.0000
  C   C32       1.0  0.9147612267588918  0.6896672281642431  0.4872808252559382  1.0000
  C   C33       1.0  0.9149116951057752  0.2152729414836374  0.4987845252211032  1.0000
  O   O2        1.0  0.9778123432645398  0.46090663942250876  0.28918448504376215  1.0000
  O   O3        1.0  0.9795090474703194  0.44967450970417316  0.7084467099200518  1.0000
  O   O4        1.0  0.9785878348280495  0.6440830447133331  0.4911425595138446  1.0000
  O   O5        1.0  0.9787334980786051  0.26649811050357863  0.5064885221366084  1.0000
  O   O6        1.0  0.850937586344959  0.6384418983178839  0.47957644352373063  1.0000
  O   O7        1.0  0.8518587983388237  0.4440349234034628  0.6968805170078627  1.0000
  O   O8        1.0  0.8501620872007369  0.45526699718641445  0.2776165585484429  1.0000
  O   O9        1.0  0.8510832424497391  0.2608584596425878  0.49492070374661573  1.0000
