data_image0
_chemical_formula_structural       NC9NC3NH7C7NC2NH8C7NC2NH8Zn2C4O8
_chemical_formula_sum              "N7 C34 H23 Zn2 O8"
_cell_length_a       16.053384444249904
_cell_length_b       9.273995741505848
_cell_length_c       9.27399911348925
_cell_angle_alpha    85.20991922917831
_cell_angle_beta     89.45501548333611
_cell_angle_gamma    89.75855226915094

_space_group_name_H-M_alt    "P 1"
_space_group_IT_number       1

loop_
  _space_group_symop_operation_xyz
  'x, y, z'

loop_
  _atom_site_type_symbol
  _atom_site_label
  _atom_site_symmetry_multiplicity
  _atom_site_fract_x
  _atom_site_fract_y
  _atom_site_fract_z
  _atom_site_occupancy
  N   N1        1.0  0.7991058815492318  0.5724969851287127  0.4085310733381657  1.0000
  C   C1        1.0  0.748505497697727  0.5501069121665946  0.32529133483650646  1.0000
  C   C2        1.0  0.6856229420217136  0.5222868121536361  0.22188727248267215  1.0000
  C   C3        1.0  0.6996686033496236  0.5101292675007592  0.07656300838923635  1.0000
  C   C4        1.0  0.6230820304775941  0.48251003479462246  0.018420867349882235  1.0000
  C   C5        1.0  0.5655793711024062  0.47935533205640946  0.131408779529387  1.0000
  C   C6        1.0  0.4748114097114652  0.4530056368600938  0.11995530474231075  1.0000
  C   C7        1.0  0.4188296138081129  0.49952851066737786  0.22443700684331055  1.0000
  C   C8        1.0  0.3331718839569532  0.4745392040470615  0.21346735960107632  1.0000
  C   C9        1.0  0.2764121908956437  0.5229766036098493  0.3205899013010076  1.0000
  N   N2        1.0  0.2307940782537645  0.5619134567594957  0.40669965091934834  1.0000
  C   C10       1.0  0.3027691369638437  0.40290256143187697  0.0980309384748006  1.0000
  C   C11       1.0  0.3577423395370424  0.35651046298499445  0.993784805277761  1.0000
  C   C12       1.0  0.4431945618030035  0.3813195689173201  0.004313251277756833  1.0000
  N   N3        1.0  0.6044849720261772  0.5037921427152425  0.25544925783997496  1.0000
  H   H1        1.0  0.7586595867597137  0.5202106253952385  0.019223097379246438  1.0000
  H   H2        1.0  0.6111243737480281  0.4681868291012363  0.9059411528088002  1.0000
  H   H3        1.0  0.4411797542973603  0.5570069894119938  0.3132659306579002  1.0000
  H   H4        1.0  0.236662466808006  0.3830356938130828  0.0886098817579557  1.0000
  H   H5        1.0  0.3341134721582927  0.30085699654036513  0.9047005132375623  1.0000
  H   H6        1.0  0.4843668815471566  0.3426687720294994  0.9228112590865565  1.0000
  H   H7        1.0  0.5779765911834566  0.5055327063534967  0.35854420315330393  1.0000
  C   C13       1.0  0.012466405992998643  0.14378631113138618  0.4065715363239628  1.0000
  C   C14       1.0  0.027542803524771117  0.22778768719153208  0.2759823339277694  1.0000
  C   C15       1.0  0.050054001995376796  0.16320906595487017  0.1507751446498022  1.0000
  C   C16       1.0  0.05842214973741977  0.012541839341013947  0.15257946136773176  1.0000
  C   C17       1.0  0.041600750165074585  0.9273160425976337  0.2819804330054736  1.0000
  C   C18       1.0  0.017441399470236717  0.990612721915279  0.4086715582679975  1.0000
  C   C19       1.0  0.08330072272250177  0.9461005826158625  0.01835182233040245  1.0000
  N   N4        1.0  0.0867883674184724  0.02143981441410081  0.8871876647252726  1.0000
  C   C20       1.0  0.11208739404042967  0.9237212544766251  0.7963066309684055  1.0000
  C   C21       1.0  0.12370811871757259  0.7918557821116818  0.8728781124126228  1.0000
  N   N5        1.0  0.10564006354775302  0.8060843693841406  0.012504725716109276  1.0000
  H   H8        1.0  0.9441975842138449  0.40825583706512864  0.6145832604008323  1.0000
  H   H9        1.0  0.023934462234699087  0.34476049967650213  0.27134257504013326  1.0000
  H   H10       1.0  0.06214915792254594  0.2319648678666179  0.05267772883945177  1.0000
  H   H11       1.0  0.04441443587917694  0.8106675695782184  0.2839686526112821  1.0000
  H   H12       1.0  0.017701714722347273  0.6904889250681948  0.648686701742883  1.0000
  H   H13       1.0  0.1217009797328128  0.94750760659645  0.6811937418915698  1.0000
  H   H14       1.0  0.14431402465862186  0.6926110797929302  0.830004639782254  1.0000
  H   H15       1.0  0.10987553296838692  0.7247063265204534  0.09685306969588847  1.0000
  C   C22       1.0  0.016414192290090224  0.570854515790294  0.9837732224727519  1.0000
  C   C23       1.0  0.08139596866925825  0.5002083670974302  0.06180912284109307  1.0000
  C   C24       1.0  0.14080359681812848  0.41943232202152225  0.9927062655559777  1.0000
  C   C25       1.0  0.1368225764942368  0.4065247271501211  0.8433941893725563  1.0000
  C   C26       1.0  0.07310874234250897  0.4795751202088927  0.7638003649517717  1.0000
  C   C27       1.0  0.013493611179086205  0.5635445735235016  0.8314698574605437  1.0000
  C   C28       1.0  0.2002421930073517  0.31872242344821705  0.7722135755348225  1.0000
  N   N6        1.0  0.26969990883591155  0.26663259154388275  0.8398315260618489  1.0000
  C   C29       1.0  0.3095997663974046  0.1934982330127999  0.7401585393018641  1.0000
  C   C30       1.0  0.26414219095777636  0.20179967785708186  0.6148273155794168  1.0000
  N   N7        1.0  0.19536371814143472  0.28048893979037826  0.6351450228338331  1.0000
  H   H16       1.0  0.9288152802097652  0.755023719991635  0.2511779099259548  1.0000
  H   H17       1.0  0.08519446370360262  0.5044066554478912  0.17795490736030617  1.0000
  H   H18       1.0  0.1893404815426225  0.3651172712872508  0.057095022887353686  1.0000
  H   H19       1.0  0.07102537015195852  0.47572424512628103  0.647694435256915  1.0000
  H   H20       1.0  0.8840063133153315  0.6481102251710764  0.5464609070926816  1.0000
  H   H21       1.0  0.3682020080074042  0.1371753226551553  0.7581409015116891  1.0000
  H   H22       1.0  0.279847988443481  0.15326161717278275  0.5159474093563388  1.0000
  H   H23       1.0  0.14836841171374315  0.3034994216910721  0.5596937414509651  1.0000
  Zn  Zn1       1.0  0.9236817165882657  0.5694388902312204  0.40801088229330723  1.0000
  Zn  Zn2       1.0  0.10621811010010962  0.5649597029326612  0.4072316093668664  1.0000
  C   C31       1.0  0.014010058510898201  0.5591822214210839  0.6712228397806412  1.0000
  C   C32       1.0  0.015891771669250154  0.575218140902898  0.14401978954609457  1.0000
  C   C33       1.0  0.0165165472554012  0.830594249841675  0.4025230337589958  1.0000
  C   C34       1.0  0.013385210195437262  0.30380438100512874  0.4127196684884966  1.0000
  O   O1        1.0  0.08498801562232111  0.5749764946686955  0.1975042557122837  1.0000
  O   O2        1.0  0.08345470866979277  0.5560231839728758  0.6171465053094101  1.0000
  O   O3        1.0  0.08547779104470866  0.7751918393687668  0.4001695185558551  1.0000
  O   O4        1.0  0.08296487139355047  0.3558078520490342  0.4144811345364201  1.0000
  O   O5        1.0  0.9469348930041477  0.7785907426450093  0.40076135738209273  1.0000
  O   O6        1.0  0.9449118210678649  0.5594238202564581  0.61773827147323  1.0000
  O   O7        1.0  0.946445133759326  0.5783770956692078  0.19809428643130866  1.0000
  O   O8        1.0  0.9444219890937329  0.35920844180347844  0.4150712734432034  1.0000
