data_image0
_chemical_formula_structural       NC10NC3NH7C7OC3FC3H9C7OC3OC4H12Zn2C4O8
_chemical_formula_sum              "N3 C44 H28 O11 F1 Zn2"
_cell_length_a       19.210446455230148
_cell_length_b       10.29937835083307
_cell_length_c       10.299374482448636
_cell_angle_alpha    85.53885586126866
_cell_angle_beta     89.97251480092041
_cell_angle_gamma    89.96745330776052

_space_group_name_H-M_alt    "P 1"
_space_group_IT_number       1

loop_
  _space_group_symop_operation_xyz
  'x, y, z'

loop_
  _atom_site_type_symbol
  _atom_site_label
  _atom_site_symmetry_multiplicity
  _atom_site_fract_x
  _atom_site_fract_y
  _atom_site_fract_z
  _atom_site_occupancy
  N   N1        1.0  0.6559804576610269  0.4205855858329553  0.5671236774143176  1.0000
  C   C1        1.0  0.595752114762972  0.42279309913758234  0.5673545995023797  1.0000
  C   C2        1.0  0.5209479311818518  0.4255300114519695  0.5676406829357654  1.0000
  C   C3        1.0  0.4853474126739502  0.5417596552859067  0.5827406523965566  1.0000
  C   C4        1.0  0.4126819572043984  0.5419112097193843  0.5826880373737024  1.0000
  C   C5        1.0  0.37578124046616723  0.42623897447475173  0.5677270938452394  1.0000
  C   C6        1.0  0.29845898845536  0.42488250219286133  0.567576640544792  1.0000
  C   C7        1.0  0.2607252832473085  0.5284718411453488  0.5042019544196663  1.0000
  C   C8        1.0  0.1879467940593106  0.5270696019852181  0.5040930249888522  1.0000
  C   C9        1.0  0.1519006341686633  0.4223355532238682  0.5673077560736577  1.0000
  C   C10       1.0  0.0769709951888873  0.42103347287060017  0.5671710607381211  1.0000
  N   N2        1.0  0.0167330472452772  0.4199865560477964  0.5670611925699922  1.0000
  C   C11       1.0  0.18891069903867302  0.3188719163739806  0.6306574196771333  1.0000
  C   C12       1.0  0.2616910003744785  0.3199998676904441  0.6308166255037182  1.0000
  C   C13       1.0  0.4139917728616808  0.31182955980830096  0.5529151054369956  1.0000
  N   N3        1.0  0.4847619565617818  0.3142745549643018  0.5530804148306738  1.0000
  H   H1        1.0  0.5134561315434032  0.6311924744692268  0.5947799945388264  1.0000
  H   H2        1.0  0.3854207155502515  0.6319255520134236  0.5961220842067019  1.0000
  H   H3        1.0  0.2874685416389555  0.6097403214051833  0.45320116863850485  1.0000
  H   H4        1.0  0.1598160788609697  0.6075100155601685  0.4544227610119276  1.0000
  H   H5        1.0  0.1615279947951309  0.23746810677548247  0.6802282978164977  1.0000
  H   H6        1.0  0.2891766467502108  0.2396782749334845  0.6819246472756195  1.0000
  H   H7        1.0  0.3877187358463626  0.22095228648488052  0.5394349014046689  1.0000
  C   C14       1.0  0.836286697519565  0.03890121921279377  0.5671564663636255  1.0000
  C   C15       1.0  0.763661940299628  0.03903335495182381  0.5511436887695489  1.0000
  C   C16       1.0  0.7269433884142614  0.9218119766762645  0.5445447052730708  1.0000
  C   C17       1.0  0.7638321472846998  0.8037890677516835  0.5511505347832328  1.0000
  C   C18       1.0  0.8364334393533351  0.8016609770800018  0.5670396431006568  1.0000
  C   C19       1.0  0.87221910230836  0.9197377615264702  0.5752926195226049  1.0000
  C   C20       1.0  0.6503429045504131  0.92191406917094  0.5262630545143365  1.0000
  O   O1        1.0  0.6234672060373402  0.8372844989087257  0.4596043327279362  1.0000
  C   C21       1.0  0.6042312964847235  0.017924240704107593  0.5836120008716843  1.0000
  C   C22       1.0  0.5422347942262024  0.058040840218846354  0.519839617607692  1.0000
  C   C23       1.0  0.49800738087696084  0.14735799383631562  0.5739101018186912  1.0000
  F   F1        1.0  0.43862425915345327  0.18616206989801753  0.511198663942158  1.0000
  C   C24       1.0  0.5149297545441335  0.19659779195084193  0.6925164725003095  1.0000
  C   C25       1.0  0.57592671964982  0.15623020841774515  0.7575036351152111  1.0000
  C   C26       1.0  0.6202979982493569  0.06698432534753575  0.703837852566608  1.0000
  H   H8        1.0  0.9734600274305315  0.2461268496273741  0.5953782881121517  1.0000
  H   H9        1.0  0.7356552959603979  0.13059343711550397  0.5423350907874  1.0000
  H   H10       1.0  0.7356530786761643  0.7133687421827394  0.545102890248716  1.0000
  H   H11       1.0  0.9282073932099755  0.918831891541272  0.5876365389530738  1.0000
  H   H12       1.0  0.8643892390338697  0.47347179064325273  0.5720473970312772  1.0000
  H   H13       1.0  0.5283814127523366  0.02108442384823062  0.4276803605850281  1.0000
  H   H14       1.0  0.4806737869130158  0.2656324924969129  0.734402876420607  1.0000
  H   H15       1.0  0.5887039132681325  0.1936755228670695  0.8498766564237545  1.0000
  H   H16       1.0  0.666679567141654  0.035332467356451014  0.7569838778503444  1.0000
  C   C27       1.0  0.8364245764835795  0.4203684717755043  0.18571549108870866  1.0000
  C   C28       1.0  0.9091368642876075  0.4349126638612424  0.18332927764211804  1.0000
  C   C29       1.0  0.9457232824171812  0.4437199451320541  0.06483773975927809  1.0000
  C   C30       1.0  0.9089704655415098  0.4348490667522944  0.9480904654942077  1.0000
  C   C31       1.0  0.8362955643455586  0.42019368574815896  0.9484805676436409  1.0000
  C   C32       1.0  0.8004235016305526  0.4133792640881222  0.06779915121616753  1.0000
  C   C33       1.0  0.02258387027528697  0.45771890069830445  0.06228325108763411  1.0000
  O   O2        1.0  0.05672462880563734  0.40411799860490105  0.9764384059841942  1.0000
  C   C34       1.0  0.0607105453989385  0.5325400259624504  0.15703300301381895  1.0000
  C   C35       1.0  0.128617254666777  0.49570793814385383  0.19519114637129187  1.0000
  C   C36       1.0  0.16581210744072997  0.5659130940891732  0.28337728258295947  1.0000
  O   O3        1.0  0.23315246656667643  0.5239073800469058  0.3186652718284011  1.0000
  C   C37       1.0  0.2767778212435832  0.5857081517331768  0.40704056741556593  1.0000
  C   C38       1.0  0.13471567932242778  0.6753557815996387  0.333280572634189  1.0000
  C   C39       1.0  0.06762195442044994  0.7135197866005385  0.2946115300255394  1.0000
  C   C40       1.0  0.030828822403660146  0.6430809449588137  0.2066663924674894  1.0000
  H   H17       1.0  0.699326155052903  0.39093398658747835  0.3976947794233139  1.0000
  H   H18       1.0  0.9374882941543834  0.4379576994571617  0.2739151739098473  1.0000
  H   H19       1.0  0.9371618504781917  0.4406580745959974  0.8566910736810711  1.0000
  H   H20       1.0  0.7443676400172364  0.4021659031437497  0.0688350321344331  1.0000
  H   H21       1.0  0.8084425433124698  0.41348009516230744  0.6212576475573153  1.0000
  H   H22       1.0  0.152741545070336  0.4113523746426526  0.1573213700662559  1.0000
  H   H23       1.0  0.3268739161083074  0.5322656091094724  0.4169987476869874  1.0000
  H   H24       1.0  0.25164141194824086  0.5839488782232027  0.5042799018014079  1.0000
  H   H25       1.0  0.28749923894120855  0.6877002240389702  0.36936154860290826  1.0000
  H   H26       1.0  0.16200436566961707  0.7317504834346678  0.40145815436711724  1.0000
  H   H27       1.0  0.0441515097074432  0.7983633339744598  0.3325100492104689  1.0000
  H   H28       1.0  0.9793605781564161  0.675894505493998  0.17644612562077944  1.0000
  Zn  Zn1       1.0  0.7600858595557782  0.4204092528600916  0.5671131455041338  1.0000
  Zn  Zn2       1.0  0.9126276255755218  0.42015230359366607  0.5670823622589225  1.0000
  C   C41       1.0  0.8363174085618849  0.41505284171887263  0.8043024642614979  1.0000
  C   C42       1.0  0.8363977426144825  0.4255103505878824  0.3298931703854264  1.0000
  C   C43       1.0  0.8364030050960418  0.6574843167570632  0.5618863641819623  1.0000
  C   C44       1.0  0.8363120937165572  0.18307731525369972  0.5723093399555697  1.0000
  O   O4        1.0  0.894277541059145  0.42713283520318845  0.37826883542347844  1.0000
  O   O5        1.0  0.8942132808247257  0.41323435887795545  0.7559030617432618  1.0000
  O   O6        1.0  0.894281620511398  0.6090008419408215  0.560150345745555  1.0000
  O   O7        1.0  0.8942091493385579  0.23136636154092538  0.5740214540521145  1.0000
  O   O8        1.0  0.7785042837377254  0.6091951950019319  0.5601740537146151  1.0000
  O   O9        1.0  0.7784359443598047  0.4134302723241579  0.7559267002253882  1.0000
  O   O10       1.0  0.7785002048958949  0.4273287037492348  0.3782909124559719  1.0000
  O   O11       1.0  0.7784318131542058  0.23156222077546862  0.5740436284573525  1.0000
