data_image0
_chemical_formula_structural       NC9NC3NH7C7OCH10C7NC2NH8Zn2C4O8
_chemical_formula_sum              "N5 C33 H25 O9 Zn2"
_cell_length_a       16.053384444249904
_cell_length_b       10.30083208314754
_cell_length_c       9.27399911348925
_cell_angle_alpha    85.04366218099177
_cell_angle_beta     89.45501548333611
_cell_angle_gamma    89.16926536021816

_space_group_name_H-M_alt    "P 1"
_space_group_IT_number       1

loop_
  _space_group_symop_operation_xyz
  'x, y, z'

loop_
  _atom_site_type_symbol
  _atom_site_label
  _atom_site_symmetry_multiplicity
  _atom_site_fract_x
  _atom_site_fract_y
  _atom_site_fract_z
  _atom_site_occupancy
  N   N1        1.0  0.7897831277426696  0.4162183720007371  0.40409247826007694  1.0000
  C   C1        1.0  0.7393154863637487  0.396053479489485  0.32091593890511705  1.0000
  C   C2        1.0  0.6765978657850662  0.37099820935424566  0.21759040271709207  1.0000
  C   C3        1.0  0.6907156047047063  0.36004891135326145  0.07230045501241156  1.0000
  C   C4        1.0  0.6142927760619381  0.33517454583847295  0.01423627316249276  1.0000
  C   C5        1.0  0.5568088197540625  0.33233336520772405  0.12723308993652416  1.0000
  C   C6        1.0  0.4661970759734039  0.3086023674464875  0.11585399088976  1.0000
  C   C7        1.0  0.4099394631349599  0.35050168377411417  0.22020437560150374  1.0000
  C   C8        1.0  0.3244298856526897  0.32799587583047907  0.20930526421047868  1.0000
  C   C9        1.0  0.267383025140234  0.3716194476411084  0.31629108450151233  1.0000
  N   N2        1.0  0.22153407027776587  0.40668666067866505  0.40229092934650157  1.0000
  C   C10       1.0  0.2944518458538995  0.2634786587295699  0.09407104763679007  1.0000
  C   C11       1.0  0.3497000900433814  0.22169712098578542  0.989955862697061  1.0000
  C   C12       1.0  0.4350052282837732  0.24404063702845427  0.00041428148776900456  1.0000
  N   N3        1.0  0.5955695438534298  0.3543415855957017  0.2512045918938716  1.0000
  H   H1        1.0  0.7496468194674956  0.36912835913592756  0.014932087944347524  1.0000
  H   H2        1.0  0.6024200363285017  0.3222748155110037  0.901796987894658  1.0000
  H   H3        1.0  0.4319488349540099  0.4022678101086051  0.30887105828287387  1.0000
  H   H4        1.0  0.2284629590181376  0.24558620921651686  0.084706067962804  1.0000
  H   H5        1.0  0.3264011715109899  0.17157463274587337  0.9010286604348251  1.0000
  H   H6        1.0  0.4764066943265968  0.20923105127874275  0.9190213866356757  1.0000
  H   H7        1.0  0.5690508438517933  0.3559091677439947  0.35429462422023106  1.0000
  C   C13       1.0  0.005685319423779594  0.030114017887692197  0.4033430377392372  1.0000
  C   C14       1.0  0.9829924243856989  0.04117716207422938  0.25687879824210436  1.0000
  C   C15       1.0  0.9705920683518866  0.9296187212407018  0.18356810883691344  1.0000
  C   C16       1.0  0.9829335796246852  0.80592251145464  0.25649768801431105  1.0000
  C   C17       1.0  0.005639817158714868  0.7927807835672526  0.40305282781227514  1.0000
  C   C18       1.0  0.016686819613060067  0.9054274233635831  0.4756991205752711  1.0000
  C   C19       1.0  0.9487033681250798  0.9426086753869493  0.02578232157446347  1.0000
  O   O1        1.0  0.022977607592669532  0.9475303468927554  0.9429607195553594  1.0000
  C   C20       1.0  0.003269260098852423  0.9597558799431513  0.7945473134169345  1.0000
  H   H8        1.0  0.015324647956187931  0.35328796706700194  0.4590047327057795  1.0000
  H   H9        1.0  0.9748856841883896  0.13649292854292683  0.19921174660942118  1.0000
  H   H10       1.0  0.9747856854045152  0.7200938217267304  0.19856900739591649  1.0000
  H   H11       1.0  0.03419565475233922  0.8961320688501053  0.5886544150339744  1.0000
  H   H12       1.0  0.049388639701247294  0.5607535877197994  0.67907402399848  1.0000
  H   H13       1.0  0.9104291161450533  0.03291368715224485  0.001812792929892777  1.0000
  H   H14       1.0  0.9104636863561026  0.8578260478711852  0.001481690870399625  1.0000
  H   H15       1.0  0.06217366548963655  0.9634896876009161  0.7309046474156826  1.0000
  H   H16       1.0  0.9678863150364656  0.05168071113235409  0.7645957299964283  1.0000
  H   H17       1.0  0.9679020062674225  0.8742011490922432  0.7642379949566633  1.0000
  C   C21       1.0  0.007101176077572103  0.41473913529980005  0.9793392634966017  1.0000
  C   C22       1.0  0.0725017873784437  0.35111397440212033  0.05757457260838694  1.0000
  C   C23       1.0  0.1323883068630889  0.2783656511074364  0.9886997171315377  1.0000
  C   C24       1.0  0.1284838109016342  0.26674084472109816  0.8394240744596639  1.0000
  C   C25       1.0  0.06433688795139036  0.3325313102737174  0.7596240549757719  1.0000
  C   C26       1.0  0.004223932914263932  0.408155673051922  0.8270565318300046  1.0000
  C   C27       1.0  0.19242397484269524  0.18766454964225823  0.7684912950386193  1.0000
  N   N4        1.0  0.2621905120446897  0.14075153318816927  0.8362562764812501  1.0000
  C   C28       1.0  0.30252395620497063  0.0748854468581337  0.7367897217887895  1.0000
  C   C29       1.0  0.2570171645650867  0.08236187372178215  0.6114350660645163  1.0000
  N   N5        1.0  0.18777217217944675  0.15323080350862736  0.6315306617511407  1.0000
  H   H18       1.0  0.918410392810366  0.5806051515868487  0.24622410733100364  1.0000
  H   H19       1.0  0.07627539231183977  0.3548950265434656  0.17370850686512912  1.0000
  H   H20       1.0  0.18124720546155237  0.22944856353684773  0.053241786373292126  1.0000
  H   H21       1.0  0.06227634617684363  0.32906314461626246  0.6435289949203175  1.0000
  H   H22       1.0  0.8742352765371019  0.48431698250823696  0.5418088829535108  1.0000
  H   H23       1.0  0.36146011554702256  0.024160045685731622  0.7549310633766744  1.0000
  H   H24       1.0  0.27301072628454603  0.03864764473916549  0.5126921653805843  1.0000
  H   H25       1.0  0.14064044510372953  0.17395444719414213  0.5560144300296224  1.0000
  Zn  Zn1       1.0  0.914377093096811  0.41346419808618734  0.40358091912045463  1.0000
  Zn  Zn2       1.0  0.09694004205571338  0.4094301634242179  0.40281428933348296  1.0000
  C   C30       1.0  0.0047662430204105126  0.40422686221730286  0.6668218275057101  1.0000
  C   C31       1.0  0.006552885135190371  0.41866909262972585  0.13957351362108494  1.0000
  C   C32       1.0  0.00566363009728921  0.6486652965458526  0.3973559226585188  1.0000
  C   C33       1.0  0.005655435594289935  0.1742290989024533  0.40903949627637215  1.0000
  O   O2        1.0  0.07565056171952911  0.41845146179186826  0.19305866186793685  1.0000
  O   O3        1.0  0.07422962194551186  0.4013817776706863  0.6127544098643372  1.0000
  O   O4        1.0  0.07495333431482898  0.598768913718488  0.3951587885923624  1.0000
  O   O5        1.0  0.0749267874206121  0.22106433725056318  0.41065417517443037  1.0000
  O   O6        1.0  0.9363902854321638  0.6018300256379328  0.3957410335335274  1.0000
  O   O7        1.0  0.9356665732271193  0.40444445036694426  0.6133365772514259  1.0000
  O   O8        1.0  0.9370875189492497  0.42151410271157413  0.1936390939098218  1.0000
  O   O9        1.0  0.9363637442801839  0.22412696804186255  0.411234715435817  1.0000
