data_image0
_chemical_formula_structural       NC9NC5H8C12SCH12C15H12Zn2C4O8
_chemical_formula_sum              "N2 C46 H32 S1 Zn2 O8"
_cell_length_a       17.807436237873137
_cell_length_b       10.299776766347529
_cell_length_c       10.299157797200024
_cell_angle_alpha    85.54587523225568
_cell_angle_beta     89.41431720980769
_cell_angle_gamma    88.37162683502939

_space_group_name_H-M_alt    "P 1"
_space_group_IT_number       1

loop_
  _space_group_symop_operation_xyz
  'x, y, z'

loop_
  _atom_site_type_symbol
  _atom_site_label
  _atom_site_symmetry_multiplicity
  _atom_site_fract_x
  _atom_site_fract_y
  _atom_site_fract_z
  _atom_site_occupancy
  N   N1        1.0  0.7068244894623426  0.38817839580112706  0.5570756989006374  1.0000
  C   C1        1.0  0.6462409908874529  0.3529920272751823  0.546050357360659  1.0000
  C   C2        1.0  0.5708817773450806  0.30922405975955436  0.5323360296049782  1.0000
  C   C3        1.0  0.5527797185168052  0.23784025738952572  0.42732545263833116  1.0000
  C   C4        1.0  0.47960981240744643  0.1952334622271903  0.4139270885867434  1.0000
  C   C5        1.0  0.4234933094250113  0.22363295041900222  0.5055068396060114  1.0000
  C   C6        1.0  0.3457325584514429  0.17846779239511787  0.4913499301259427  1.0000
  C   C7        1.0  0.283546914607803  0.2602160614559841  0.5172921698890283  1.0000
  C   C8        1.0  0.2102347445057731  0.21740622471492688  0.5039074832714496  1.0000
  C   C9        1.0  0.1469985934417886  0.3018457307477431  0.5302137067545372  1.0000
  N   N2        1.0  0.096169717199997  0.3697292514126018  0.5513631837757407  1.0000
  C   C10       1.0  0.19852471558553442  0.0925901471684274  0.46455519995045264  1.0000
  C   C11       1.0  0.2598529902711409  0.010828028330591485  0.4386045696913978  1.0000
  C   C12       1.0  0.3330457555932744  0.053243385033606705  0.4517866973258198  1.0000
  C   C13       1.0  0.4422867307632228  0.2955110529567424  0.6107366699931098  1.0000
  C   C14       1.0  0.5155095081508098  0.33792750029448904  0.6239793699438694  1.0000
  H   H1        1.0  0.5951624824256018  0.2153763072633943  0.355607993345638  1.0000
  H   H2        1.0  0.4666883507681013  0.14157586637049938  0.33100058275090816  1.0000
  H   H3        1.0  0.29203283594158536  0.3576721193726794  0.5461730420902466  1.0000
  H   H4        1.0  0.14206360567923446  0.05855733228891812  0.4539589484658004  1.0000
  H   H5        1.0  0.2506682982985652  0.914192422493178  0.4085232338039959  1.0000
  H   H6        1.0  0.37969447418103225  0.9875041801279908  0.4327357365619595  1.0000
  H   H7        1.0  0.4006212423242857  0.3174355725212119  0.6837486917655289  1.0000
  H   H8        1.0  0.5289588550619381  0.3928059862604085  0.7058642147163445  1.0000
  C   C15       1.0  0.90157152706799  0.997585174538626  0.5542167766090622  1.0000
  C   C16       1.0  0.9061171487441183  0.9857692042008418  0.6906714433162029  1.0000
  C   C17       1.0  0.908348121568709  0.862646762800779  0.759820529165961  1.0000
  C   C18       1.0  0.9059734992135711  0.7504882303273602  0.6906887421019612  1.0000
  C   C19       1.0  0.9014298838212775  0.7603121582997959  0.5542332965355474  1.0000
  C   C20       1.0  0.8992539091302656  0.884298076306451  0.4867611594441532  1.0000
  C   C21       1.0  0.9131485972210064  0.8512110978514137  0.9041742917108262  1.0000
  C   C22       1.0  0.870168987702054  0.7597662079857517  0.9788516271500229  1.0000
  C   C23       1.0  0.8747093591805948  0.7492372966978219  0.11470174877480832  1.0000
  C   C24       1.0  0.9220424412113946  0.829883049518071  0.1776840482486809  1.0000
  C   C25       1.0  0.9652016460474692  0.9207452521329813  0.10437721770735908  1.0000
  C   C26       1.0  0.9607714330189386  0.9316188352894469  0.9685150642652929  1.0000
  S   S1        1.0  0.9279512079756741  0.8159085444591693  0.35199722920833776  1.0000
  C   C27       1.0  0.8524630266906581  0.9355418206112274  0.372634574230182  1.0000
  H   H9        1.0  0.8998689949470987  0.3295396770547052  0.5022209207578208  1.0000
  H   H10       1.0  0.9068971416091703  0.0725482685965306  0.7436212267738278  1.0000
  H   H11       1.0  0.9087123044615213  0.6553297245510429  0.7434136387718231  1.0000
  H   H12       1.0  0.8957476689380126  0.8926450823854497  0.38149217857440143  1.0000
  H   H13       1.0  0.8996610541446762  0.43660352684373743  0.5022430794209476  1.0000
  H   H14       1.0  0.8323396812805415  0.6976080641996322  0.9322899538457855  1.0000
  H   H15       1.0  0.8411336184749271  0.6787501684581222  0.17091891600141418  1.0000
  H   H16       1.0  0.0022317450811597532  0.9829966904933077  0.1525396383911356  1.0000
  H   H17       1.0  0.9952956848694556  0.0016916661422974391  0.9136971004695492  1.0000
  H   H18       1.0  0.8674912430102617  0.03117330130586526  0.32353374970241877  1.0000
  H   H19       1.0  0.8437818180364273  0.9466026618367377  0.4780469792513001  1.0000
  H   H20       1.0  0.7995892091090452  0.90252670883321  0.33128594702823855  1.0000
  C   C28       1.0  0.9014135694357795  0.3790590483311642  0.17283427878478386  1.0000
  C   C29       1.0  0.8231665772345323  0.3647875993284599  0.17415713946562406  1.0000
  C   C30       1.0  0.7836539222506513  0.35743494727310643  0.05768318447981868  1.0000
  C   C31       1.0  0.823389832510235  0.3645682907607751  0.9388865652890206  1.0000
  C   C32       1.0  0.9015877899532317  0.37883826859551833  0.9356157407471701  1.0000
  C   C33       1.0  0.9401430335864376  0.3859945579469683  0.05312658244853785  1.0000
  C   C34       1.0  0.7009293275203778  0.34235218570258885  0.0601280430228992  1.0000
  C   C35       1.0  0.6671414286541351  0.2569751107582732  0.9795150921353185  1.0000
  C   C36       1.0  0.5892941018632623  0.24287464890677904  0.9818480675849277  1.0000
  C   C37       1.0  0.5438482585695952  0.31320788882020567  0.0653462215668319  1.0000
  C   C38       1.0  0.5772339440779216  0.39944956088144457  0.14498837439962498  1.0000
  C   C39       1.0  0.6550805126131612  0.41355425697522635  0.14280336088181733  1.0000
  C   C40       1.0  0.4599842384529832  0.3003668015033154  0.06551339823108249  1.0000
  C   C41       1.0  0.42617975470598574  0.39573507853401385  0.9686002451482141  1.0000
  C   C42       1.0  0.398397500349593  0.47415563034214014  0.8889106242497288  1.0000
  H   H21       1.0  0.04916058239016974  0.40519812374829  0.37769121547862516  1.0000
  H   H22       1.0  0.7929503021407047  0.3575946284181763  0.266138043136088  1.0000
  H   H23       1.0  0.7930648170218648  0.36076726380881774  0.8486990902362073  1.0000
  H   H24       1.0  0.0004594855160033864  0.3969976424938983  0.05131943021738116  1.0000
  H   H25       1.0  0.9316684379402924  0.3842853974211682  0.6068852614718807  1.0000
  H   H26       1.0  0.7010099721620586  0.20000523178415947  0.915645032873896  1.0000
  H   H27       1.0  0.5644336462297919  0.1768976662218939  0.9186524187766838  1.0000
  H   H28       1.0  0.5429267315541209  0.45613105084029115  0.20851986469204653  1.0000
  H   H29       1.0  0.6793278197381889  0.48166749935165293  0.2043668047562952  1.0000
  H   H30       1.0  0.4450091224927669  0.20083725255295004  0.042285963559380635  1.0000
  H   H31       1.0  0.4360669982062982  0.3169448921158651  0.16308592149490297  1.0000
  H   H32       1.0  0.37402811316501017  0.5430051414696941  0.8189501042172113  1.0000
  Zn  Zn1       1.0  0.8191811130341423  0.3828509037980342  0.5554347015800727  1.0000
  Zn  Zn2       1.0  0.9838130798363431  0.3750461541634404  0.5530148580904732  1.0000
  C   C43       1.0  0.9015541640929791  0.37370642726353664  0.7914336494661098  1.0000
  C   C44       1.0  0.9014418262782296  0.3841921840511706  0.3170160112890126  1.0000
  C   C45       1.0  0.9014515881190859  0.6161422107273711  0.5490547449406726  1.0000
  C   C46       1.0  0.9015443463803652  0.14175484292968063  0.5593949858490168  1.0000
  O   O1        1.0  0.9639282839997609  0.3829473837439745  0.36448639971808916  1.0000
  O   O2        1.0  0.9640195599464778  0.36902662357448535  0.7421262819311663  1.0000
  O   O3        1.0  0.9639358866393174  0.5647966242769591  0.5464036140646673  1.0000
  O   O4        1.0  0.9640119011052124  0.18717739502312747  0.5602089710302753  1.0000
  O   O5        1.0  0.8389822355844607  0.570719665603141  0.5482405894592133  1.0000
  O   O6        1.0  0.8390659085825662  0.37495122522311686  0.7439631881100872  1.0000
  O   O7        1.0  0.8389746323375198  0.38887194058623015  0.3663217444052258  1.0000
  O   O8        1.0  0.8390582494638679  0.19310194254855048  0.5620444130906668  1.0000
