data_image0
_chemical_formula_structural       NC8NC6H8C10IC2H7C10OH6Zn2C4O8
_chemical_formula_sum              "N2 C40 H21 I1 O9 Zn2"
_cell_length_a       17.457602349358154
_cell_length_b       10.299770258652044
_cell_length_c       10.298964903136532
_cell_angle_alpha    85.56166494910488
_cell_angle_beta     92.87248841423785
_cell_angle_gamma    91.70636658755173

_space_group_name_H-M_alt    "P 1"
_space_group_IT_number       1

loop_
  _space_group_symop_operation_xyz
  'x, y, z'

loop_
  _atom_site_type_symbol
  _atom_site_label
  _atom_site_symmetry_multiplicity
  _atom_site_fract_x
  _atom_site_fract_y
  _atom_site_fract_z
  _atom_site_occupancy
  N   N1        1.0  0.7227489972287784  0.45283508657513183  0.6264842661228005  1.0000
  C   C1        1.0  0.6616627339759956  0.4069103095989375  0.6158661847311846  1.0000
  C   C2        1.0  0.5856688402020176  0.3497856012863596  0.6026668341957366  1.0000
  C   C3        1.0  0.5271451744696374  0.3899464357565259  0.6775702654686726  1.0000
  C   C4        1.0  0.4525897432557882  0.3349399686836369  0.6649854687324951  1.0000
  C   C5        1.0  0.3904754499488353  0.37734389267403845  0.7443110383765403  1.0000
  C   C6        1.0  0.3159342605335917  0.39581270001102453  0.688545099263697  1.0000
  C   C7        1.0  0.25741055327194273  0.43578960931035926  0.7635564832434498  1.0000
  C   C8        1.0  0.1814314017840308  0.45486428675220103  0.7055749817462533  1.0000
  N   N2        1.0  0.12035707928032272  0.4701939477636594  0.6589580053543156  1.0000
  C   C9        1.0  0.272935900819233  0.45754084603602857  0.8948423618607115  1.0000
  C   C10       1.0  0.34669244624740747  0.43946101877149796  0.950995935801499  1.0000
  C   C11       1.0  0.4052045665246477  0.3996641580289284  0.8764423057827678  1.0000
  C   C12       1.0  0.43784654589860994  0.23909526657469302  0.5760642144577612  1.0000
  C   C13       1.0  0.4963585321582206  0.19921310617306442  0.5015608196851147  1.0000
  C   C14       1.0  0.5701291995551312  0.25433194268850023  0.5146956014650199  1.0000
  H   H1        1.0  0.5395011111148027  0.4651395731985097  0.7442076069104929  1.0000
  H   H2        1.0  0.3035900319199587  0.3808435251363486  0.5865143058841948  1.0000
  H   H3        1.0  0.2280787013054924  0.4884228185389214  0.95368269134414  1.0000
  H   H4        1.0  0.3585232723269381  0.45598784633215406  0.05265350734804409  1.0000
  H   H5        1.0  0.4616857073222576  0.3846720089486062  0.9225507775453565  1.0000
  H   H6        1.0  0.3813536737306693  0.1937601537896389  0.5654100367429014  1.0000
  H   H7        1.0  0.4845166593585764  0.12513643380115225  0.4337251323901894  1.0000
  H   H8        1.0  0.6149862600242172  0.22258027361115196  0.45636639236211374  1.0000
  C   C15       1.0  0.9214844034314987  0.08014625025627486  0.6427124331525538  1.0000
  C   C16       1.0  0.9271830787941041  0.08995686287578075  0.5067740674731491  1.0000
  C   C17       1.0  0.930144164088239  0.97779190375416  0.4379081594965753  1.0000
  C   C18       1.0  0.9273292435011498  0.8546754492999944  0.5068036223558263  1.0000
  C   C19       1.0  0.9216289930631848  0.8428730550103208  0.6427416913759187  1.0000
  C   C20       1.0  0.9187389148014321  0.9561668492484916  0.7099349558873436  1.0000
  C   C21       1.0  0.9361733409756343  0.9892240680185569  0.29409856782862653  1.0000
  C   C22       1.0  0.9852691348343656  0.9085317901480658  0.2341579041112618  1.0000
  C   C23       1.0  0.9908666088853543  0.9195003974061542  0.09878679627304289  1.0000
  C   C24       1.0  0.9475914697135674  0.010874318175791762  0.021730119245755294  1.0000
  I   I1        1.0  0.9561507409959781  0.027104071780038815  0.817549123480509  1.0000
  C   C25       1.0  0.8986365551782979  0.0914784687769501  0.08016342322519687  1.0000
  C   C26       1.0  0.8928853441626998  0.08092849702414862  0.2155034441779531  1.0000
  H   H9        1.0  0.930390652915668  0.185106662999579  0.4543418769737255  1.0000
  H   H10       1.0  0.9285353045600534  0.7678941232745007  0.45396734418320417  1.0000
  H   H11       1.0  0.9143419507667829  0.9478301490709418  0.8148050392534223  1.0000
  H   H12       1.0  0.020045606037961013  0.8381831927735874  0.2920801054953557  1.0000
  H   H13       1.0  0.028999785488434737  0.8571579505335917  0.053901429557358105  1.0000
  H   H14       1.0  0.8648752223114565  0.16211059373368908  0.02076087530819626  1.0000
  H   H15       1.0  0.8538770089794714  0.14325316288816148  0.2585268504989717  1.0000
  C   C27       1.0  0.9215702072081937  0.46151254399802916  0.2613370740692811  1.0000
  C   C28       1.0  0.001774061954979315  0.4783889618223438  0.2658878099287043  1.0000
  C   C29       1.0  0.04241074962634351  0.4869393660096585  0.15092457834202566  1.0000
  C   C30       1.0  0.0017161552294113686  0.47837641690253585  0.03063505197433947  1.0000
  C   C31       1.0  0.9215431873887369  0.4615068073071549  0.024116983786478533  1.0000
  C   C32       1.0  0.8819200843166798  0.4531694039431415  0.14000765088825218  1.0000
  C   C33       1.0  0.12708594970861964  0.5047559560026609  0.15406386922831006  1.0000
  C   C34       1.0  0.17610748231318613  0.5150706071266402  0.2631194537413397  1.0000
  C   C35       1.0  0.24883861389092116  0.5303734020435162  0.21709631872850668  1.0000
  C   C36       1.0  0.24023659700824562  0.5285632888388389  0.0834846551718893  1.0000
  O   O1        1.0  0.16732200165283584  0.5132216993563026  0.049002378789595014  1.0000
  H   H16       1.0  0.032258792946605164  0.48480374523037834  0.3592220588808186  1.0000
  H   H17       1.0  0.03268707992703025  0.48489294314348397  0.9417201447815656  1.0000
  H   H18       1.0  0.8200684128721698  0.44015456978624035  0.13576590398277477  1.0000
  H   H19       1.0  0.16168893671065865  0.5120366700761732  0.3641803914614843  1.0000
  H   H20       1.0  0.30197299823535256  0.5415531854777167  0.2742979552318976  1.0000
  H   H21       1.0  0.28598069230634215  0.538187903428522  0.016050472757958675  1.0000
  Zn  Zn1       1.0  0.8374901000080599  0.45784099618766233  0.6358629845427903  1.0000
  Zn  Zn2       1.0  0.0056159598559906284  0.46517739026516386  0.6495899196408608  1.0000
  C   C37       1.0  0.9215456103309652  0.4563341292749372  0.8799349445172893  1.0000
  C   C38       1.0  0.9215622857683854  0.46668597590752336  0.40551823710036433  1.0000
  C   C39       1.0  0.9215979043807515  0.6987013412944496  0.6375603620568229  1.0000
  C   C40       1.0  0.921509934050738  0.22431720108358805  0.6478928840594349  1.0000
  O   O2        1.0  0.9853625138037103  0.4712006845008336  0.4591160526388141  1.0000
  O   O3        1.0  0.9853490195801311  0.4573865943154709  0.836755181194384  1.0000
  O   O4        1.0  0.9853903875454221  0.6531011456314636  0.6410359208440555  1.0000
  O   O5        1.0  0.9853210884736613  0.27548613997237037  0.6548352109253803  1.0000
  O   O6        1.0  0.8577849140172851  0.6475322439783182  0.63061768856711  1.0000
  O   O7        1.0  0.8577435463467513  0.45181925296461006  0.8263368797276731  1.0000
  O   O8        1.0  0.857757040668066  0.4656332979080781  0.44869618968761826  1.0000
  O   O9        1.0  0.8577156153296714  0.26991874408994754  0.6444154453467861  1.0000
