data_image0
_chemical_formula_structural       NC9NC5H8C6BrH5C6OCH7Zn2C4O8
_chemical_formula_sum              "N2 C31 H20 Br1 O9 Zn2"
_cell_length_a       17.807436237873137
_cell_length_b       10.302969083221269
_cell_length_c       9.273891588657152
_cell_angle_alpha    86.0762880013574
_cell_angle_beta     89.08663702953788
_cell_angle_gamma    88.39001038669201

_space_group_name_H-M_alt    "P 1"
_space_group_IT_number       1

loop_
  _space_group_symop_operation_xyz
  'x, y, z'

loop_
  _atom_site_type_symbol
  _atom_site_label
  _atom_site_symmetry_multiplicity
  _atom_site_fract_x
  _atom_site_fract_y
  _atom_site_fract_z
  _atom_site_occupancy
  N   N1        1.0  0.7120685088509727  0.37409053055838315  0.39850350539220747  1.0000
  C   C1        1.0  0.6515165698672729  0.3388110534769644  0.38626762295802797  1.0000
  C   C2        1.0  0.5761966130397486  0.29492726901067745  0.37104751376791234  1.0000
  C   C3        1.0  0.5584441550734689  0.22257293398662004  0.25450081031361504  1.0000
  C   C4        1.0  0.48531262964118116  0.17985294166912943  0.23963135276442626  1.0000
  C   C5        1.0  0.4288849484920474  0.2091095781720398  0.34127257918685006  1.0000
  C   C6        1.0  0.3511647239428532  0.1638248607662844  0.3255612941009347  1.0000
  C   C7        1.0  0.2889046274845944  0.2457925423804392  0.3543519190714042  1.0000
  C   C8        1.0  0.2156307530656963  0.20286970229809032  0.3394976466369046  1.0000
  C   C9        1.0  0.1523193917476808  0.28753120915882513  0.368692182472935  1.0000
  N   N2        1.0  0.101430047886978  0.3555932134710822  0.39216378292644216  1.0000
  C   C10       1.0  0.20403351212563425  0.07772105091963577  0.2958246124655082  1.0000
  C   C11       1.0  0.26543626584567637  0.9957394445674125  0.26702467544246744  1.0000
  C   C12       1.0  0.3385913621249055  0.03826601402598628  0.28165414260455846  1.0000
  C   C13       1.0  0.44732810318968774  0.281960130159546  0.45806261421451894  1.0000
  C   C14       1.0  0.5205130024281974  0.3244883628009383  0.4727593089409228  1.0000
  H   H1        1.0  0.6010705656074393  0.19943780939445777  0.17490406602526765  1.0000
  H   H2        1.0  0.4726677509836866  0.12542805787719757  0.14759474048023513  1.0000
  H   H3        1.0  0.297308860685163  0.34349082030681455  0.3864036745708834  1.0000
  H   H4        1.0  0.1476026934465993  0.043598819650098486  0.28406493776155917  1.0000
  H   H5        1.0  0.256337562697421  0.8988500042687694  0.23364053768032012  1.0000
  H   H6        1.0  0.3852936953458442  0.9723674926058987  0.2605115773872211  1.0000
  H   H7        1.0  0.4054143944965488  0.30456823942413025  0.5390961717166733  1.0000
  H   H8        1.0  0.5336895927165052  0.3801238970963971  0.5636397800794493  1.0000
  C   C15       1.0  0.9067528414334669  0.9835942572941185  0.3953398850029526  1.0000
  C   C16       1.0  0.9845743627238622  0.9771807453240038  0.4183646157030283  1.0000
  C   C17       1.0  0.023178026509867996  0.8570614459884358  0.4297859344799422  1.0000
  C   C18       1.0  0.984574422508927  0.7420983806640321  0.4183643412276623  1.0000
  C   C19       1.0  0.9067528532625125  0.7460792733134896  0.39533978925039825  1.0000
  C   C20       1.0  0.868217890686265  0.8674102909278578  0.38393867424607553  1.0000
  Br  Br1       1.0  0.12902869038267428  0.8499923241797706  0.461103922135351  1.0000
  H   H9        1.0  0.8774615745635794  0.3133099022648389  0.38667294582773604  1.0000
  H   H10       1.0  0.01555363835741375  0.06511114215361126  0.4275304842732417  1.0000
  H   H11       1.0  0.015553728651569218  0.6500301984528785  0.42752983351684337  1.0000
  H   H12       1.0  0.8081989400061295  0.8714185449014568  0.3661813091030526  1.0000
  H   H13       1.0  0.8774613532081281  0.4202759378614914  0.38667507936412426  1.0000
  C   C21       1.0  0.907983648055675  0.3613399141317919  0.972044470492536  1.0000
  C   C22       1.0  0.9695106385141987  0.4132530489727122  0.03961636940192425  1.0000
  C   C23       1.0  0.026776017862951917  0.4750631211338063  0.9588742096996188  1.0000
  C   C24       1.0  0.022719181314356574  0.4852756457874316  0.8074996500186433  1.0000
  C   C25       1.0  0.962770612060419  0.4325014216759442  0.7385598531275575  1.0000
  C   C26       1.0  0.9055220308710179  0.36833358637766606  0.8186351909626581  1.0000
  O   O1        1.0  0.08625122286009557  0.5254752584694082  0.03311242412259485  1.0000
  C   C27       1.0  0.14811942059911787  0.5908616919655296  0.9650286945541494  1.0000
  H   H14       1.0  0.7292794184736153  0.29009041273677005  0.08597141769980166  1.0000
  H   H15       1.0  0.06599837038043918  0.5327952768948734  0.7418728279054193  1.0000
  H   H16       1.0  0.9621643969995064  0.4392213406649356  0.6214885467364621  1.0000
  H   H17       1.0  0.7863500249669348  0.3151634186106269  0.5451329326089764  1.0000
  H   H18       1.0  0.12795208736380337  0.6796750358430367  0.9009614750998534  1.0000
  H   H19       1.0  0.17944576899286813  0.5249403689829573  0.8941059720799673  1.0000
  H   H20       1.0  0.18657811795083945  0.6200667380121501  0.04924604360726259  1.0000
  Zn  Zn1       1.0  0.8244298129118545  0.3687492090962974  0.39668233493892796  1.0000
  Zn  Zn2       1.0  0.9890686911718705  0.36092405002555195  0.39399680374482027  1.0000
  C   C28       1.0  0.9059856655825584  0.3618397185422828  0.6586114631906193  1.0000
  C   C29       1.0  0.9075146359412501  0.36783509439577133  0.1320677876467251  1.0000
  C   C30       1.0  0.90676568667592  0.6019061195565205  0.3895957652128539  1.0000
  C   C31       1.0  0.9067345584446659  0.12776713688072072  0.4010835633915493  1.0000
  O   O2        1.0  0.9698368274680258  0.3670396652026484  0.1847539296229619  1.0000
  O   O3        1.0  0.9686205743773127  0.35669505022407755  0.6038866502316758  1.0000
  O   O4        1.0  0.9692496046619586  0.5505517575107661  0.38665458452254553  1.0000
  O   O5        1.0  0.9692077413175426  0.17318296898056992  0.4019858881687588  1.0000
  O   O6        1.0  0.8442907065830357  0.5564902928129731  0.3886932514238468  1.0000
  O   O7        1.0  0.8436616765184662  0.3626351446987901  0.6059252402747759  1.0000
  O   O8        1.0  0.8448779346982894  0.3729797001165853  0.18679078660925796  1.0000
  O   O9        1.0  0.8442488482304964  0.17912299550158983  0.40402285322724607  1.0000
