data_image0
_chemical_formula_structural       NC10NC3NH7C7OC3NC3H11C7OC4NC2H9Zn2C4O8
_chemical_formula_sum              "N5 C43 H27 O10 Zn2"
_cell_length_a       19.210446455230148
_cell_length_b       10.298746005989749
_cell_length_c       10.299375074045738
_cell_angle_alpha    85.54279281073399
_cell_angle_beta     89.98394630169429
_cell_angle_gamma    89.95621662588982

_space_group_name_H-M_alt    "P 1"
_space_group_IT_number       1

loop_
  _space_group_symop_operation_xyz
  'x, y, z'

loop_
  _atom_site_type_symbol
  _atom_site_label
  _atom_site_symmetry_multiplicity
  _atom_site_fract_x
  _atom_site_fract_y
  _atom_site_fract_z
  _atom_site_occupancy
  N   N1        1.0  0.6556777001098795  0.42085586103314304  0.567410282308664  1.0000
  C   C1        1.0  0.5954491497614741  0.42306344032843807  0.567641676921827  1.0000
  C   C2        1.0  0.5206447089566052  0.4258004344905266  0.5679283461974162  1.0000
  C   C3        1.0  0.4850335826201145  0.5420331291387817  0.5830532274801239  1.0000
  C   C4        1.0  0.4123681055803926  0.5421846979655454  0.5830006441413664  1.0000
  C   C5        1.0  0.375477952927215  0.42650941694249106  0.56801490899798  1.0000
  C   C6        1.0  0.2981558274747065  0.42515290534319217  0.567864165245864  1.0000
  C   C7        1.0  0.2604044450440149  0.5287560308752242  0.5045108326866381  1.0000
  C   C8        1.0  0.1876260916717402  0.5273537443584884  0.5044016035193681  1.0000
  C   C9        1.0  0.1515977122739784  0.42260588059018067  0.5675947355652391  1.0000
  C   C10       1.0  0.0766681956045361  0.42130376138327685  0.5674577615099509  1.0000
  N   N2        1.0  0.0164303460068181  0.4202568133151369  0.5673476692421139  1.0000
  C   C11       1.0  0.18862543846845392  0.31912846641702086  0.6309230720879304  1.0000
  C   C12       1.0  0.2614056382163252  0.32025644551532323  0.6310825198114354  1.0000
  C   C13       1.0  0.4136989325385192  0.31209699182005646  0.5531783994717445  1.0000
  N   N3        1.0  0.4844688767900056  0.3145420730957764  0.5533442312246959  1.0000
  H   H1        1.0  0.513134184326731  0.6314682351708967  0.595111742655229  1.0000
  H   H2        1.0  0.3850988348732231  0.6322011523507738  0.596454003223774  1.0000
  H   H3        1.0  0.2871336980260265  0.6100355116885163  0.45352678515941236  1.0000
  H   H4        1.0  0.1594816005513849  0.6078049295965449  0.4547479162060307  1.0000
  H   H5        1.0  0.1612566008307846  0.23771385615539598  0.6804771673611736  1.0000
  H   H6        1.0  0.2889052018942062  0.23992387933187032  0.6821740061040642  1.0000
  H   H7        1.0  0.3874340103909617  0.22121757425507838  0.5396786989643828  1.0000
  C   C14       1.0  0.8360240853431513  0.039154328350696765  0.5673618120987417  1.0000
  C   C15       1.0  0.8685947254125259  0.04765403494744481  0.4448471576938117  1.0000
  C   C16       1.0  0.8843320780486814  0.9348300097996993  0.38220892246934957  1.0000
  C   C17       1.0  0.8685952503720271  0.812417452710573  0.4447980186039479  1.0000
  C   C18       1.0  0.836090598410112  0.8019483925042593  0.5674073569252169  1.0000
  C   C19       1.0  0.8198437215552496  0.9158828569860784  0.6277568101315072  1.0000
  C   C20       1.0  0.9193179968351497  0.9436129238803265  0.25338234216845174  1.0000
  O   O1        1.0  0.961821167335709  0.855574171904053  0.2281617356810219  1.0000
  C   C21       1.0  0.9060882254844688  0.052211471509338025  0.15317506737022657  1.0000
  C   C22       1.0  0.8401759427134216  0.11171770894412836  0.14107859082296703  1.0000
  C   C23       1.0  0.8279841157714812  0.21344623454547818  0.045170200488315645  1.0000
  N   N4        1.0  0.7609574789013288  0.2737961661236179  0.03397732843719003  1.0000
  C   C24       1.0  0.8817477105064074  0.2552765377234296  0.9600234198271349  1.0000
  C   C25       1.0  0.9470247138253438  0.19560731167511003  0.9702638636801646  1.0000
  C   C26       1.0  0.9591624149598821  0.09430346816546997  0.06586804377937039  1.0000
  H   H8        1.0  0.7754468757486757  0.23038730560434506  0.7997168580285898  1.0000
  H   H9        1.0  0.8824403549580364  0.14216578963279436  0.3986211809384512  1.0000
  H   H10       1.0  0.8811524054988831  0.7252235429743384  0.39709612660366317  1.0000
  H   H11       1.0  0.7947410698460929  0.9085790347295498  0.7221953168111019  1.0000
  H   H12       1.0  0.7749349461011643  0.5748485432622297  0.7992739587612645  1.0000
  H   H13       1.0  0.7980174401529417  0.07835878107501659  0.2050509795531994  1.0000
  H   H14       1.0  0.7205088555677339  0.24338483736537886  0.09693791999625367  1.0000
  H   H15       1.0  0.7513051354321665  0.34945521172583893  0.9627378824959262  1.0000
  H   H16       1.0  0.8729798926689682  0.3336715684352751  0.8855349528112908  1.0000
  H   H17       1.0  0.9883304736900796  0.22793295412445952  0.9039592237834108  1.0000
  H   H18       1.0  0.010214579846210324  0.04957423213049927  0.07238698688625922  1.0000
  C   C27       1.0  0.8360810214147991  0.4206936782174393  0.18599783507358286  1.0000
  C   C28       1.0  0.8896703114052285  0.513723513988233  0.17755059343370913  1.0000
  C   C29       1.0  0.9161585754987175  0.5617264041142305  0.05603276569654002  1.0000
  C   C30       1.0  0.8895575872937417  0.5134859453672576  0.942325282585168  1.0000
  C   C31       1.0  0.8360336495546742  0.42040904841726  0.9487713823542774  1.0000
  C   C32       1.0  0.8094802885769155  0.3748030274341021  0.07108563862605521  1.0000
  C   C33       1.0  0.9732449075716045  0.658958717637635  0.047051123763696134  1.0000
  O   O2        1.0  0.017728071083125577  0.6541994397292179  0.9574081874746327  1.0000
  C   C34       1.0  0.979857530205751  0.7616019295340839  0.1396826080810014  1.0000
  C   C35       1.0  0.0460564353312054  0.8080569721619085  0.17143045802058543  1.0000
  C   C36       1.0  0.05281032556967103  0.9060658728671389  0.2576518749945637  1.0000
  C   C37       1.0  0.12079158691372306  0.9523086099902588  0.290430512066042  1.0000
  N   N5        1.0  0.1754408618479637  0.9894769434003557  0.31677708175439734  1.0000
  C   C38       1.0  0.9933718553255297  0.9590201186502016  0.31185877908869264  1.0000
  C   C39       1.0  0.920512710740703  0.8168378478650065  0.1936642377606448  1.0000
  H   H19       1.0  0.7356836627841618  0.2436705037396882  0.4093734427060194  1.0000
  H   H20       1.0  0.9114053118774837  0.5478916320950982  0.2657321146098199  1.0000
  H   H21       1.0  0.910280450641074  0.5496904639086437  0.848578690308157  1.0000
  H   H22       1.0  0.7681670929252364  0.30308315183064183  0.07679402581845252  1.0000
  H   H23       1.0  0.8158735072570229  0.38385267634225717  0.6238525818011377  1.0000
  H   H24       1.0  0.09232940851381623  0.7672565680671191  0.13003933112803168  1.0000
  H   H25       1.0  0.9980220310264316  0.03489681937491574  0.3785416983355078  1.0000
  H   H26       1.0  0.881478931010705  0.9563551202622746  0.3208523622865632  1.0000
  H   H27       1.0  0.8688063978054296  0.785527503117073  0.16836802092346612  1.0000
  Zn  Zn1       1.0  0.7597831194224438  0.420679521649073  0.5673997127413077  1.0000
  Zn  Zn2       1.0  0.9123249091710347  0.42042256526392086  0.5673688744521599  1.0000
  C   C40       1.0  0.836040617038183  0.41528870307672516  0.8045905121542538  1.0000
  C   C41       1.0  0.836069077441899  0.4258150197445403  0.33017820227275235  1.0000
  C   C42       1.0  0.8360747723051042  0.6577659978502847  0.5622233462717012  1.0000
  C   C43       1.0  0.8360348699827438  0.18333616459482457  0.5725454373144978  1.0000
  O   O3        1.0  0.8939538826727059  0.4274306089028983  0.3785547473002727  1.0000
  O   O4        1.0  0.8939315005875628  0.4134771102995914  0.756190187656775  1.0000
  O   O5        1.0  0.8939583009448197  0.6092805931837333  0.5604769866571273  1.0000
  O   O6        1.0  0.8939270302701243  0.23162713543380775  0.5742678509317748  1.0000
  O   O7        1.0  0.7781809462683283  0.6094749515682898  0.560500736265385  1.0000
  O   O8        1.0  0.7781541460482796  0.4136730291494073  0.7562138681095327  1.0000
  O   O9        1.0  0.7781765282727013  0.4276264830754625  0.37857686627658427  1.0000
  O   O10       1.0  0.7781496758604184  0.23182300028042382  0.5742900672799238  1.0000
