data_image0
_chemical_formula_structural       NC12NC2H8C7OC3FC3H9C7OC6OCH12Zn2C4O8
_chemical_formula_sum              "N2 C45 H29 O11 F1 Zn2"
_cell_length_a       19.240039667572717
_cell_length_b       10.299378350833068
_cell_length_c       10.299362532796527
_cell_angle_alpha    85.57000454149363
_cell_angle_beta     90.01509071760941
_cell_angle_gamma    90.01886762376958

_space_group_name_H-M_alt    "P 1"
_space_group_IT_number       1

loop_
  _space_group_symop_operation_xyz
  'x, y, z'

loop_
  _atom_site_type_symbol
  _atom_site_label
  _atom_site_symmetry_multiplicity
  _atom_site_fract_x
  _atom_site_fract_y
  _atom_site_fract_z
  _atom_site_occupancy
  N   N1        1.0  0.6545255944419327  0.42089316849982744  0.5672961246798061  1.0000
  C   C1        1.0  0.5943772256278983  0.42089325245941206  0.567296042733725  1.0000
  C   C2        1.0  0.5195591884880424  0.42089336970783364  0.5672959054164148  1.0000
  C   C3        1.0  0.4830886975330581  0.3564571100309626  0.6707146504980765  1.0000
  C   C4        1.0  0.4104179420943074  0.3563462507116171  0.6708012048511913  1.0000
  C   C5        1.0  0.3732269535349133  0.42089346220703594  0.5672956777255211  1.0000
  C   C6        1.0  0.41041164342313313  0.4854408607561403  0.4637903451180933  1.0000
  C   C7        1.0  0.4830823245238721  0.48532976596514477  0.4638770219978041  1.0000
  C   C8        1.0  0.296021863067962  0.42089338351338507  0.5672955823194437  1.0000
  C   C9        1.0  0.2588199952997179  0.3076407477493237  0.6091787491158067  1.0000
  C   C10       1.0  0.1861493128776037  0.3077476244184066  0.6090874122514158  1.0000
  C   C11       1.0  0.14968957613058675  0.42089325435382763  0.5672956432438316  1.0000
  C   C12       1.0  0.0748715389906582  0.42089314068239414  0.5672958919158724  1.0000
  N   N2        1.0  0.0147232221607604  0.42089309992095614  0.5672961003385357  1.0000
  C   C13       1.0  0.18617735024608875  0.5340389601038027  0.5255038213373178  1.0000
  C   C14       1.0  0.2588480524348057  0.5341460168514969  0.525412321859162  1.0000
  H   H1        1.0  0.510806154282749  0.3065693635064866  0.7514610214202133  1.0000
  H   H2        1.0  0.3833275241385611  0.3072569634087448  0.7526629865355485  1.0000
  H   H3        1.0  0.3833155305883475  0.5345301750969993  0.3819285125825853  1.0000
  H   H4        1.0  0.5107946392584906  0.5352174123073582  0.3831309268806513  1.0000
  H   H5        1.0  0.2859019506895044  0.2184912170736653  0.6403561506380442  1.0000
  H   H6        1.0  0.15842345530756774  0.21949762685492671  0.641297673668233  1.0000
  H   H7        1.0  0.158473384366062  0.6222889331338647  0.4932935744735929  1.0000
  H   H8        1.0  0.28595257586987066  0.6232956266933433  0.4942348755568012  1.0000
  C   C15       1.0  0.8345544983887666  0.03950819563340113  0.567360110688645  1.0000
  C   C16       1.0  0.7620364698361536  0.03951101259958456  0.5513354255275897  1.0000
  C   C17       1.0  0.7253723449702949  0.9222250682347216  0.5447303600722981  1.0000
  C   C18       1.0  0.7622064171398603  0.8042670117410607  0.5513423007105884  1.0000
  C   C19       1.0  0.8347009781556177  0.8022681334234555  0.5672433176220812  1.0000
  C   C20       1.0  0.8704341636936458  0.9204088372172053  0.5755021465462069  1.0000
  C   C21       1.0  0.6488839992588828  0.9221900031603455  0.5264362071586872  1.0000
  O   O1        1.0  0.6220289000341166  0.8374794488680932  0.45977557714484174  1.0000
  C   C22       1.0  0.6028611638737209  0.018154894267074843  0.583774815709406  1.0000
  C   C23       1.0  0.5409401816202069  0.058133770477620354  0.5199943285288542  1.0000
  C   C24       1.0  0.4967976226040201  0.1474069838358552  0.5740549358186771  1.0000
  F   F1        1.0  0.4374863311089771  0.18607825449703078  0.5113358025759838  1.0000
  C   C25       1.0  0.5137308705751732  0.19673957559881594  0.6926593555809297  1.0000
  C   C26       1.0  0.5746542311356058  0.1565087183892251  0.7576543991911244  1.0000
  C   C27       1.0  0.6189405600316837  0.06730723520089432  0.7039985018088828  1.0000
  H   H9        1.0  0.9715256101833605  0.24697697928243678  0.5956045066186701  1.0000
  H   H10       1.0  0.7340701643873309  0.13101978842482034  0.5425223439037878  1.0000
  H   H11       1.0  0.7340688117107411  0.7137965995610571  0.5452900291250649  1.0000
  H   H12       1.0  0.9263401744930922  0.9196026619910739  0.5878552458564661  1.0000
  H   H13       1.0  0.8626153345272878  0.4741280956590151  0.5722557027484703  1.0000
  H   H14       1.0  0.5270794341179991  0.021104082231768517  0.42783646552338866  1.0000
  H   H15       1.0  0.47954062819155235  0.26574024617339  0.7345381091455256  1.0000
  H   H16       1.0  0.5874405126812503  0.19402563444092324  0.8500258314761449  1.0000
  H   H17       1.0  0.6652673213509086  0.035761377522616225  0.7571503662821222  1.0000
  C   C28       1.0  0.8345734804286532  0.4207676126625515  0.18593485025218293  1.0000
  C   C29       1.0  0.7685871329505912  0.3620846987638649  0.18923150338294614  1.0000
  C   C30       1.0  0.7350061115449134  0.33381006844054306  0.0737225269453865  1.0000
  C   C31       1.0  0.7687828905173447  0.3622482629870949  0.9539771784457334  1.0000
  C   C32       1.0  0.834682019776207  0.421008676451607  0.9486685884041117  1.0000
  C   C33       1.0  0.8671400425428788  0.4501849408334281  0.06518627316813186  1.0000
  C   C34       1.0  0.6656793702267353  0.27050991967221494  0.07953504286109814  1.0000
  O   O2        1.0  0.6514642423095808  0.19130021627037233  0.175443736945323  1.0000
  C   C35       1.0  0.6124817256821226  0.2970621901412973  0.9766161759037941  1.0000
  C   C36       1.0  0.6071606769391839  0.42043958781978713  0.9087438864085304  1.0000
  C   C37       1.0  0.5562928636332306  0.4446201493759139  0.8130446049549923  1.0000
  C   C38       1.0  0.5095215659221612  0.3469520235233352  0.7840107584322271  1.0000
  C   C39       1.0  0.5141117270955484  0.22376818803973048  0.852801234434141  1.0000
  C   C40       1.0  0.5649732875643677  0.19946042237553963  0.9485729403761584  1.0000
  O   O3        1.0  0.45949430634189425  0.37611276129634913  0.6870217525760727  1.0000
  C   C41       1.0  0.4088017748325526  0.28634799495141183  0.6476628876066965  1.0000
  H   H18       1.0  0.9592082251244091  0.5310108041304211  0.38702225842795324  1.0000
  H   H19       1.0  0.7428491979981381  0.3393428720991616  0.2817690706133096  1.0000
  H   H20       1.0  0.7439325673064715  0.3371672102903663  0.8649269501453496  1.0000
  H   H21       1.0  0.9179765954820404  0.49551013953882556  0.06182386667877693  1.0000
  H   H22       1.0  0.860078825726929  0.44306756136069314  0.619196009446382  1.0000
  H   H23       1.0  0.6418184258159657  0.49869337434758654  0.9305561044152423  1.0000
  H   H24       1.0  0.5529996680477856  0.5400832805443341  0.7614663522116238  1.0000
  H   H25       1.0  0.478655748965183  0.1462002169462695  0.8330856872800414  1.0000
  H   H26       1.0  0.5675911775837795  0.10381541582114819  3.8028922551005914e-05  1.0000
  H   H27       1.0  0.37616496414650297  0.33504498335258776  0.5695720386146896  1.0000
  H   H28       1.0  0.3748569504250897  0.2541337272842743  0.7312174988072537  1.0000
  H   H29       1.0  0.43469410016514853  0.20102469231881595  0.6090201207069401  1.0000
  Zn  Zn1       1.0  0.7584708586756687  0.4208896837283776  0.5673036065719026  1.0000
  Zn  Zn2       1.0  0.9107779761715712  0.42088599411684957  0.5672992189113977  1.0000
  C   C42       1.0  0.8346589498454601  0.4157892250689341  0.8044963586469633  1.0000
  C   C43       1.0  0.8345915485236247  0.42598809146476024  0.3301065940032615  1.0000
  C   C44       1.0  0.8346689872764292  0.6580886116111553  0.562090245422967  1.0000
  C   C45       1.0  0.8345814588310546  0.1836871445775084  0.5725127767059459  1.0000
  O   O4        1.0  0.8923973685876436  0.42773306567249697  0.3784902840045843  1.0000
  O   O5        1.0  0.8924507075726602  0.4140404706495698  0.756108964818847  1.0000
  O   O6        1.0  0.8924580339488768  0.6097002900220733  0.5603643131426641  1.0000
  O   O7        1.0  0.892389990227254  0.23207325556108832  0.574234838306698  1.0000
  O   O8        1.0  0.7768587926450407  0.6097024222868098  0.5603679871712679  1.0000
  O   O9        1.0  0.77685146655548  0.4140441632620071  0.7561125693634287  1.0000
  O   O10       1.0  0.7767981273858272  0.4277367125335561  0.378492327163817  1.0000
  O   O11       1.0  0.7767907490346655  0.23207689316372337  0.5742369788346662  1.0000
