data_image0
_chemical_formula_structural       NC12NC2H8C6NCSNH8C6NCSNH5Zn2C4O8
_chemical_formula_sum              "N6 C32 H21 S2 Zn2 O8"
_cell_length_a       17.80743265337812
_cell_length_b       9.275078345756787
_cell_length_c       9.275081717742442
_cell_angle_alpha    85.95065814881306
_cell_angle_beta     91.71745222805816
_cell_angle_gamma    90.00966593732542

_space_group_name_H-M_alt    "P 1"
_space_group_IT_number       1

loop_
  _space_group_symop_operation_xyz
  'x, y, z'

loop_
  _atom_site_type_symbol
  _atom_site_label
  _atom_site_symmetry_multiplicity
  _atom_site_fract_x
  _atom_site_fract_y
  _atom_site_fract_z
  _atom_site_occupancy
  N   N1        1.0  0.7129249753132235  0.5468284117309969  0.4434722382912463  1.0000
  C   C1        1.0  0.6621481950505574  0.5788969094457805  0.36714412778873307  1.0000
  C   C2        1.0  0.598976869258414  0.6187878333595773  0.27220156178193533  1.0000
  C   C3        1.0  0.6107802216474546  0.6773833319376934  0.13152143421612328  1.0000
  C   C4        1.0  0.5495120318221894  0.7156308409780889  0.03924242291167747  1.0000
  C   C5        1.0  0.4762864822215885  0.6955681587583042  0.08691041559602189  1.0000
  C   C6        1.0  0.46350653827234584  0.6368458961888099  0.2281104158823262  1.0000
  C   C7        1.0  0.525632032399509  0.5986018182451234  0.3203710938831925  1.0000
  C   C8        1.0  0.3857116607388829  0.6155774912131049  0.2789559869963518  1.0000
  C   C9        1.0  0.36731691459715354  0.6471782621586152  0.4198521954514922  1.0000
  C   C10       1.0  0.2940617329216647  0.6271622018532965  0.46756507037113587  1.0000
  C   C11       1.0  0.23825841683765647  0.5752722455426121  0.37531243226384176  1.0000
  C   C12       1.0  0.1628660448085783  0.5546577089676614  0.42458165801849546  1.0000
  N   N2        1.0  0.1022559164538346  0.5380850072315047  0.464190726223463  1.0000
  C   C13       1.0  0.2559617037376305  0.5434898863635401  0.23501928970194033  1.0000
  C   C14       1.0  0.3291636418485901  0.5635195346126531  0.18702240954619875  1.0000
  H   H1        1.0  0.6672673517083529  0.6934658252193697  0.09326000803157486  1.0000
  H   H2        1.0  0.5587710633533247  0.7613026607461314  0.9306043897223654  1.0000
  H   H3        1.0  0.4296960442819737  0.7277561541311375  0.014030963829986703  1.0000
  H   H4        1.0  0.5170631979563132  0.5513900474723692  0.42887538148910553  1.0000
  H   H5        1.0  0.40932817900510776  0.6891969612602722  0.49250212123302983  1.0000
  H   H6        1.0  0.280925181517543  0.652509884302379  0.5762572745885585  1.0000
  H   H7        1.0  0.21324160234203063  0.5028832484021165  0.16282363973993452  1.0000
  H   H8        1.0  0.34176354169693224  0.5364697774530072  0.07867164205186473  1.0000
  C   C15       1.0  0.9054017350639414  0.11889519926279403  0.4550463687258035  1.0000
  C   C16       1.0  0.8805282953489897  0.20096917598653682  0.329563767681025  1.0000
  C   C17       1.0  0.8631354037572824  0.13499767607283042  0.20225001225862593  1.0000
  C   C18       1.0  0.8710398826012544  0.9851881861681279  0.19683659883454885  1.0000
  C   C19       1.0  0.8931993501503969  0.9016906686059226  0.3225741652680607  1.0000
  C   C20       1.0  0.9097863011249021  0.9660071301390595  0.45262939481980813  1.0000
  N   N3        1.0  0.8524078727270991  0.9148904290138214  0.06726765883089203  1.0000
  C   C21       1.0  0.8618696801917269  0.9797664383339386  0.9238211309481374  1.0000
  S   S1        1.0  0.8125699405502682  0.9196333235626392  0.7889246063997359  1.0000
  N   N4        1.0  0.9195660564184939  0.08413349848987206  0.8945941507994052  1.0000
  H   H9        1.0  0.9105760903756306  0.3832900548446853  0.693443789137306  1.0000
  H   H10       1.0  0.8758419946142287  0.3174605923538685  0.32899716065225526  1.0000
  H   H11       1.0  0.8432894071807846  0.20119976452143207  0.10803247550944796  1.0000
  H   H12       1.0  0.8963086048442117  0.78530054199177  0.31906788249444995  1.0000
  H   H13       1.0  0.9759281879839083  0.6705776219303854  0.6583593195615729  1.0000
  H   H14       1.0  0.8312383635867648  0.8096599483422139  0.07803284747259576  1.0000
  H   H15       1.0  0.95837407680901  0.11009713649537935  0.9752065374192062  1.0000
  H   H16       1.0  0.9259766136233862  0.13121131260462748  0.7900627941407357  1.0000
  C   C22       1.0  0.9068924730142954  0.5382407506011011  0.030624914852637408  1.0000
  C   C23       1.0  0.8399058105128522  0.5711849761666628  0.09766497592928691  1.0000
  C   C24       1.0  0.7762851238798862  0.6171666117418401  0.015800986225671613  1.0000
  C   C25       1.0  0.7783667441066004  0.6329599986882473  0.8646112426475816  1.0000
  C   C26       1.0  0.843958623763531  0.5955232143528042  0.796403507129515  1.0000
  C   C27       1.0  0.9082955814120897  0.5466615939021455  0.8770509154230194  1.0000
  N   N5        1.0  0.7131035325776806  0.678265749836334  0.7782153198011965  1.0000
  C   C28       1.0  0.6575127195865959  0.7765942106355932  0.8228164804922038  1.0000
  S   S2        1.0  0.5730075301130426  0.7758931477348348  0.7483605015975106  1.0000
  N   N6        1.0  0.6770690252403195  0.8859086279228781  0.9185068713549569  1.0000
  H   H17       1.0  0.7253408891987493  0.6400294838577105  0.07081045603644043  1.0000
  H   H18       1.0  0.8441935477806053  0.6025341091222572  0.6792832418173331  1.0000
  H   H19       1.0  0.7059456553129826  0.6381329451323412  0.6761740373173066  1.0000
  H   H20       1.0  0.7327443889948846  0.9012915247469785  0.9522679037705507  1.0000
  H   H21       1.0  0.6362910713419276  0.9567864369872903  0.9508496112641436  1.0000
  Zn  Zn1       1.0  0.8252774720946905  0.5443014858367816  0.4494594657556013  1.0000
  Zn  Zn2       1.0  0.9899033757679884  0.5406002846136073  0.4582152876559227  1.0000
  C   C29       1.0  0.9079989385095437  0.5393238169009722  0.7170745548624515  1.0000
  C   C30       1.0  0.9071837167170448  0.5455797344472235  0.19060043042205943  1.0000
  C   C31       1.0  0.9089441455554298  0.8058278785237025  0.44734308030724845  1.0000
  C   C32       1.0  0.9062384446537427  0.2790739419258883  0.4603319837693587  1.0000
  O   O1        1.0  0.9697561006833703  0.5466318853249487  0.24761248157502846  1.0000
  O   O2        1.0  0.9703737999274454  0.5354614476937993  0.6667075581757672  1.0000
  O   O3        1.0  0.9711362268664069  0.7506668817010469  0.44889743500505436  1.0000
  O   O4        1.0  0.9689936174430184  0.33142646182367264  0.46542249366984745  1.0000
  O   O5        1.0  0.8461871742409148  0.7534753098912492  0.4422522567461591  1.0000
  O   O6        1.0  0.8454247561406231  0.5382716080471399  0.6600622981292585  1.0000
  O   O7        1.0  0.8448070538140712  0.5494419781760895  0.24096548895590364  1.0000
  O   O8        1.0  0.8440445706963636  0.33423654543337555  0.4587756091310995  1.0000
