data_image0
_chemical_formula_structural       NC8NH4C6ClH5C7ONH5Zn2C4O8
_chemical_formula_sum              "N3 C25 H14 Cl1 O9 Zn2"
_cell_length_a       13.859017124695912
_cell_length_b       10.30297070629231
_cell_length_c       9.273042158839658
_cell_angle_alpha    86.1623812568413
_cell_angle_beta     90.09322216123502
_cell_angle_gamma    89.99834178165982

_space_group_name_H-M_alt    "P 1"
_space_group_IT_number       1

loop_
  _space_group_symop_operation_xyz
  'x, y, z'

loop_
  _atom_site_type_symbol
  _atom_site_label
  _atom_site_symmetry_multiplicity
  _atom_site_fract_x
  _atom_site_fract_y
  _atom_site_fract_z
  _atom_site_occupancy
  N   N1        1.0  0.9068283668905907  0.40576280529304004  0.4101365938806379  1.0000
  C   C1        1.0  0.834413170806631  0.38465173276006254  0.3539735688247849  1.0000
  C   C2        1.0  0.7443329705862226  0.35839263836105006  0.28411398377107955  1.0000
  C   C3        1.0  0.6567913696959954  0.38399258282299276  0.3522182898156605  1.0000
  C   C4        1.0  0.5691026500719567  0.3583937364043961  0.28411340448976063  1.0000
  C   C5        1.0  0.5691379176706095  0.30718799574490596  0.14788330801323227  1.0000
  C   C6        1.0  0.6564972415824142  0.2816864470702727  0.08004115366955514  1.0000
  C   C7        1.0  0.74400327787381  0.30718589184031786  0.1478844863283464  1.0000
  C   C8        1.0  0.4791733315282615  0.3846525621591229  0.3539730708221148  1.0000
  N   N2        1.0  0.4068794922374558  0.4057630936716614  0.41013637787651636  1.0000
  H   H1        1.0  0.6569052747608971  0.42362780711478415  0.4576636482914443  1.0000
  H   H2        1.0  0.5017845718257979  0.2870398500795659  0.09427776385403823  1.0000
  H   H3        1.0  0.6563836332092843  0.24213216679612207  0.9748093398621528  1.0000
  H   H4        1.0  0.8112407909033624  0.28703586448882756  0.09427994136634665  1.0000
  C   C9        1.0  0.15685853646081438  0.024515572552387562  0.4101427129283042  1.0000
  C   C10       1.0  0.2565224885139521  0.021635789260104003  0.43790489025140983  1.0000
  C   C11       1.0  0.305973081340045  0.9032500727878936  0.45167964090245594  1.0000
  C   C12       1.0  0.2565224876697445  0.7865278199474934  0.43790482246418755  1.0000
  C   C13       1.0  0.1568585468481052  0.7870005151473715  0.41014279543812704  1.0000
  C   C14       1.0  0.10751238755158399  0.9065880383899169  0.39639700321129223  1.0000
  Cl  Cl1       1.0  0.4304771028818932  0.9011560533295478  0.48636111549656375  1.0000
  H   H5        1.0  0.11931687039434768  0.35290344715452715  0.39968438000710926  1.0000
  H   H6        1.0  0.2961612642293414  0.1110156927934911  0.4489464591290713  1.0000
  H   H7        1.0  0.2961612259587328  0.6958144989835239  0.44894635557289436  1.0000
  H   H8        1.0  0.030648523210003113  0.9078806871081689  0.3749859331304459  1.0000
  H   H9        1.0  0.11931686598550885  0.45987548305846393  0.3996846521379389  1.0000
  C   C15       1.0  0.15639715739577498  0.4017456278286504  0.9868778230816426  1.0000
  C   C16       1.0  0.0677743042673784  0.410012813714632  0.0595586667844612  1.0000
  C   C17       1.0  0.9808938714165348  0.4308377602519063  0.9833025411870421  1.0000
  C   C18       1.0  0.9831712291619313  0.4418273941863722  0.8318038402849073  1.0000
  C   C19       1.0  0.07021448883719672  0.4316540813232672  0.7581135665012821  1.0000
  C   C20       1.0  0.15731997553898247  0.4097703895565743  0.8334076617031911  1.0000
  C   C21       1.0  0.8886905874282023  0.4398002243439012  0.06316259932584489  1.0000
  O   O1        1.0  0.8822444142453355  0.38955976210085247  0.19053322190671357  1.0000
  N   N3        1.0  0.8066161802739665  0.5056648067520304  0.9996261728441427  1.0000
  H   H10       1.0  0.39049852881014724  0.4513358468510729  0.08683778588040705  1.0000
  H   H11       1.0  0.9175560492743147  0.4546637540269425  0.7691807345498493  1.0000
  H   H12       1.0  0.31511187043492517  0.43714818033785496  0.5504858150058651  1.0000
  H   H13       1.0  0.8112629629737642  0.5617275727643289  0.9019603447549197  1.0000
  H   H14       1.0  0.7413997917341949  0.5055186374192151  0.05586866069232488  1.0000
  Zn  Zn1       1.0  0.051132332053816176  0.40575950123179294  0.41014485953082946  1.0000
  Zn  Zn2       1.0  0.2625755323250083  0.40575591924469  0.4101399340632526  1.0000
  C   C22       1.0  0.15714336524547837  0.403081534395636  0.6733953721707752  1.0000
  C   C23       1.0  0.15656680824079805  0.40843552548046863  0.14688956283910093  1.0000
  C   C24       1.0  0.15684733380201088  0.6428201525739288  0.4043990377896276  1.0000
  C   C25       1.0  0.15686276761718476  0.1686953482262623  0.41588597406683503  1.0000
  O   O2        1.0  0.23686533717135672  0.4106736929631612  0.2005890952374958  1.0000
  O   O3        1.0  0.23732533240580267  0.4008396649239201  0.6196916865408322  1.0000
  O   O4        1.0  0.23708520321006676  0.594431645237262  0.40247524335961304  1.0000
  O   O5        1.0  0.23710539409804432  0.2170817209138218  0.41780543034845347  1.0000
  O   O6        1.0  0.076602398125585  0.5944336995652255  0.40247936323972766  1.0000
  O   O7        1.0  0.0768425272332065  0.4008432783303608  0.6196957295684591  1.0000
  O   O8        1.0  0.07638253017389096  0.4106772447004907  0.20059140533386227  1.0000
  O   O9        1.0  0.07662258721443127  0.2170852643897128  0.417807848509181  1.0000
