data_image0
_chemical_formula_structural       NC10NC3NCH9C13OH12C12ClH9Zn2C4O8
_chemical_formula_sum              "N3 C43 H30 O9 Cl1 Zn2"
_cell_length_a       19.437513618241372
_cell_length_b       10.29915010939255
_cell_length_c       10.299771906710086
_cell_angle_alpha    85.52403423523229
_cell_angle_beta     90.35636607497939
_cell_angle_gamma    89.50394211810362

_space_group_name_H-M_alt    "P 1"
_space_group_IT_number       1

loop_
  _space_group_symop_operation_xyz
  'x, y, z'

loop_
  _atom_site_type_symbol
  _atom_site_label
  _atom_site_symmetry_multiplicity
  _atom_site_fract_x
  _atom_site_fract_y
  _atom_site_fract_z
  _atom_site_occupancy
  N   N1        1.0  0.6474824888896531  0.4110050262506102  0.5752356402128624  1.0000
  C   C1        1.0  0.5885459020429753  0.4280173776395688  0.5722549291346979  1.0000
  C   C2        1.0  0.5151013710946314  0.4492727446425473  0.5685550470069809  1.0000
  C   C3        1.0  0.4733545856338969  0.34807922600601815  0.556923633198065  1.0000
  C   C4        1.0  0.3974620082406995  0.3581472648499784  0.5496994903119249  1.0000
  C   C5        1.0  0.3578824420587188  0.43897890686029784  0.6154198845028893  1.0000
  C   C6        1.0  0.2817005914729569  0.4303729547731347  0.6069781329000861  1.0000
  C   C7        1.0  0.2485858548623931  0.3090175494596523  0.6116549857333793  1.0000
  C   C8        1.0  0.1768513251072804  0.30264782814257973  0.6044886651236081  1.0000
  C   C9        1.0  0.13726103249656285  0.4171606640730865  0.5930078547383179  1.0000
  C   C10       1.0  0.0634120647312949  0.410452796620979  0.5856735355489695  1.0000
  N   N2        1.0  0.0040425926372796  0.40506026113755106  0.5797772011648739  1.0000
  C   C11       1.0  0.16965932276042284  0.5382052108671909  0.5890763656741298  1.0000
  C   C12       1.0  0.24137822268650472  0.5448289204257377  0.5963046378406414  1.0000
  C   C13       1.0  0.3865626705028655  0.5312386249602385  0.7053146220003278  1.0000
  N   N3        1.0  0.44353458757805714  0.5944631837278103  0.6848929418748979  1.0000
  C   C14       1.0  0.48736157599487273  0.5852420703830201  0.5717876429340847  1.0000
  H   H1        1.0  0.49575261829654604  0.2530203038583205  0.5448286068414037  1.0000
  H   H2        1.0  0.3727514003297808  0.28865091663189757  0.49140037205719916  1.0000
  H   H3        1.0  0.2780524924960159  0.21909507251985594  0.6227006515602054  1.0000
  H   H4        1.0  0.1522738102651914  0.2084131932891582  0.6084018265216158  1.0000
  H   H5        1.0  0.1395078232200909  0.6274718961333667  0.580343034137776  1.0000
  H   H6        1.0  0.2654741456737794  0.6394763910144252  0.5923759027966802  1.0000
  H   H7        1.0  0.3565675102596583  0.5515952275387116  0.7896758694683863  1.0000
  H   H8        1.0  0.5301033787772137  0.6555576289238407  0.5775316715157075  1.0000
  H   H9        1.0  0.45767758714973833  0.6133856719884896  0.48113408757197185  1.0000
  C   C15       1.0  0.8258306954739508  0.026631794174553743  0.5776514329780458  1.0000
  C   C16       1.0  0.8245751364210514  0.014808778277822777  0.7144458005042296  1.0000
  C   C17       1.0  0.823878654580693  0.8916807334090593  0.783538991926497  1.0000
  C   C18       1.0  0.8244424563146675  0.7795557512942805  0.7140807165186089  1.0000
  C   C19       1.0  0.8257009831660067  0.7894232864078693  0.5773727855320125  1.0000
  C   C20       1.0  0.826389640263348  0.9134215817461435  0.509957078426071  1.0000
  C   C21       1.0  0.8225444090045688  0.8801551998743519  0.9281617237814122  1.0000
  C   C22       1.0  0.7802445784194008  0.787960438268583  0.9956441675223869  1.0000
  C   C23       1.0  0.7789662607752446  0.7771967120682906  0.13173372332934855  1.0000
  C   C24       1.0  0.8204159213568611  0.8574612557816866  0.20280677995194962  1.0000
  C   C25       1.0  0.8620575767550377  0.95062043874421  0.13595852273674247  1.0000
  C   C26       1.0  0.8633518648805318  0.9615596957890152  0.9998688816372807  1.0000
  C   C27       1.0  0.8175956332976642  0.8482733582746063  0.34885673406731355  1.0000
  O   O1        1.0  0.7661763941601307  0.9322943671737665  0.38844234247704934  1.0000
  H   H10       1.0  0.8277536389056158  0.25624857909582816  0.3194399605870084  1.0000
  H   H11       1.0  0.8231821816097227  0.10158864288174077  0.7674364924957728  1.0000
  H   H12       1.0  0.8248395327895847  0.6844098476494362  0.7669191464013727  1.0000
  H   H13       1.0  0.8273584328690798  0.9217489478658171  0.40451013583368134  1.0000
  H   H14       1.0  0.8261387491137299  0.4657439905608888  0.5247895308313595  1.0000
  H   H15       1.0  0.7473373150919951  0.7255170772703053  0.9431164664017442  1.0000
  H   H16       1.0  0.7455025132067518  0.7064089493007388  0.18168291289105953  1.0000
  H   H17       1.0  0.8936976039269972  0.01463766009804957  0.18921628649333422  1.0000
  H   H18       1.0  0.8968387335114082  0.0327922487256067  0.9507266276608747  1.0000
  H   H19       1.0  0.8682067280456718  0.8752459011893966  0.38967127775096905  1.0000
  H   H20       1.0  0.8064180755722701  0.7464263555105481  0.38652684267567594  1.0000
  H   H21       1.0  0.7664395152588878  0.9225819037326582  0.4850721139661628  1.0000
  C   C28       1.0  0.8257330746212953  0.408134436228722  0.1961423741727355  1.0000
  C   C29       1.0  0.8881256371435604  0.475982815931186  0.1905843749041516  1.0000
  C   C30       1.0  0.9197740247132787  0.510253413227562  0.0706382214400767  1.0000
  C   C31       1.0  0.8881920416757741  0.47576652884182313  0.95531552258698  1.0000
  C   C32       1.0  0.8257985941239031  0.4079207239965259  0.9588818536923256  1.0000
  C   C33       1.0  0.7949188279179079  0.37448377849881953  0.0797676175543174  1.0000
  C   C34       1.0  0.9857806104662084  0.5820299378539009  0.06581207545545609  1.0000
  C   C35       1.0  0.996636819654445  0.6848625681328049  0.14571504497668533  1.0000
  C   C36       1.0  0.05879478267620231  0.7523192078804809  0.14098562515610324  1.0000
  C   C37       1.0  0.11080180440118781  0.7179785371811268  0.05667214142856869  1.0000
  C   C38       1.0  0.1006022650223508  0.6159944962226918  0.9769060190988609  1.0000
  C   C39       1.0  0.038506004077113014  0.5483364893637783  0.9812606663588932  1.0000
  Cl  Cl1       1.0  0.18874709291790936  0.8027363219517426  0.05097409266063968  1.0000
  H   H22       1.0  0.8019402227557733  0.38233841908002003  0.5257089363640643  1.0000
  H   H23       1.0  0.9127369330883627  0.5007740723514591  0.2798695080568938  1.0000
  H   H24       1.0  0.9118965601046134  0.5035147248319863  0.8624976662679273  1.0000
  H   H25       1.0  0.7467854196278155  0.32214300369901205  0.0832871499199479  1.0000
  H   H26       1.0  0.8020369401365808  0.3820222089223825  0.6327910977574445  1.0000
  H   H27       1.0  0.956746886762389  0.7141831385362408  0.21057048753743524  1.0000
  H   H28       1.0  0.06638874710985476  0.8314730973710915  0.202687177373021  1.0000
  H   H29       1.0  0.14080580593513603  0.588816021412073  0.9117102161205289  1.0000
  H   H30       1.0  0.03205407992751863  0.4686232364421463  0.919793391865121  1.0000
  Zn  Zn1       1.0  0.7503780394562034  0.40928600384144537  0.5765537468455866  1.0000
  Zn  Zn2       1.0  0.9011470510116844  0.4067686101167737  0.5784697683254979  1.0000
  C   C40       1.0  0.8257855609819154  0.40278700946109547  0.8147096043572095  1.0000
  C   C41       1.0  0.8257411756111708  0.41326921572796227  0.3403140586048059  1.0000
  C   C42       1.0  0.8257215150478365  0.6452410054942948  0.5722502097313158  1.0000
  C   C43       1.0  0.8258051703696244  0.17081366010149487  0.5827735223857442  1.0000
  O   O2        1.0  0.8829599494869153  0.4140314906211435  0.38942651516104076  1.0000
  O   O3        1.0  0.8829969784538206  0.40011311127986215  0.7670509902816316  1.0000
  O   O4        1.0  0.8829444893683177  0.5958977918259363  0.5712633033853443  1.0000
  O   O5        1.0  0.8830123871152221  0.21824682025237066  0.5852141040252508  1.0000
  O   O6        1.0  0.768512651902601  0.5978077945663273  0.5698094104851581  1.0000
  O   O7        1.0  0.7685651407136639  0.40202467447400064  0.7655970275657251  1.0000
  O   O8        1.0  0.7685281116660698  0.41594300899232856  0.3879709910582523  1.0000
  O   O9        1.0  0.7685805493015078  0.2201583293067333  0.5837586772938639  1.0000
