data_image0
_chemical_formula_structural       NC6NC3H6C6BrH3C6SCH6Zn2C4O8
_chemical_formula_sum              "N2 C26 H15 Br1 S1 Zn2 O8"
_cell_length_a       14.934028789175542
_cell_length_b       9.276564384272257
_cell_length_c       10.302812801239591
_cell_angle_alpha    85.51203806162957
_cell_angle_beta     89.97499208564275
_cell_angle_gamma    90.54840447220178

_space_group_name_H-M_alt    "P 1"
_space_group_IT_number       1

loop_
  _space_group_symop_operation_xyz
  'x, y, z'

loop_
  _atom_site_type_symbol
  _atom_site_label
  _atom_site_symmetry_multiplicity
  _atom_site_fract_x
  _atom_site_fract_y
  _atom_site_fract_z
  _atom_site_occupancy
  N   N1        1.0  0.8532085913815055  0.5773711626657039  0.5662658196793677  1.0000
  C   C1        1.0  0.775715544695713  0.576273047162841  0.5656552656269924  1.0000
  C   C2        1.0  0.679310257129693  0.5749019425206199  0.5648931027009416  1.0000
  C   C3        1.0  0.6322291878437544  0.6816844882822723  0.624154486507227  1.0000
  C   C4        1.0  0.5387104366451457  0.6805835871329917  0.6235433997013795  1.0000
  C   C5        1.0  0.49136055347178176  0.5727546343082512  0.5637013524209706  1.0000
  C   C6        1.0  0.3947295514314041  0.5750682133709295  0.5649864898946064  1.0000
  N   N2        1.0  0.3172611503886942  0.5769043300438197  0.5660067042297472  1.0000
  C   C7        1.0  0.5384266237184583  0.46449477538427675  0.5036196005517051  1.0000
  C   C8        1.0  0.4893621914477384  0.3472622896199016  0.4385599645340643  1.0000
  C   C9        1.0  0.6325836124347748  0.466719041560503  0.50485405445474  1.0000
  H   H1        1.0  0.6678104174094087  0.7658192292199029  0.6708474907131499  1.0000
  H   H2        1.0  0.5032075856934456  0.7640703685316739  0.6698766742552535  1.0000
  H   H3        1.0  0.4469243252939007  0.3963308920010271  0.3587187633343581  1.0000
  H   H4        1.0  0.4462182114542319  0.28441856438896784  0.5107623565331267  1.0000
  H   H5        1.0  0.5363364186551297  0.2713291200306247  0.39641332218715153  1.0000
  H   H6        1.0  0.6695866113885494  0.3843428832224842  0.4591374075375254  1.0000
  C   C10       1.0  0.08254137501371356  0.15365948125367845  0.5664697518702551  1.0000
  C   C11       1.0  0.07106641814469072  0.23717031964356905  0.44781657899625493  1.0000
  C   C12       1.0  0.06792480339892548  0.17218461677473273  0.33026709238882135  1.0000
  C   C13       1.0  0.07623825089686731  0.022769092701034662  0.32913873418806117  1.0000
  C   C14       1.0  0.08613574750638105  0.937566512308846  0.44599845471720867  1.0000
  C   C15       1.0  0.08793690349171895  0.0006048557496907182  0.5658139437037146  1.0000
  Br  Br1       1.0  0.07259878152550514  0.9344149875543846  0.16783992533908765  1.0000
  H   H7        1.0  0.05987830762004929  0.2384129489118687  0.23983844986475633  1.0000
  H   H8        1.0  0.09027877751147258  0.8213223620239992  0.4431970610661798  1.0000
  H   H9        1.0  0.1373328872482379  0.7026224905540408  0.7679904722534673  1.0000
  C   C16       1.0  0.08523916413349725  0.5771321908584031  0.1848934092309709  1.0000
  C   C17       1.0  0.05595755900687126  0.7209729571761154  0.173601643647326  1.0000
  C   C18       1.0  0.04115575388153703  0.7923311157098285  0.05100792595248783  1.0000
  C   C19       1.0  0.05595747731785238  0.7209728058773758  0.9384504741203661  1.0000
  C   C20       1.0  0.08523910599121831  0.577132181198543  0.9473903129004669  1.0000
  C   C21       1.0  0.09970915311175821  0.5059021458472726  0.07115126919591887  1.0000
  S   S1        1.0  0.0039287541297834405  0.9762155535595665  0.03807569488996676  1.0000
  C   C22       1.0  0.8858251364723062  0.9259497547133746  0.04169261391886315  1.0000
  H   H10       1.0  0.04432568536837911  0.7781069211231136  0.25968316544241965  1.0000
  H   H11       1.0  0.0443255047726474  0.7781067135703505  0.8443328527212741  1.0000
  H   H12       1.0  0.12227905479030982  0.3949418434194112  0.07895470605532662  1.0000
  H   H13       1.0  0.8695383957642849  0.8618127010708434  0.9581048302007802  1.0000
  H   H14       1.0  0.8695387885533692  0.8618141580830064  0.134339520891694  1.0000
  H   H15       1.0  0.8450170397743592  0.025528161319825046  0.03470218266617153  1.0000
  Zn  Zn1       1.0  0.9871241247187188  0.5772325805045053  0.5661985390356505  1.0000
  Zn  Zn2       1.0  0.18334557186218367  0.5770310994512498  0.5660846083808448  1.0000
  C   C23       1.0  0.08520052309992793  0.5713872423341373  0.8032665337193906  1.0000
  C   C24       1.0  0.08527132780463599  0.5828782549712757  0.32901673847035307  1.0000
  C   C25       1.0  0.08691242192045995  0.8405141788778021  0.5607644060478849  1.0000
  C   C26       1.0  0.08355935098987839  0.3137495859110071  0.5715189367389861  1.0000
  O   O1        1.0  0.15974709872140375  0.5847239342374269  0.37734261312740847  1.0000
  O   O2        1.0  0.15965228337930792  0.569387555710732  0.7548538154458853  1.0000
  O   O3        1.0  0.16103365950266596  0.7867109615750911  0.5590316310302246  1.0000
  O   O4        1.0  0.15836565570668254  0.3674005387578356  0.5731647002300464  1.0000
  O   O5        1.0  0.01210397391348028  0.786863141268245  0.5591184472184978  1.0000
  O   O6        1.0  0.0107226088236072  0.5695414679908148  0.75494056106908  1.0000
  O   O7        1.0  0.01081742390522677  0.5848777962645231  0.37742779788195713  1.0000
  O   O8        1.0  0.009435980821128839  0.3675543904704899  0.5732499823296666  1.0000
