data_image0
_chemical_formula_structural       NC9NC5H8C7OC3FC3H8C6NCOC6H11Zn2C4O8
_chemical_formula_sum              "N3 C44 H27 O10 F1 Zn2"
_cell_length_a       17.807436237873137
_cell_length_b       10.299378350833068
_cell_length_c       10.299662537453274
_cell_angle_alpha    85.53091033731847
_cell_angle_beta     89.37814808442572
_cell_angle_gamma    88.41049276798935

_space_group_name_H-M_alt    "P 1"
_space_group_IT_number       1

loop_
  _space_group_symop_operation_xyz
  'x, y, z'

loop_
  _atom_site_type_symbol
  _atom_site_label
  _atom_site_symmetry_multiplicity
  _atom_site_fract_x
  _atom_site_fract_y
  _atom_site_fract_z
  _atom_site_occupancy
  N   N1        1.0  0.7078958091856782  0.38832959376021936  0.5568818466118601  1.0000
  C   C1        1.0  0.6473024816328439  0.35314284982982225  0.5458631664357398  1.0000
  C   C2        1.0  0.5719310419305416  0.3093744153536353  0.532157124683736  1.0000
  C   C3        1.0  0.5538391243771692  0.23799585356643152  0.42716309635733163  1.0000
  C   C4        1.0  0.48065733389825377  0.1953886073095017  0.4137728002382606  1.0000
  C   C5        1.0  0.4245186685731803  0.22378239356246676  0.5053441388688866  1.0000
  C   C6        1.0  0.3467453028892306  0.1786167540188255  0.49119578007952924  1.0000
  C   C7        1.0  0.2845823755735898  0.26036587149557633  0.5171225315260721  1.0000
  C   C8        1.0  0.21125823624791773  0.2175555758796359  0.5037459484418851  1.0000
  C   C9        1.0  0.148045727943238  0.3019959938511052  0.5300361917112923  1.0000
  N   N2        1.0  0.0972358584461402  0.36988024757213367  0.5511728217061849  1.0000
  C   C10       1.0  0.1995134293210067  0.09273818426094696  0.46441730377217233  1.0000
  C   C11       1.0  0.2608189850842773  0.01097521715366167  0.4384821646003909  1.0000
  C   C12       1.0  0.33402363817396397  0.05339103425695169  0.4516562662820178  1.0000
  C   C13       1.0  0.4433020632846408  0.2956552561161281  0.6105573246730098  1.0000
  C   C14       1.0  0.5165367068208168  0.3380721594913761  0.6237919962529443  1.0000
  H   H1        1.0  0.5962391558673353  0.215536361229232  0.3554522647409992  1.0000
  H   H2        1.0  0.467744948447735  0.14173524064128706  0.33085888023674226  1.0000
  H   H3        1.0  0.2930961231558126  0.35782308945513724  0.5459850144873379  1.0000
  H   H4        1.0  0.1430427880525571  0.058705001372174825  0.45382749278111856  1.0000
  H   H5        1.0  0.25160722658778495  0.9143385658849946  0.4084191161460993  1.0000
  H   H6        1.0  0.3806534297311789  0.987651015561243  0.4326176942072763  1.0000
  H   H7        1.0  0.401618623840825  0.3175752058393817  0.6835627671519777  1.0000
  H   H8        1.0  0.5299778369946689  0.3929465327321169  0.7056640763509168  1.0000
  C   C15       1.0  0.9024902299522427  0.9977235240512609  0.5540924811808605  1.0000
  C   C16       1.0  0.824109649577359  0.0014514539117138681  0.5392167123323377  1.0000
  C   C17       1.0  0.7844810652784693  0.8860478716264882  0.5331925655113541  1.0000
  C   C18       1.0  0.8242933447576734  0.7661987437651323  0.5392208941435883  1.0000
  C   C19       1.0  0.9026485947156858  0.7604760375199072  0.5539733631996075  1.0000
  C   C20       1.0  0.9412704417702856  0.8767809523815536  0.5616660750020968  1.0000
  C   C21       1.0  0.7018095996583984  0.8899428009788273  0.5161101920832849  1.0000
  O   O1        1.0  0.6728010414096326  0.8066524802076637  0.4498733186857182  1.0000
  C   C22       1.0  0.6520466123803637  0.9882265093105262  0.5741798537705116  1.0000
  C   C23       1.0  0.5851342742626006  0.03141975625648796  0.5113789782966147  1.0000
  C   C24       1.0  0.5374046391366366  0.12291767840915455  0.5661407449377343  1.0000
  F   F1        1.0  0.47331282586852597  0.16466893982033826  0.5043598912733263  1.0000
  C   C25       1.0  0.5556735655946006  0.17130338590671612  0.6844801294200837  1.0000
  C   C26       1.0  0.6215072161987042  0.12790844121229708  0.7485114073191845  1.0000
  C   C27       1.0  0.6693921359874719  0.03647461385775408  0.6941520833371027  1.0000
  H   H9        1.0  0.7938832352994799  0.09439857203654257  0.5308466316654623  1.0000
  H   H10       1.0  0.7938809719868711  0.6771735957544399  0.5336144164257206  1.0000
  H   H11       1.0  0.0016960445609612831  0.8731029924454374  0.5731334451967607  1.0000
  H   H12       1.0  0.9328199571244828  0.4309028679780214  0.5585434634818347  1.0000
  H   H13       1.0  0.570178778184285  0.9951618375766409  0.41943819951000855  1.0000
  H   H14       1.0  0.5187049821190877  0.24202718128435574  0.7269019601621334  1.0000
  H   H15       1.0  0.6353012530559441  0.1647084784128743  0.8406827910713884  1.0000
  H   H16       1.0  0.7194516538079281  0.0025202493550342503  0.7465711954970555  1.0000
  C   C28       1.0  0.9026211635726802  0.3792378480423233  0.17265615665246137  1.0000
  C   C29       1.0  0.9793170037052452  0.4079794000300536  0.16771260481769779  1.0000
  C   C30       1.0  0.01817343911771019  0.42056380025096446  0.04853597009350396  1.0000
  C   C31       1.0  0.9791854827362693  0.4076755465609049  0.9325712842535013  1.0000
  C   C32       1.0  0.9025176978324269  0.3789616706081753  0.9354096731631852  1.0000
  C   C33       1.0  0.8647324427185509  0.3644573455222697  0.0560132505538986  1.0000
  N   N3        1.0  0.09641108022245026  0.45194341039586483  0.04689980421744777  1.0000
  C   C34       1.0  0.14957254186204438  0.4095726540612284  0.9519133845516693  1.0000
  O   O2        1.0  0.13584991899828913  0.3116607422000599  0.8905781783254256  1.0000
  C   C35       1.0  0.22171600514558598  0.47648559192315787  0.9284943219530141  1.0000
  C   C36       1.0  0.23080592490138052  0.604130258320903  0.964695234799282  1.0000
  C   C37       1.0  0.2989731985779578  0.6664582501615743  0.941495051266282  1.0000
  C   C38       1.0  0.3585970545352776  0.6026034340227591  0.881655284312  1.0000
  C   C39       1.0  0.3501170397196822  0.47637630801732106  0.8444392388728947  1.0000
  C   C40       1.0  0.28207776227687653  0.41358520040427  0.8673085360870667  1.0000
  H   H17       1.0  0.7577742671571608  0.326236051416563  0.38915411091293794  1.0000
  H   H18       1.0  0.009419203574304369  0.41977267698900333  0.2566895604188584  1.0000
  H   H19       1.0  0.008286565071950577  0.4222611237980862  0.8400289229214666  1.0000
  H   H20       1.0  0.8056109657218479  0.34228378354199784  0.05896002747919615  1.0000
  H   H21       1.0  0.8728657335190293  0.3696392923275289  0.608922535899628  1.0000
  H   H22       1.0  0.11692377721600165  0.49817711822322336  0.12551438421582284  1.0000
  H   H23       1.0  0.1851689506237153  0.6568300794246569  0.009130533911872575  1.0000
  H   H24       1.0  0.30545631242396376  0.7646345589228009  0.9695007617351412  1.0000
  H   H25       1.0  0.4112843011707201  0.6510869782260656  0.8637573969332002  1.0000
  H   H26       1.0  0.39631002590727804  0.42706758795704175  0.7977982828093992  1.0000
  H   H27       1.0  0.2768820094241915  0.31557051864023933  0.8379088772642088  1.0000
  Zn  Zn1       1.0  0.8202509342627216  0.3830020428607108  0.555241856833927  1.0000
  Zn  Zn2       1.0  0.9848807115251105  0.375197208089983  0.5528234899691349  1.0000
  C   C41       1.0  0.9025344855136032  0.37384012059489174  0.7912337652667871  1.0000
  C   C42       1.0  0.9025989583492393  0.38436068375361554  0.31683168234093606  1.0000
  C   C43       1.0  0.9026155072841214  0.6163016112153317  0.5488206526254724  1.0000
  C   C44       1.0  0.9025178800686965  0.14189763541836697  0.5592448652912148  1.0000
  O   O3        1.0  0.9650676473927057  0.3831123941713081  0.36430054908480036  1.0000
  O   O4        1.0  0.965015987985831  0.3691637415590059  0.7419290403290322  1.0000
  O   O5        1.0  0.9650805716986809  0.5649545010178914  0.5461787489192707  1.0000
  O   O6        1.0  0.9650030075180056  0.1873216467014622  0.5600507439416638  1.0000
  O   O7        1.0  0.8401285820897644  0.5708776069140551  0.5480146036798368  1.0000
  O   O8        1.0  0.8400639987068771  0.37508840783480135  0.7437648255990716  1.0000
  O   O9        1.0  0.8401156583661703  0.38903701575263816  0.36613477292835794  1.0000
  O   O10       1.0  0.8400510184732587  0.19324625895857572  0.5618850651565577  1.0000
