data_image0
_chemical_formula_structural       NC9NC5H8C7F3H5C6NCOCH9Zn2C4O8
_chemical_formula_sum              "N3 C33 H22 F3 O9 Zn2"
_cell_length_a       17.807436237873137
_cell_length_b       9.272718291674593
_cell_length_c       10.300272075376752
_cell_angle_alpha    85.97182266394306
_cell_angle_beta     89.39000598542044
_cell_angle_gamma    87.96869977406762

_space_group_name_H-M_alt    "P 1"
_space_group_IT_number       1

loop_
  _space_group_symop_operation_xyz
  'x, y, z'

loop_
  _atom_site_type_symbol
  _atom_site_label
  _atom_site_symmetry_multiplicity
  _atom_site_fract_x
  _atom_site_fract_y
  _atom_site_fract_z
  _atom_site_occupancy
  N   N1        1.0  0.7014781597952718  0.541508697199097  0.5677414317428304  1.0000
  C   C1        1.0  0.6410418041348702  0.5024387823855845  0.5564504979220992  1.0000
  C   C2        1.0  0.5658656201780415  0.45384011096832094  0.5424058026194554  1.0000
  C   C3        1.0  0.5480822652521573  0.37458272870742926  0.43686466283676917  1.0000
  C   C4        1.0  0.47509054461649003  0.327273392077732  0.42314470073263943  1.0000
  C   C5        1.0  0.4188350809517143  0.35880224633018476  0.5149305583703605  1.0000
  C   C6        1.0  0.3412632035259511  0.30865217571986725  0.5004327356059503  1.0000
  C   C7        1.0  0.27873562355329906  0.39942304327933553  0.5269919915770285  1.0000
  C   C8        1.0  0.2056024691231146  0.3518882504426413  0.5132841665972276  1.0000
  C   C9        1.0  0.1420132447652524  0.44564741845305655  0.5402277680371605  1.0000
  N   N2        1.0  0.0909005217564313  0.52102330247325  0.5618896527276773  1.0000
  C   C10       1.0  0.19441445724103462  0.2132961423373347  0.47298977595412145  1.0000
  C   C11       1.0  0.256084726962492  0.1225098966406768  0.44642202535131  1.0000
  C   C12       1.0  0.329100145543931  0.1696066752538936  0.45992432163498287  1.0000
  C   C13       1.0  0.4373077155897372  0.4386084810687347  0.6206946762010255  1.0000
  C   C14       1.0  0.5103531269612634  0.4857064669705209  0.6342575470181929  1.0000
  H   H1        1.0  0.5905747704585399  0.3496434103941461  0.36498410143291804  1.0000
  H   H2        1.0  0.46240962088164717  0.26769765022629666  0.33981978149878733  1.0000
  H   H3        1.0  0.28681440619587256  0.5076355028148871  0.5566086429290336  1.0000
  H   H4        1.0  0.1380956497770362  0.17550709558695976  0.46213663263978083  1.0000
  H   H5        1.0  0.2473040987847984  0.015208533135420371  0.4156112487779173  1.0000
  H   H6        1.0  0.3760233952385162  0.0966116886364432  0.4403769963631587  1.0000
  H   H7        1.0  0.395534384092934  0.4629487410549568  0.6938655822111974  1.0000
  H   H8        1.0  0.5235571783710995  0.546637937473812  0.7165501628946349  1.0000
  C   C15       1.0  0.8978293847387656  0.10779802149746875  0.561922312707368  1.0000
  C   C16       1.0  0.8520272392958436  0.19155009379818755  0.47286707927985794  1.0000
  C   C17       1.0  0.8009081330003824  0.12673411913777888  0.39413807121901656  1.0000
  C   C18       1.0  0.7975826411591221  0.9756178399195006  0.40178008783497193  1.0000
  C   C19       1.0  0.8434409987166541  0.8909046860387199  0.48802445371867975  1.0000
  C   C20       1.0  0.8945565028626197  0.9547225279551238  0.567719903035371  1.0000
  C   C21       1.0  0.753739337373092  0.21815817813773553  0.29684189489537594  1.0000
  F   F1        1.0  0.73443061226446  0.35057733438134475  0.3443270753906029  1.0000
  F   F2        1.0  0.6881476441843525  0.15021724789199722  0.270696513822559  1.0000
  F   F3        1.0  0.7942762449372142  0.24084599701420784  0.18248147527722236  1.0000
  H   H9        1.0  0.9870452536107885  0.1817041908844297  0.8408350015657197  1.0000
  H   H10       1.0  0.8550266613361684  0.30836316449686024  0.4667779802505996  1.0000
  H   H11       1.0  0.7600249275532039  0.9225218456729698  0.33989794549217955  1.0000
  H   H12       1.0  0.8403741366245768  0.7742963422647802  0.48981772509514554  1.0000
  H   H13       1.0  0.055863007047799645  0.8302710228047043  0.7215930773653547  1.0000
  C   C22       1.0  0.8961985485861873  0.5314063978913206  0.18346926552515552  1.0000
  C   C23       1.0  0.8191636661197734  0.5695647666497079  0.18141931842023107  1.0000
  C   C24       1.0  0.7805648984133798  0.59072904781863  0.06298168567480489  1.0000
  C   C25       1.0  0.819172531732046  0.5692355922997305  0.9462829947582331  1.0000
  C   C26       1.0  0.8961873751176944  0.5311141073427872  0.9461729392264111  1.0000
  C   C27       1.0  0.9343555725817654  0.512934860116036  0.06527985808762016  1.0000
  N   N3        1.0  0.7014391356082794  0.6275874276795199  0.059410992239081965  1.0000
  C   C28       1.0  0.6637907863539909  0.7193179886366716  0.1480379440900732  1.0000
  O   O1        1.0  0.7007904545558398  0.7944837351019866  0.22026823808731552  1.0000
  C   C29       1.0  0.579986964078707  0.7343306567599299  0.1482567982944758  1.0000
  H   H14       1.0  0.9252483914791689  0.5148355976100254  0.5118078331006082  1.0000
  H   H15       1.0  0.7888803336168991  0.5800112446826133  0.27207761995453666  1.0000
  H   H16       1.0  0.7888187907382882  0.5836407345069816  0.8554568121701873  1.0000
  H   H17       1.0  0.993774653894918  0.4835432710274574  0.06604951935341696  1.0000
  H   H18       1.0  0.9251290696194008  0.5145707859305075  0.6188601810730994  1.0000
  H   H19       1.0  0.6701832169347949  0.5932767089576514  0.9826797908261747  1.0000
  H   H20       1.0  0.5554521102225712  0.6278761586323858  0.13551825442177678  1.0000
  H   H21       1.0  0.5592496193302283  0.7739323793196127  0.2418749418496875  1.0000
  H   H22       1.0  0.5616352583470341  0.8123499356179271  0.0671932082077924  1.0000
  Zn  Zn1       1.0  0.8138570550376129  0.5355932040972575  0.5660602188402638  1.0000
  Zn  Zn2       1.0  0.9785216535855022  0.5269270367145495  0.5635814612973974  1.0000
  C   C30       1.0  0.8962099912621901  0.5254246904531146  0.8019662877928561  1.0000
  C   C31       1.0  0.8961705084600257  0.5370972751805245  0.32767550519285077  1.0000
  C   C32       1.0  0.895171366003112  0.794637959555892  0.5614491194327422  1.0000
  C   C33       1.0  0.8972090842248346  0.26788227646575624  0.5681927317743478  1.0000
  O   O2        1.0  0.9586504792414158  0.5357121290517457  0.3751317179305309  1.0000
  O   O3        1.0  0.9587066449086753  0.5202313283301563  0.7526283741584673  1.0000
  O   O4        1.0  0.9578670994705152  0.7376244916138588  0.5584090819538949  1.0000
  O   O5        1.0  0.9594899684522673  0.318318979078287  0.5693509136812478  1.0000
  O   O6        1.0  0.8328886839788955  0.7442012646924299  0.5602907672954718  1.0000
  O   O7        1.0  0.8337282227193724  0.5268098339796288  0.7545100021177196  1.0000
  O   O8        1.0  0.833672057319203  0.5422905850451119  0.377011784214335  1.0000
  O   O9        1.0  0.8345115465654109  0.32489742472031974  0.5712310772579658  1.0000
