data_image0
_chemical_formula_structural       NC8NH4C7NH5C6NCH8Zn2C4O8
_chemical_formula_sum              "N4 C26 H17 Zn2 O8"
_cell_length_a       14.927258825633057
_cell_length_b       9.275154477615127
_cell_length_c       9.274690524155615
_cell_angle_alpha    86.28222006600178
_cell_angle_beta     89.68735870548748
_cell_angle_gamma    89.43370909507247

_space_group_name_H-M_alt    "P 1"
_space_group_IT_number       1

loop_
  _space_group_symop_operation_xyz
  'x, y, z'

loop_
  _atom_site_type_symbol
  _atom_site_label
  _atom_site_symmetry_multiplicity
  _atom_site_fract_x
  _atom_site_fract_y
  _atom_site_fract_z
  _atom_site_occupancy
  N   N1        1.0  0.8393322569722458  0.5640762567506254  0.41638729287522747  1.0000
  C   C1        1.0  0.7618058327542229  0.5640762303885389  0.4163873024220113  1.0000
  C   C2        1.0  0.665373190820554  0.5640762305792193  0.4163873574992718  1.0000
  C   C3        1.0  0.6191733437955117  0.4749967681515996  0.32630351176688266  1.0000
  C   C4        1.0  0.5254620328903673  0.47499667808989976  0.3263034829479563  1.0000
  C   C5        1.0  0.47755719338781766  0.5640762828457169  0.4163872698965121  1.0000
  C   C6        1.0  0.5237570407252478  0.6531557546434892  0.5064710076060852  1.0000
  C   C7        1.0  0.6174684186219259  0.6531558447022754  0.5064710364309246  1.0000
  C   C8        1.0  0.381124552434138  0.5640761847664062  0.41638721457469385  1.0000
  N   N2        1.0  0.3035981275485138  0.5640762660444634  0.4163872264977404  1.0000
  H   H1        1.0  0.6555327441096263  0.4056877234506384  0.25621324203940565  1.0000
  H   H2        1.0  0.4904290880376338  0.4056877006292807  0.2562133391708701  1.0000
  H   H3        1.0  0.48739764041113315  0.7224647993444502  0.5765612773335631  1.0000
  H   H4        1.0  0.6525012961707377  0.7224648127956558  0.5765612882249147  1.0000
  C   C9        1.0  0.0740675743549781  0.1406723961320786  0.4147193832241389  1.0000
  C   C10       1.0  0.0499154081747053  0.22274312482608713  0.28763679650941887  1.0000
  C   C11       1.0  0.018453396197362075  0.1556550557035259  0.16728596443022403  1.0000
  C   C12       1.0  0.010623571712822022  0.005580880951831846  0.17260032706463635  1.0000
  C   C13       1.0  0.03561599809072335  0.9222772130332788  0.2967861673290022  1.0000
  C   C14       1.0  0.06887143072657431  0.9874691165333548  0.4180676342890961  1.0000
  C   C15       1.0  0.9931146707866212  0.2412942381937013  0.03867170121259855  1.0000
  N   N3        1.0  0.9727493734802832  0.3101325222001134  0.9352987778328532  1.0000
  H   H5        1.0  0.09021962476404588  0.2204291037371624  0.7685153570788306  1.0000
  H   H6        1.0  0.05358866450937971  0.33966522603579774  0.2833601684274687  1.0000
  H   H7        1.0  0.9859657001416992  0.9526475877932313  0.08010315400975876  1.0000
  H   H8        1.0  0.030912315130298792  0.8058085110221411  0.2966593220886513  1.0000
  H   H9        1.0  0.08355261503449718  0.6907663441988496  0.6551210001339631  1.0000
  C   C16       1.0  0.07292656540940468  0.5603792510398237  0.9931315968772724  1.0000
  C   C17       1.0  0.14532679234790447  0.6227495403054354  0.06211557448204408  1.0000
  C   C18       1.0  0.21305316414730016  0.696039482311767  0.9819075588884679  1.0000
  C   C19       1.0  0.20768029130833843  0.7066897666354661  0.8310532092095464  1.0000
  C   C20       1.0  0.137197000339899  0.6434604678416942  0.7608551498105709  1.0000
  C   C21       1.0  0.07001240163091982  0.5677622286300973  0.8396553356524441  1.0000
  N   N4        1.0  0.2872028226614843  0.7614710104271329  0.050888058997748065  1.0000
  C   C22       1.0  0.2993917402595845  0.7563954811942131  0.2071495375706145  1.0000
  H   H10       1.0  0.9717396113610405  0.3865805843008165  0.2854431854028803  1.0000
  H   H11       1.0  0.2589345329257209  0.7631306438818315  0.7672178123768489  1.0000
  H   H12       1.0  0.13647226205234264  0.6508995969679748  0.6438118489803881  1.0000
  H   H13       1.0  0.9288587389402001  0.5001205614984445  0.563949709093643  1.0000
  H   H14       1.0  0.33561248524207254  0.8154044489319031  0.9864671601711762  1.0000
  H   H15       1.0  0.3617351077029496  0.8135253157063951  0.2330537387352849  1.0000
  H   H16       1.0  0.30510487335043324  0.6424104160361988  0.25092349550345183  1.0000
  H   H17       1.0  0.2419240764590762  0.810448513768045  0.2585652805193144  1.0000
  Zn  Zn1       1.0  0.9733093622156709  0.5640724609434058  0.4163955903546266  1.0000
  Zn  Zn2       1.0  0.16962106728759463  0.5640683284446815  0.41639071788563653  1.0000
  C   C23       1.0  0.07059651434306846  0.5606227668229182  0.6796215444954612  1.0000
  C   C24       1.0  0.07233604722767639  0.5675198429842172  0.15316491235328034  1.0000
  C   C25       1.0  0.06986876997550784  0.8273563980505423  0.4116910491083874  1.0000
  C   C26       1.0  0.07306373497293261  0.300784480147057  0.42109547773705325  1.0000
  O   O1        1.0  0.1466371715175285  0.5699084323823769  0.20687168100147457  1.0000
  O   O2        1.0  0.14529143996191873  0.5582299496263881  0.6259106585426499  1.0000
  O   O3        1.0  0.14470276773645957  0.7736207432421336  0.40955489381757193  1.0000
  O   O4        1.0  0.14722577706384163  0.35451764813969744  0.42322733769782395  1.0000
  O   O5        1.0  0.99570458544789  0.7736231412513039  0.40955897053652657  1.0000
  O   O6        1.0  0.9962932473041195  0.5582340792480076  0.6259146652589933  1.0000
  O   O7        1.0  0.9976389851931368  0.5699124966461464  0.20687395460023872  1.0000
  O   O8        1.0  0.9982275904270621  0.35452170303331454  0.42322971931940523  1.0000
