data_image0
_chemical_formula_structural       NC9NC5H8C6SCNH5C6OCH7Zn2C4O8
_chemical_formula_sum              "N3 C32 H20 S1 O9 Zn2"
_cell_length_a       17.807436237873137
_cell_length_b       10.302215558581764
_cell_length_c       9.273891588657152
_cell_angle_alpha    86.08259887656699
_cell_angle_beta     89.08663702953788
_cell_angle_gamma    88.40943486361951

_space_group_name_H-M_alt    "P 1"
_space_group_IT_number       1

loop_
  _space_group_symop_operation_xyz
  'x, y, z'

loop_
  _atom_site_type_symbol
  _atom_site_label
  _atom_site_symmetry_multiplicity
  _atom_site_fract_x
  _atom_site_fract_y
  _atom_site_fract_z
  _atom_site_occupancy
  N   N1        1.0  0.7123369598819173  0.37416814988305697  0.3986647763148552  1.0000
  C   C1        1.0  0.6517781284760789  0.3388866799422703  0.38642475328462833  1.0000
  C   C2        1.0  0.5764495982344164  0.2950004165783864  0.37119949364899774  1.0000
  C   C3        1.0  0.55868300466688  0.2226419944185132  0.2546442982867021  1.0000
  C   C4        1.0  0.485543133186261  0.1799195889434613  0.23976982688113055  1.0000
  C   C5        1.0  0.4291211677989759  0.2091778780888407  0.3414144870254652  1.0000
  C   C6        1.0  0.3513920961405095  0.16389060264989563  0.3256978870727383  1.0000
  C   C7        1.0  0.2891480134077982  0.24586291443648123  0.35449813222713833  1.0000
  C   C8        1.0  0.2158657533109443  0.20293764973815073  0.3396388221289124  1.0000
  C   C9        1.0  0.1525709320012417  0.2876039389395264  0.368843294311217  1.0000
  N   N2        1.0  0.10169488516487578  0.355669787923363  0.39232288290086825  1.0000
  C   C10       1.0  0.2042440625375294  0.07778192899011072  0.29595109981432044  1.0000
  C   C11       1.0  0.2656307998115994  0.9957956916788797  0.2671415409730642  1.0000
  C   C12       1.0  0.3387942043508445  0.038324663368986434  0.2817759992903526  1.0000
  C   C13       1.0  0.4475785550419625  0.282032545242358  0.45821307219992136  1.0000
  C   C14       1.0  0.5207717628654183  0.3245631802092328  0.47291475827672275  1.0000
  H   H1        1.0  0.6013048953763485  0.19950556297450417  0.1750448387311967  1.0000
  H   H2        1.0  0.472887621738686  0.12549163081062442  0.14772682698926065  1.0000
  H   H3        1.0  0.2975713335628631  0.34356671112176307  0.3865613541409998  1.0000
  H   H4        1.0  0.1478065775232285  0.043657770231453785  0.2841874203351422  1.0000
  H   H5        1.0  0.2565131677284903  0.8989007783107722  0.2337460317262261  1.0000
  H   H6        1.0  0.38548366321917  0.9724224194876667  0.2606256998552809  1.0000
  H   H7        1.0  0.4056692632122724  0.30464193158886244  0.5392492831157769  1.0000
  H   H8        1.0  0.5339592224641584  0.3802018572325571  0.5638017591116185  1.0000
  C   C15       1.0  0.9069450026386638  0.9836498183509095  0.3954553251066843  1.0000
  C   C16       1.0  0.9821090519541014  0.9763775458746999  0.4395860211853151  1.0000
  C   C17       1.0  0.019512589827063605  0.8557216270740104  0.46200318286972064  1.0000
  C   C18       1.0  0.9823039757443649  0.7411940730790456  0.43970489340749186  1.0000
  C   C19       1.0  0.9070939549079644  0.7461778937184909  0.39554469180614193  1.0000
  C   C20       1.0  0.8698188899341162  0.8679071434767013  0.3737183603058898  1.0000
  S   S1        1.0  0.11554428565167241  0.8479486869582875  0.5177428756630713  1.0000
  C   C21       1.0  0.09022099188883434  0.8378272687083522  0.7028597802549192  1.0000
  N   N3        1.0  0.07359647248758062  0.8311932956857108  0.8242201192543961  1.0000
  H   H9        1.0  0.8783444944546538  0.31375644980007644  0.3785904727854228  1.0000
  H   H10       1.0  0.011886017104365982  0.06408221415050908  0.45698636264037984  1.0000
  H   H11       1.0  0.012214552805718924  0.6486113243102426  0.4571867895767152  1.0000
  H   H12       1.0  0.8118492494197881  0.8726663204473516  0.33970322482920307  1.0000
  H   H13       1.0  0.7653557382310052  0.5483622098567464  0.31215913024599806  1.0000
  C   C22       1.0  0.9082496080454194  0.36141681320244007  0.9722042449317789  1.0000
  C   C23       1.0  0.9697867405828364  0.41333288050114136  0.039782236655990566  1.0000
  C   C24       1.0  0.02706419553885531  0.47514644417604174  0.9590473313282302  1.0000
  C   C25       1.0  0.023009354173772808  0.4853595457125213  0.8076739702460629  1.0000
  C   C26       1.0  0.9630504746130871  0.43258234050223104  0.7387279794779178  1.0000
  C   C27       1.0  0.9057893571888772  0.36841088050533877  0.8187957862182518  1.0000
  O   O1        1.0  0.08654924937051067  0.5255614291814068  0.03329146240059599  1.0000
  C   C28       1.0  0.14843022141740533  0.5909515562120503  0.9652154069483925  1.0000
  H   H14       1.0  0.7295314587093997  0.29016328708120187  0.08612282990047859  1.0000
  H   H15       1.0  0.06629782697602682  0.5328818610984682  0.7420527253015781  1.0000
  H   H16       1.0  0.9624455723981191  0.43930263908453315  0.6216574617739656  1.0000
  H   H17       1.0  0.786606963623985  0.3152377092735186  0.545287287517358  1.0000
  H   H18       1.0  0.12828023931958565  0.6797699169582576  0.9011586111231029  1.0000
  H   H19       1.0  0.17974369100388476  0.525026509480236  0.894284947580358  1.0000
  H   H20       1.0  0.1868946244519371  0.6201582519869095  0.0494361836684738  1.0000
  Zn  Zn1       1.0  0.8246972204284014  0.36882652670157506  0.39684297897432064  1.0000
  Zn  Zn2       1.0  0.9893345699157686  0.36100092560495955  0.3941565293759337  1.0000
  C   C29       1.0  0.9062517232172588  0.36191664584577277  0.6587712962896934  1.0000
  C   C30       1.0  0.9077818648705581  0.3679123603647385  0.13222832439652185  1.0000
  C   C31       1.0  0.9070786452035481  0.6019966076782457  0.3897837738426714  1.0000
  C   C32       1.0  0.9069548861769572  0.12783084194352923  0.4012159244279232  1.0000
  O   O2        1.0  0.9701039009972473  0.36711688623958505  0.18491437301675617  1.0000
  O   O3        1.0  0.9688856269170184  0.35677168691667144  0.604045879523804  1.0000
  O   O4        1.0  0.9695525302760869  0.5506393447385454  0.38683656591822946  1.0000
  O   O5        1.0  0.9694369417745033  0.1732492394829468  0.4021235794602962  1.0000
  O   O6        1.0  0.8445947923870414  0.5565782154954326  0.38887592979912955  1.0000
  O   O7        1.0  0.8439278895526593  0.3627121169341384  0.6060851667294966  1.0000
  O   O8        1.0  0.8451461687103617  0.37305725669291223  0.18695192715865439  1.0000
  O   O9        1.0  0.8444792091686687  0.17918960154288244  0.4041612416734006  1.0000
