data_image0
_chemical_formula_structural       NC6NC2H4C6NH5C6IH3Zn2C4O8
_chemical_formula_sum              "N3 C24 H12 I1 Zn2 O8"
_cell_length_a       14.927258858638513
_cell_length_b       9.274771166103582
_cell_length_c       9.275433903346869
_cell_angle_alpha    86.06373460888793
_cell_angle_beta     89.9656234702017
_cell_angle_gamma    90.59705168739299

_space_group_name_H-M_alt    "P 1"
_space_group_IT_number       1

loop_
  _space_group_symop_operation_xyz
  'x, y, z'

loop_
  _atom_site_type_symbol
  _atom_site_label
  _atom_site_symmetry_multiplicity
  _atom_site_fract_x
  _atom_site_fract_y
  _atom_site_fract_z
  _atom_site_occupancy
  N   N1        1.0  0.8542734771828934  0.5617184012795566  0.40768693739224693  1.0000
  C   C1        1.0  0.7767469858273581  0.5617183728754515  0.4076869480286168  1.0000
  C   C2        1.0  0.6803144790436826  0.5617184874718271  0.40768689797912705  1.0000
  C   C3        1.0  0.6331471509763198  0.536674510614267  0.2810977331764768  1.0000
  C   C4        1.0  0.5394358398393609  0.5366745348371054  0.2810975997277583  1.0000
  C   C5        1.0  0.492498413896375  0.5617183100760563  0.4076869169251156  1.0000
  C   C6        1.0  0.39606584012118473  0.5617184246753337  0.4076868668696987  1.0000
  N   N2        1.0  0.31853934876564943  0.5617183962712287  0.40768687750606825  1.0000
  C   C7        1.0  0.5396656749722236  0.5867622869365189  0.5342760817218385  1.0000
  C   C8        1.0  0.6333769861091814  0.5867622627136797  0.5342762151705571  1.0000
  H   H1        1.0  0.6687539075563085  0.5171888832546214  0.18260409761481444  1.0000
  H   H2        1.0  0.5036502533261137  0.5171890807885324  0.18260409232055788  1.0000
  H   H3        1.0  0.5040589852804107  0.6062479051255882  0.632769825341911  1.0000
  H   H4        1.0  0.6691625732171685  0.6062478152853212  0.632769832382365  1.0000
  C   C9        1.0  0.08366014511467662  0.13813019432349516  0.4084723306454079  1.0000
  C   C10       1.0  0.0630847774251817  0.22006792621647175  0.2796141634404654  1.0000
  C   C11       1.0  0.050873773813601614  0.15363882203791324  0.14993844630872993  1.0000
  C   C12       1.0  0.05928538694438504  0.0038845195269132677  0.14818164303652193  1.0000
  C   C13       1.0  0.07820473044035281  0.9206085258109039  0.27526967588921614  1.0000
  C   C14       1.0  0.0891612066678496  0.9852956527606693  0.4069140179949858  1.0000
  N   N3        1.0  0.030849233282413308  0.23866098357326537  0.019664053114784256  1.0000
  H   H5        1.0  0.18438390031719265  0.22114581416851767  0.7238279049827794  1.0000
  H   H6        1.0  0.05031424862166947  0.9513357426512038  0.0484092616841394  1.0000
  H   H7        1.0  0.15337114040096023  0.6905121354079764  0.6214674661125557  1.0000
  H   H8        1.0  0.024677021623244588  0.3507343871350779  0.019617251913151224  1.0000
  H   H9        1.0  0.02196171356062028  0.1901546276088748  0.9222613845414879  1.0000
  C   C15       1.0  0.08653867409323752  0.5572107579350706  0.9845491129655041  1.0000
  C   C16       1.0  0.1690428656082995  0.5545103208305555  0.05800893605974201  1.0000
  C   C17       1.0  0.2498155762301878  0.5651020231538444  0.9818707021463765  1.0000
  C   C18       1.0  0.24937900900227408  0.5787309263095233  0.8312999884902418  1.0000
  C   C19       1.0  0.16837850936512222  0.5792510274900426  0.7563236544571152  1.0000
  C   C20       1.0  0.08628265452137462  0.5662150059131612  0.8308371733124738  1.0000
  I   I1        1.0  0.37251153044176505  0.5631871484888515  0.09465860343382596  1.0000
  H   H10       1.0  0.8735442911284301  0.6426668843007013  0.08188155389733698  1.0000
  H   H11       1.0  0.3119158675805709  0.5875485572064565  0.7720728295374789  1.0000
  H   H12       1.0  0.9423956991128901  0.617683492207753  0.5462669887977945  1.0000
  Zn  Zn1       1.0  0.9882505593895528  0.5617146232549732  0.4076952533381133  1.0000
  Zn  Zn2       1.0  0.18456219714404126  0.5617104848700034  0.4076904035276897  1.0000
  C   C21       1.0  0.0862917414124076  0.5587666174864236  0.6708812046092985  1.0000
  C   C22       1.0  0.086523170613654  0.5646603121206399  0.1445045902847702  1.0000
  C   C23       1.0  0.08811850393901444  0.8251022229412985  0.40146648772251253  1.0000
  C   C24       1.0  0.08469632982294328  0.2983229744491136  0.41391938718412036  1.0000
  O   O1        1.0  0.16101717008218927  0.5671525870965661  0.19818528078244602  1.0000
  O   O2        1.0  0.1607937257168276  0.5562701089763156  0.6171964204223075  1.0000
  O   O3        1.0  0.16226785482094197  0.7713394946172973  0.3996421276482822  1.0000
  O   O4        1.0  0.1595429740898987  0.35208321062615977  0.41573946549806096  1.0000
  O   O5        1.0  0.013269715452179927  0.7713418975017188  0.3996461913618151  1.0000
  O   O6        1.0  0.011795597620654739  0.5562742440802899  0.6172004041173491  1.0000
  O   O7        1.0  0.012019042243274216  0.5671566535018362  0.1981875321335127  1.0000
  O   O8        1.0  0.010544846147644955  0.352087267863756  0.41574182490161093  1.0000
