data_image0
_chemical_formula_structural       NC8NC6H8C12ClH9C12IH9Zn2C4O8
_chemical_formula_sum              "N2 C42 H26 Cl1 I1 Zn2 O8"
_cell_length_a       17.457602349358154
_cell_length_b       10.299768534541528
_cell_length_c       10.299773350644648
_cell_angle_alpha    85.54596918474078
_cell_angle_beta     92.88561579931032
_cell_angle_gamma    91.7063886151948

_space_group_name_H-M_alt    "P 1"
_space_group_IT_number       1

loop_
  _space_group_symop_operation_xyz
  'x, y, z'

loop_
  _atom_site_type_symbol
  _atom_site_label
  _atom_site_symmetry_multiplicity
  _atom_site_fract_x
  _atom_site_fract_y
  _atom_site_fract_z
  _atom_site_occupancy
  N   N1        1.0  0.7225689350266985  0.4532015354691051  0.626544663514756  1.0000
  C   C1        1.0  0.6614812709428749  0.40727957004798343  0.6159271944841926  1.0000
  C   C2        1.0  0.5854856357885384  0.35015835676984897  0.6027286052660443  1.0000
  C   C3        1.0  0.5269718080597797  0.39029925179521846  0.6776284389922631  1.0000
  C   C4        1.0  0.4524147164594036  0.3352961168282069  0.665044369504824  1.0000
  C   C5        1.0  0.3903108419509683  0.377678924143946  0.7443661295362274  1.0000
  C   C6        1.0  0.3157623355829982  0.39616259452003333  0.6886027457215986  1.0000
  C   C7        1.0  0.2572484804663299  0.4361195355471896  0.7636105275851204  1.0000
  C   C8        1.0  0.1812617213057805  0.45520966648409633  0.7056316832327545  1.0000
  N   N2        1.0  0.12018128225207983  0.470551752063032  0.6590168431944585  1.0000
  C   C9        1.0  0.27279106390170865  0.45783580557205883  0.894890224437623  1.0000
  C   C10       1.0  0.3465549772235667  0.4397410121467888  0.9510412240014509  1.0000
  C   C11       1.0  0.4050573054682559  0.39996399779699066  0.8764911742798198  1.0000
  C   C12       1.0  0.43765983250890345  0.23947506777833194  0.5761275086211177  1.0000
  C   C13       1.0  0.49616203331661785  0.1996127403549071  0.5016276920184359  1.0000
  C   C14       1.0  0.56993443330822  0.254728098289287  0.5147617205987727  1.0000
  H   H1        1.0  0.5393365031266745  0.46547466495577505  0.7442624794695256  1.0000
  H   H2        1.0  0.3034047121393906  0.3812205952637995  0.5865767516688583  1.0000
  H   H3        1.0  0.2279415925205934  0.48870211441188505  0.9537277295668896  1.0000
  H   H4        1.0  0.3583991493851927  0.4562407640967583  0.052694009673505016  1.0000
  H   H5        1.0  0.46154449612201054  0.3849595597416367  0.9225975325590441  1.0000
  H   H6        1.0  0.38116555486318426  0.19414277638432642  0.5654739434511238  1.0000
  H   H7        1.0  0.4843112449737053  0.12555411192231247  0.43379535876722963  1.0000
  H   H8        1.0  0.6147838325995165  0.22299195638730332  0.45643531421202055  1.0000
  C   C15       1.0  0.9213064136585062  0.08050823698513998  0.642773021701526  1.0000
  C   C16       1.0  0.9263464367441415  0.09033301820948125  0.5067159255565095  1.0000
  C   C17       1.0  0.9289740150718971  0.9781751621806802  0.4377881254355125  1.0000
  C   C18       1.0  0.9264929703952484  0.8550516904453218  0.5067433825861851  1.0000
  C   C19       1.0  0.921451142432938  0.8432353014437897  0.6428002692810657  1.0000
  C   C20       1.0  0.9188866635898155  0.9565221649139093  0.7100532155137227  1.0000
  C   C21       1.0  0.9343069594432607  0.9896226740039515  0.2938511432977129  1.0000
  C   C22       1.0  0.8906527414701221  0.08127922586487579  0.2158223117712208  1.0000
  C   C23       1.0  0.8957406199105701  0.09186113594133882  0.08035830121368903  1.0000
  C   C24       1.0  0.9444084648111066  0.011305874349099687  0.021225203143664165  1.0000
  C   C25       1.0  0.9880499656536113  0.9199614456074192  0.09774177802799167  1.0000
  C   C26       1.0  0.9830983351202808  0.9089932253924018  0.23323155890884384  1.0000
  Cl  Cl1       1.0  0.9507064784909468  0.024824767621253845  0.8512548284561139  1.0000
  H   H9        1.0  0.9193465507329314  0.4042165451628042  0.694611004863356  1.0000
  H   H10       1.0  0.9292993442873119  0.185489370067599  0.454224579598675  1.0000
  H   H11       1.0  0.9274436538178658  0.7682745791782203  0.4538749642082613  1.0000
  H   H12       1.0  0.914997740780426  0.948174575839982  0.8150149386406808  1.0000
  H   H13       1.0  0.9195605179935561  0.5112802898230093  0.6946517079755892  1.0000
  H   H14       1.0  0.8518656978151697  0.14354922531349912  0.2593980450552822  1.0000
  H   H15       1.0  0.8616712419460395  0.16250450564710128  0.021464257723182726  1.0000
  H   H16       1.0  0.025981222055122544  0.8576079727596394  0.05240667915451836  1.0000
  H   H17       1.0  0.018141133009863985  0.8386860695926466  0.2907107968590281  1.0000
  C   C27       1.0  0.9213422173016977  0.4619762720408885  0.26141448884830787  1.0000
  C   C28       1.0  0.9909030208449292  0.5340145059106522  0.26075956145146906  1.0000
  C   C29       1.0  0.026186894464853557  0.5704106252159811  0.1433006773547454  1.0000
  C   C30       1.0  0.9909767799624559  0.533803569886651  0.02549596749327132  1.0000
  C   C31       1.0  0.9214153342680156  0.4617673129240832  0.024158884285786716  1.0000
  C   C32       1.0  0.8869878652765684  0.4262559933073186  0.14261816521663162  1.0000
  C   C33       1.0  0.09977611981583889  0.6466187327974069  0.1436618119464994  1.0000
  C   C34       1.0  0.11186454329359008  0.7501643942347114  0.22446176013039287  1.0000
  C   C35       1.0  0.18116685347743686  0.8217800826318853  0.22460310136982906  1.0000
  C   C36       1.0  0.2391510878033272  0.7909509712221487  0.14434852874416726  1.0000
  C   C37       1.0  0.22780290186624666  0.6883238001899681  0.06375179280288035  1.0000
  C   C38       1.0  0.15857838006817215  0.616485536285347  0.06321085815058924  1.0000
  I   I1        1.0  0.3436339818359453  0.8991480492606239  0.14486529090836675  1.0000
  H   H18       1.0  0.8948141054143447  0.4345904656375379  0.5891107161287601  1.0000
  H   H19       1.0  0.018342753888602292  0.5604586220241268  0.3519778865950931  1.0000
  H   H20       1.0  0.017404413429938044  0.5631442205729456  0.9345420284585565  1.0000
  H   H21       1.0  0.8333244417170448  0.370682892699816  0.14235501730453692  1.0000
  H   H22       1.0  0.8949211814517745  0.43428299928563313  0.6961996148215563  1.0000
  H   H23       1.0  0.06738217326434381  0.7768010193095986  0.28622025705435417  1.0000
  H   H24       1.0  0.18967285554417734  0.9014274812294363  0.286885242247334  1.0000
  H   H25       1.0  0.2726625001083187  0.6639398440555173  0.0017330079954027652  1.0000
  H   H26       1.0  0.1514055380767192  0.5363554295958033  0.0011984926977879349  1.0000
  Zn  Zn1       1.0  0.8373112696267605  0.4582049484393876  0.6359229315407173  1.0000
  Zn  Zn2       1.0  0.005438932400964494  0.4655376883702411  0.6496492074059581  1.0000
  C   C39       1.0  0.9213988164861758  0.45663305972569274  0.879983505814697  1.0000
  C   C40       1.0  0.9213532218135304  0.46711129574030275  0.40558891054865986  1.0000
  C   C41       1.0  0.9214193340687964  0.6990649311619241  0.6376196168926269  1.0000
  C   C42       1.0  0.9213326465712732  0.2246778614818825  0.6479528639703025  1.0000
  O   O1        1.0  0.9851604857713363  0.4716117274557825  0.4591842134739399  1.0000
  O   O2        1.0  0.9851965581429556  0.4576970283305447  0.836805754782439  1.0000
  O   O3        1.0  0.9852122663771784  0.6534637926021991  0.6410951295399576  1.0000
  O   O4        1.0  0.9851447201589597  0.27584496999885144  0.6548947366574038  1.0000
  O   O5        1.0  0.8576054244950445  0.6478976643098888  0.6306773975983357  1.0000
  O   O6        1.0  0.8575897165467383  0.4521324603595338  0.8263879536503098  1.0000
  O   O7        1.0  0.8575536440678881  0.4660471146588423  0.4487648509303057  1.0000
  O   O8        1.0  0.8575378784599452  0.27028034788629984  0.6444754714818517  1.0000
