data_image0
_chemical_formula_structural       NC9NC5H8C6NH7C8H8Zn2C4O8
_chemical_formula_sum              "N3 C32 H23 Zn2 O8"
_cell_length_a       17.807436237873137
_cell_length_b       9.274771166103582
_cell_length_c       9.275657083861812
_cell_angle_alpha    85.75447622105526
_cell_angle_beta     88.90332225934053
_cell_angle_gamma    88.98784114054227

_space_group_name_H-M_alt    "P 1"
_space_group_IT_number       1

loop_
  _space_group_symop_operation_xyz
  'x, y, z'

loop_
  _atom_site_type_symbol
  _atom_site_label
  _atom_site_symmetry_multiplicity
  _atom_site_fract_x
  _atom_site_fract_y
  _atom_site_fract_z
  _atom_site_occupancy
  N   N1        1.0  0.7230096175809027  0.5323605035164838  0.3953370852490976  1.0000
  C   C1        1.0  0.6622639630982651  0.49322033541204613  0.38317509156334495  1.0000
  C   C2        1.0  0.5867030455531156  0.4445342765293203  0.36804689183692463  1.0000
  C   C3        1.0  0.5687027565934123  0.36460979723090964  0.2516390275960343  1.0000
  C   C4        1.0  0.49533674727969457  0.3172150876264317  0.23685903472675965  1.0000
  C   C5        1.0  0.4389201840793795  0.3493254569881383  0.338451690865508  1.0000
  C   C6        1.0  0.3609513151052343  0.29908517890648834  0.3228352485987467  1.0000
  C   C7        1.0  0.2991407020253444  0.39002134195161187  0.35145425208938164  1.0000
  C   C8        1.0  0.2256310901184688  0.3424012613951079  0.33668988105308695  1.0000
  C   C9        1.0  0.16278487044847864  0.43632805595423196  0.3657070798611548  1.0000
  N   N2        1.0  0.11226946637002443  0.5118387070622301  0.38903611376009084  1.0000
  C   C10       1.0  0.2133471106244402  0.20355840714859452  0.29327891890642  1.0000
  C   C11       1.0  0.2743003118327636  0.11260681260161375  0.2646506319045308  1.0000
  C   C12       1.0  0.347689112507311  0.15978759017019817  0.27919101547963887  1.0000
  C   C13       1.0  0.4576137780304462  0.4298001842632915  0.4551018573018033  1.0000
  C   C14       1.0  0.531032281870925  0.47698255360778047  0.4697094742125934  1.0000
  H   H1        1.0  0.6113191046593605  0.3392150841014674  0.1720807989589837  1.0000
  H   H2        1.0  0.48251259251776163  0.2571125623217014  0.1449262503814832  1.0000
  H   H3        1.0  0.30808438017005624  0.4984178705714273  0.3833011354722764  1.0000
  H   H4        1.0  0.15672880843363118  0.16570183960173668  0.28159071962686544  1.0000
  H   H5        1.0  0.2646692409124858  0.005113766455211221  0.23146944828424898  1.0000
  H   H6        1.0  0.39402680537866586  0.08667117315697023  0.2581867048602855  1.0000
  H   H7        1.0  0.4157045911577175  0.454604052070148  0.5360982278120121  1.0000
  H   H8        1.0  0.544397371468963  0.5384342050770219  0.5604833630084367  1.0000
  C   C15       1.0  0.9153336130974989  0.09862867677298139  0.3930096800978556  1.0000
  C   C16       1.0  0.8986287102226558  0.18215591975411025  0.2643695852237422  1.0000
  C   C17       1.0  0.8889403044724269  0.11695091494914656  0.13479803352740083  1.0000
  C   C18       1.0  0.8960003994771437  0.9668340689475542  0.13292623623230027  1.0000
  C   C19       1.0  0.9113243279059725  0.8820511062189086  0.25981783154064764  1.0000
  C   C20       1.0  0.9199525389993206  0.9455591980118567  0.3913759688369396  1.0000
  N   N3        1.0  0.8727032426116309  0.20354571350502487  0.004733564691086216  1.0000
  H   H9        1.0  0.9984475343965598  0.17552781377447446  0.7071479636781828  1.0000
  H   H10       1.0  0.894844011187692  0.29894531252610856  0.2638771142729368  1.0000
  H   H11       1.0  0.8889016454299336  0.9152083712935877  0.03322824530551305  1.0000
  H   H12       1.0  0.9146530143735202  0.7656903954549645  0.2556354674460646  1.0000
  H   H13       1.0  0.9728791408338229  0.6468051680942603  0.6051598293260538  1.0000
  H   H14       1.0  0.8675284020072795  0.31589219152926423  0.0047705087902671925  1.0000
  H   H15       1.0  0.865664550613119  0.15594623484433745  0.9074052766308918  1.0000
  C   C21       1.0  0.9195444692608443  0.5198191859575136  0.9688461535878942  1.0000
  C   C22       1.0  0.9590521728090246  0.6276951540205782  0.03294467646879485  1.0000
  C   C23       1.0  0.9919612857904214  0.7420927873708386  0.948459682915685  1.0000
  C   C24       1.0  0.9864720926096928  0.7475718615204998  0.797900099489413  1.0000
  C   C25       1.0  0.9485902017252154  0.640256011695569  0.7323214673630609  1.0000
  C   C26       1.0  0.9157416680115271  0.5243686358676725  0.8155394927601876  1.0000
  C   C27       1.0  0.034972750100968675  0.8554983892817105  0.018750493002264616  1.0000
  C   C28       1.0  0.11725093762208273  0.8099995909544896  0.035339019805149974  1.0000
  H   H16       1.0  0.9629211442718227  0.6248168888337662  0.1496119968511398  1.0000
  H   H17       1.0  0.012274798436775926  0.8343746037604386  0.7309339615204644  1.0000
  H   H18       1.0  0.8261511818278147  0.36284619848020166  0.5494612230767975  1.0000
  H   H19       1.0  0.031430220515621166  0.960404036517943  0.9527748210379988  1.0000
  H   H20       1.0  0.010079678500467756  0.873147446557275  0.12699986730859195  1.0000
  H   H21       1.0  0.12203853148764399  0.7071318821180456  0.10419854355129265  1.0000
  H   H22       1.0  0.1436110248345157  0.7953341631243648  0.9277619478356836  1.0000
  H   H23       1.0  0.14792867157455603  0.8949720303366646  0.08724970491724093  1.0000
  Zn  Zn1       1.0  0.8353415418412324  0.5264345533120095  0.39352710592280205  1.0000
  Zn  Zn2       1.0  0.9999374065743285  0.5177529660962623  0.39085796756130464  1.0000
  C   C29       1.0  0.9164274744048522  0.5177639577284665  0.6555074079190566  1.0000
  C   C30       1.0  0.9188532806800472  0.5264252871552129  0.12887777440510376  1.0000
  C   C31       1.0  0.9191013904516713  0.7854406067390127  0.3859400038138223  1.0000
  C   C32       1.0  0.916179298674105  0.25874690896523467  0.39844525962306276  1.0000
  O   O1        1.0  0.9810845500353937  0.5253414467401658  0.18157293629627083  1.0000
  O   O2        1.0  0.9791206538237675  0.5122575842145212  0.6007860188739846  1.0000
  O   O3        1.0  0.9812790260804409  0.7284099159913616  0.38310844358737595  1.0000
  O   O4        1.0  0.9789261221550436  0.3091891276607887  0.39925040438096054  1.0000
  O   O5        1.0  0.8563527700920697  0.7349983947116114  0.38513467000640617  1.0000
  O   O6        1.0  0.8541944076260714  0.518847795078331  0.6028121650835498  1.0000
  O   O7        1.0  0.8561583113983  0.531931598036055  0.18359734933600197  1.0000
  O   O8        1.0  0.8539998829731784  0.3157792692233438  0.40127492552587074  1.0000
