data_image0
_chemical_formula_structural       NC5NC4H6C6BrH5C9H10Zn2C4O8
_chemical_formula_sum              "N2 C28 H21 Br1 Zn2 O8"
_cell_length_a       13.854160002989762
_cell_length_b       9.276564384272257
_cell_length_c       10.297187173949778
_cell_angle_alpha    85.51933545767109
_cell_angle_beta     89.97408711938004
_cell_angle_gamma    90.58592978602583

_space_group_name_H-M_alt    "P 1"
_space_group_IT_number       1

loop_
  _space_group_symop_operation_xyz
  'x, y, z'

loop_
  _atom_site_type_symbol
  _atom_site_label
  _atom_site_symmetry_multiplicity
  _atom_site_fract_x
  _atom_site_fract_y
  _atom_site_fract_z
  _atom_site_occupancy
  N   N1        1.0  0.9201961957446041  0.5780333888901985  0.5659729508940932  1.0000
  C   C1        1.0  0.8480539768326978  0.6032361071342855  0.512747829889326  1.0000
  C   C2        1.0  0.7583080436399346  0.6345889721262264  0.4465337416001048  1.0000
  C   C3        1.0  0.6705132917119366  0.6051167970572509  0.5111850467649621  1.0000
  C   C4        1.0  0.5831656313737978  0.6345889864516943  0.44653372070869973  1.0000
  C   C5        1.0  0.49294583443193596  0.6032359598379842  0.5127479125603098  1.0000
  N   N2        1.0  0.4204226247120384  0.5780333253984222  0.5659729508640667  1.0000
  C   C6        1.0  0.5836495035654171  0.6941396935141372  0.3172477464796173  1.0000
  C   C7        1.0  0.6714262759945941  0.7257618056115043  0.25250160579209857  1.0000
  C   C8        1.0  0.6718826222073714  0.7855522449466619  0.11286284153151693  1.0000
  C   C9        1.0  0.7587265926192822  0.694139692178035  0.3172476651319245  1.0000
  H   H1        1.0  0.6701633266074346  0.5589144217152731  0.611250101077129  1.0000
  H   H2        1.0  0.5159425185732947  0.7159176784216239  0.2670860461285507  1.0000
  H   H3        1.0  0.737210774751037  0.8537044565032379  0.0913773800713713  1.0000
  H   H4        1.0  0.607502297085553  0.8537044583877886  0.09137743871716486  1.0000
  H   H5        1.0  0.6712844549637782  0.6950266264155098  0.0484547045965018  1.0000
  H   H6        1.0  0.8267654784512778  0.7159177908857435  0.26708596906669  1.0000
  C   C10       1.0  0.1674058245230367  0.15455243409244868  0.5663051387623246  1.0000
  C   C11       1.0  0.1550759669303345  0.2380355032692907  0.4475818613362048  1.0000
  C   C12       1.0  0.15172868255113678  0.17303056509416548  0.3299675191230753  1.0000
  C   C13       1.0  0.16069055512636232  0.023623249680366998  0.3288432005986561  1.0000
  C   C14       1.0  0.17132058498088623  0.9384466063894215  0.4457711815104623  1.0000
  C   C15       1.0  0.17322216322736442  0.0015031465713157858  0.565651993465135  1.0000
  Br  Br1       1.0  0.15682120612430062  0.9352434256551967  0.1674557734756419  1.0000
  H   H7        1.0  0.139031068220963  0.4171336924911786  0.7774887383276339  1.0000
  H   H8        1.0  0.15031336983637825  0.3546915926963645  0.4453580408377349  1.0000
  H   H9        1.0  0.14308512268121576  0.23923843662529046  0.239485838622713  1.0000
  H   H10       1.0  0.17578750660699693  0.8222062407184675  0.44297059911715686  1.0000
  H   H11       1.0  0.22640119078559023  0.7035981193602181  0.7679646510531746  1.0000
  C   C16       1.0  0.17044123928754562  0.5779756767065511  0.18452547478883785  1.0000
  C   C17       1.0  0.07289576343216209  0.6175855200591189  0.18101301491488941  1.0000
  C   C18       1.0  0.02292033942033633  0.6378785684347671  0.06259707460918573  1.0000
  C   C19       1.0  0.07251762543405069  0.617738514088165  0.9457901718320922  1.0000
  C   C20       1.0  0.17018675378774076  0.5780799602411193  0.9474317040487424  1.0000
  C   C21       1.0  0.218510735446527  0.5584561057493242  0.0671881315667362  1.0000
  C   C22       1.0  0.9174178745341705  0.6807191499450718  0.06823026843391089  1.0000
  C   C23       1.0  0.8494444592672473  0.6227156407647059  0.9680031472876367  1.0000
  C   C24       1.0  0.8792392772723332  0.7818112600077494  0.956780966762349  1.0000
  H   H12       1.0  0.20803132776156152  0.5627258207936678  0.5134163385636032  1.0000
  H   H13       1.0  0.0352379346151963  0.6328774541013961  0.27107937062305454  1.0000
  H   H14       1.0  0.035904729014401005  0.6326024159110518  0.8531716075503182  1.0000
  H   H15       1.0  0.2937689246438663  0.527895562177791  0.0691707214536974  1.0000
  H   H16       1.0  0.3546524477890276  0.5031576659704735  0.7433169618338078  1.0000
  H   H17       1.0  0.8835078129110923  0.6944900566111646  0.164296929625952  1.0000
  H   H18       1.0  0.8816857304079556  0.5576261508462881  0.8935283589887225  1.0000
  H   H19       1.0  0.7742918668805403  0.6032029289955763  0.003136768151243754  1.0000
  H   H20       1.0  0.9295797433115179  0.8133634789922095  0.8754902459635208  1.0000
  H   H21       1.0  0.8214995861761762  0.8552833671620061  0.9853532997938458  1.0000
  Zn  Zn1       1.0  0.06455071419287205  0.5780295106840088  0.5659804632426269  1.0000
  Zn  Zn2       1.0  0.2760680228390786  0.5780254042241402  0.5659761157377154  1.0000
  C   C25       1.0  0.1701932415096965  0.5723152522950623  0.8032305181419541  1.0000
  C   C26       1.0  0.17042781773777982  0.5837414821469626  0.32872618688240385  1.0000
  C   C27       1.0  0.17211950640685436  0.8414107485878561  0.560599172777577  1.0000
  C   C28       1.0  0.16850146874304506  0.314644253268761  0.5713576028382226  1.0000
  O   O1        1.0  0.25069298643733834  0.5856686893728876  0.3771196181467309  1.0000
  O   O2        1.0  0.25046480854890474  0.5703838404033628  0.7548334141323287  1.0000
  O   O3        1.0  0.2520192092895659  0.7876818570424109  0.5589068849595422  1.0000
  O   O4        1.0  0.2491385136234825  0.3683706830380098  0.5730460499168804  1.0000
  O   O5        1.0  0.09148015122800475  0.7876842318731099  0.5589105290581116  1.0000
  O   O6        1.0  0.08992576240445604  0.5703879478224401  0.7548369876341059  1.0000
  O   O7        1.0  0.09015394053295477  0.5856727463252664  0.37712162994184806  1.0000
  O   O8        1.0  0.08859946761183002  0.3683747296891884  0.5730481591092849  1.0000
