data_image0
_chemical_formula_structural       NC12NC2H8C7OFH5C6NCONH8Zn2C4O8
_chemical_formula_sum              "N4 C32 H21 O10 F1 Zn2"
_cell_length_a       17.80743265337812
_cell_length_b       10.30014271059246
_cell_length_c       10.30027718507466
_cell_angle_alpha    85.54152341966102
_cell_angle_beta     91.5399624304493
_cell_angle_gamma    89.43524656556424

_space_group_name_H-M_alt    "P 1"
_space_group_IT_number       1

loop_
  _space_group_symop_operation_xyz
  'x, y, z'

loop_
  _atom_site_type_symbol
  _atom_site_label
  _atom_site_symmetry_multiplicity
  _atom_site_fract_x
  _atom_site_fract_y
  _atom_site_fract_z
  _atom_site_occupancy
  N   N1        1.0  0.7073248809291734  0.40705465690551385  0.6014429498780656  1.0000
  C   C1        1.0  0.6565003257892886  0.43663339137989876  0.5327487699922928  1.0000
  C   C2        1.0  0.5932695650069697  0.4734271888839573  0.4473018576780851  1.0000
  C   C3        1.0  0.6049875051743949  0.5274846345670943  0.3206904957515968  1.0000
  C   C4        1.0  0.543664264102154  0.5627741672886113  0.23763939577087884  1.0000
  C   C5        1.0  0.4704687342469929  0.5442699111854956  0.28053979888197267  1.0000
  C   C6        1.0  0.45777405306029817  0.49009352315714194  0.40761927423014743  1.0000
  C   C7        1.0  0.5199546090892475  0.45480724929276106  0.49065386352683826  1.0000
  C   C8        1.0  0.3800105142505524  0.47047430528796147  0.4533797836969191  1.0000
  C   C9        1.0  0.36123354967025  0.4976203758989342  0.5804176966588697  1.0000
  C   C10       1.0  0.2880080765955025  0.4791576788215124  0.6233586614354458  1.0000
  C   C11       1.0  0.23261665927508463  0.4332943926343145  0.5400996285374936  1.0000
  C   C12       1.0  0.1572546829219306  0.41427846306395066  0.5844414286654532  1.0000
  N   N2        1.0  0.096668990767703  0.39899093462198265  0.6200891855479718  1.0000
  C   C13       1.0  0.2507021701779104  0.4059792499163291  0.4136046505531822  1.0000
  C   C14       1.0  0.32387476971989804  0.42445681046374745  0.37040781344223234  1.0000
  H   H1        1.0  0.6614506488491149  0.5423183389137289  0.28625579225144837  1.0000
  H   H2        1.0  0.5528551491818336  0.6048994456983323  0.1398668329729349  1.0000
  H   H3        1.0  0.4238245542220826  0.5739242962295243  0.21495339286614046  1.0000
  H   H4        1.0  0.5114621068004049  0.41129676051430275  0.5883019544021338  1.0000
  H   H5        1.0  0.40291445652494307  0.5347778972818678  0.6459880318779361  1.0000
  H   H6        1.0  0.2745716444966443  0.5009721863691103  0.7213625903431917  1.0000
  H   H7        1.0  0.2083044061426447  0.3700888288797727  0.348447277189854  1.0000
  H   H8        1.0  0.3367828390059864  0.40110672898556254  0.27270716616085555  1.0000
  C   C15       1.0  0.9020007601014969  0.021670590856991197  0.6107720017686197  1.0000
  C   C16       1.0  0.9689233538342171  0.013643482542845304  0.6864337983095492  1.0000
  C   C17       1.0  0.002729290169525722  0.8923556902118737  0.7246544487596362  1.0000
  C   C18       1.0  0.9689232773943326  0.7783358700644246  0.6864340223084763  1.0000
  C   C19       1.0  0.9020002987962956  0.7843648753785674  0.6107716758768338  1.0000
  C   C20       1.0  0.8689174269766167  0.9064900451337966  0.5733684664005136  1.0000
  C   C21       1.0  0.07318975025505892  0.8839182937022363  0.8043159612812115  1.0000
  O   O1        1.0  0.1042786085687788  0.9852947716530536  0.8394634547977085  1.0000
  F   F1        1.0  0.10546014838380269  0.7664023373827169  0.8408016795053378  1.0000
  H   H9        1.0  0.8764625375602835  0.352168272035263  0.5818989473875771  1.0000
  H   H10       1.0  0.9948053347652638  0.10190332840924277  0.7156953684824131  1.0000
  H   H11       1.0  0.9948376552357454  0.6846744179746347  0.7157328411867873  1.0000
  H   H12       1.0  0.8173007957759423  0.9119064878486548  0.5150112258501667  1.0000
  H   H13       1.0  0.8764651184352791  0.4592277435599575  0.5819023327778776  1.0000
  C   C22       1.0  0.9019771049631332  0.40314609835752546  0.2294184799813055  1.0000
  C   C23       1.0  0.8240924054140344  0.38284908775466264  0.22632237438585598  1.0000
  C   C24       1.0  0.7846738208252025  0.37442706545601623  0.10733770777576755  1.0000
  C   C25       1.0  0.8241654639556533  0.3825744286583257  0.9911916174198754  1.0000
  C   C26       1.0  0.9020239756021504  0.4028893508940832  0.9921251665972312  1.0000
  C   C27       1.0  0.9404717129591444  0.4135670392399382  0.11174144654760297  1.0000
  N   N3        1.0  0.7051302434902965  0.3515757110649922  0.10272014968626596  1.0000
  C   C28       1.0  0.652792388810823  0.40438356977770673  0.1888609857487793  1.0000
  O   O2        1.0  0.6725697969688345  0.4912793938623772  0.2619432046125602  1.0000
  N   N4        1.0  0.5768881935867545  0.36131117442160376  0.18913717807930586  1.0000
  H   H14       1.0  0.9317726587151123  0.4089314444727341  0.5581779001734626  1.0000
  H   H15       1.0  0.7943576240718336  0.3709824096037488  0.3166194666380977  1.0000
  H   H16       1.0  0.7935973187608487  0.37402984491184776  0.8999647064296927  1.0000
  H   H17       1.0  0.0005377088214146836  0.42925716975312533  0.11331720964408087  1.0000
  H   H18       1.0  0.9317128626312414  0.4086256310301011  0.6652326153958427  1.0000
  H   H19       1.0  0.6831957641560988  0.30083247307362626  0.026564596377447663  1.0000
  H   H20       1.0  0.5592874164994347  0.2900183312065536  0.1287181903096004  1.0000
  H   H21       1.0  0.5382079972205894  0.40038343921807473  0.250281961268801  1.0000
  Zn  Zn1       1.0  0.8196811845335618  0.4047241711929437  0.6068313373399725  1.0000
  Zn  Zn2       1.0  0.9843126853264494  0.4013108237759973  0.6147113907095438  1.0000
  C   C29       1.0  0.902013427911122  0.39776448249402807  0.8479572116450615  1.0000
  C   C30       1.0  0.9019822397266068  0.4082721137058501  0.3735857299149261  1.0000
  C   C31       1.0  0.9019962045802233  0.6402012458683402  0.6055965852032503  1.0000
  C   C32       1.0  0.9019994068854694  0.16583379123903974  0.6159464229043137  1.0000
  O   O3        1.0  0.9644607595701538  0.40869143823541626  0.42496001516573056  1.0000
  O   O4        1.0  0.9644864078333746  0.39475352670091685  0.8025633307393845  1.0000
  O   O5        1.0  0.9644716576417047  0.5905242961643993  0.6068553698322549  1.0000
  O   O6        1.0  0.9644754535782577  0.21292067925926594  0.6206678760132329  1.0000
  O   O7        1.0  0.8395183601011016  0.593114316875899  0.600874849340377  1.0000
  O   O8        1.0  0.8395331102841562  0.397345107671138  0.7965827410040242  1.0000
  O   O9        1.0  0.8395074619750152  0.4112829744761719  0.418977864095801  1.0000
  O   O10       1.0  0.8395221559860335  0.21551220617891317  0.6146858223070247  1.0000
