data_image0
_chemical_formula_structural       NC6NCNCH5C9H9C6SCH6Zn2C4O8
_chemical_formula_sum              "N3 C28 H20 S1 Zn2 O8"
_cell_length_a       14.933214217465613
_cell_length_b       10.297183801781406
_cell_length_c       10.302812801239593
_cell_angle_alpha    85.53397989939683
_cell_angle_beta     89.96595459003231
_cell_angle_gamma    90.03175022610812

_space_group_name_H-M_alt    "P 1"
_space_group_IT_number       1

loop_
  _space_group_symop_operation_xyz
  'x, y, z'

loop_
  _atom_site_type_symbol
  _atom_site_label
  _atom_site_symmetry_multiplicity
  _atom_site_fract_x
  _atom_site_fract_y
  _atom_site_fract_z
  _atom_site_occupancy
  N   N1        1.0  0.8431941886670345  0.42247305861720696  0.5665091734271466  1.0000
  C   C1        1.0  0.7657039021674108  0.4233709022881669  0.5656166492369388  1.0000
  C   C2        1.0  0.6693054284134435  0.42449028399604805  0.5645037819323437  1.0000
  C   C3        1.0  0.6214835813628292  0.3382238630350632  0.6502764656030255  1.0000
  C   C4        1.0  0.527950127778224  0.33919935034788895  0.6493065879877111  1.0000
  C   C5        1.0  0.4813361687414314  0.42639183227730065  0.562613176568939  1.0000
  C   C6        1.0  0.3847606973695269  0.4244922267979418  0.5645019159137759  1.0000
  N   N2        1.0  0.30727510247976725  0.4229075361511967  0.5660772056802448  1.0000
  C   C7        1.0  0.5292567495709488  0.513747562899892  0.4757575330992518  1.0000
  N   N3        1.0  0.4839423972816953  0.6043740472207683  0.3856499849272137  1.0000
  C   C8        1.0  0.6232705868730881  0.5119017519025679  0.4775928845148225  1.0000
  H   H1        1.0  0.6564831753946966  0.270208591726927  0.7179024196019483  1.0000
  H   H2        1.0  0.4918686990892426  0.271756234100418  0.7163635465427083  1.0000
  H   H3        1.0  0.5202960849660732  0.6683831793229182  0.3220071660433461  1.0000
  H   H4        1.0  0.41420077910394454  0.6091961490999359  0.380855546175094  1.0000
  H   H5        1.0  0.6604764720025006  0.578666279434736  0.4112104829041978  1.0000
  C   C9        1.0  0.07524206046777504  0.04121472685933325  0.5664771550334082  1.0000
  C   C10       1.0  0.07263156226476067  0.0510722679581599  0.4298619653787871  1.0000
  C   C11       1.0  0.0712939205667118  0.9395060869418533  0.3598700088606235  1.0000
  C   C12       1.0  0.07262107169963586  0.8159011653125963  0.42933246547970566  1.0000
  C   C13       1.0  0.07523580577784728  0.8041558475891045  0.5661204525163461  1.0000
  C   C14       1.0  0.07652838163469333  0.9172887399510684  0.6337998773678388  1.0000
  C   C15       1.0  0.06847023466774682  0.9595999082729986  0.21211103487481367  1.0000
  C   C16       1.0  0.01603559720941194  0.8608339085565007  0.1398883193203153  1.0000
  C   C17       1.0  0.11805454727127329  0.86123762500089  0.1356690806899059  1.0000
  H   H6        1.0  0.07162395397786742  0.14630018819648516  0.3771209647220042  1.0000
  H   H7        1.0  0.0716392720189778  0.7283005415033091  0.3780560742285677  1.0000
  H   H8        1.0  0.07854198698628688  0.9089559967063615  0.7392013654251994  1.0000
  H   H9        1.0  0.08016240681294763  0.574755788553325  0.8244744547212051  1.0000
  H   H10       1.0  0.0675634745047029  0.060314624374073755  0.1646187023502954  1.0000
  H   H11       1.0  0.9861540119634722  0.7771684256696576  0.19899895777186694  1.0000
  H   H12       1.0  0.9844434996361451  0.9016773058575246  0.04806261020619362  1.0000
  H   H13       1.0  0.15014399574995263  0.7778181778880903  0.1922174359940394  1.0000
  H   H14       1.0  0.14608803635282386  0.902314609469201  0.04137621440118666  1.0000
  C   C18       1.0  0.07523895212629064  0.4226852928674567  0.18505035684824267  1.0000
  C   C19       1.0  0.0450382859954399  0.5522035740671347  0.17382062135231258  1.0000
  C   C20       1.0  0.02978052762786176  0.6164559642577443  0.05125777872274129  1.0000
  C   C21       1.0  0.045038205266993314  0.5522034376262315  0.9386694518019554  1.0000
  C   C22       1.0  0.07523889404245132  0.4226852840586994  0.9475472605359352  1.0000
  C   C23       1.0  0.09016405908393949  0.3585476964060006  0.07127751073725719  1.0000
  S   S1        1.0  0.9913786217581111  0.7820310762847359  0.038404769494376774  1.0000
  C   C24       1.0  0.8735891682484035  0.7365338830067025  0.04204775610875955  1.0000
  H   H15       1.0  0.033041358634368294  0.6036486038513622  0.259926782098463  1.0000
  H   H16       1.0  0.03304117935261641  0.603648416554422  0.8445764693707165  1.0000
  H   H17       1.0  0.11344293323501291  0.25863587826190404  0.07903310371104921  1.0000
  H   H18       1.0  0.8577106251471823  0.6787290090426163  0.9584432302050386  1.0000
  H   H19       1.0  0.857711008664418  0.678730322247604  0.13467792126780487  1.0000
  H   H20       1.0  0.8321437008424667  0.8261592496826986  0.0351079074467997  1.0000
  Zn  Zn1       1.0  0.9771179163282047  0.4225949537807758  0.5663920235899054  1.0000
  Zn  Zn2       1.0  0.17335136024314157  0.4227749839021917  0.5662050220228547  1.0000
  C   C25       1.0  0.07523695210718384  0.4175101533394478  0.8034214533347206  1.0000
  C   C26       1.0  0.07523446731378791  0.4278614253872062  0.3291757168959084  1.0000
  C   C27       1.0  0.07523236648014577  0.6599437280336726  0.5610143656766478  1.0000
  C   C28       1.0  0.07523898599288925  0.18542628989268506  0.5715828745642002  1.0000
  O   O1        1.0  0.14970253150285073  0.4296612359125893  0.3774745408586804  1.0000
  O   O2        1.0  0.14970553132482556  0.41584600151416623  0.7549803262396717  1.0000
  O   O3        1.0  0.14970082448748956  0.6116141781497455  0.5592348882106175  1.0000
  O   O4        1.0  0.14970717137893508  0.23389306850839953  0.5732198816032892  1.0000
  O   O5        1.0  0.000762038227566818  0.6114768691145465  0.5593771640664555  1.0000
  O   O6        1.0  0.0007667450479953407  0.4157102532192422  0.7551225321422763  1.0000
  O   O7        1.0  0.0007637452860600417  0.42952544234913126  0.3776151858748702  1.0000
  O   O8        1.0  0.0007683851585520438  0.23375726565353092  0.5733606239609097  1.0000
