data_image0
_chemical_formula_structural       NC8NC6H8C6BrH3C6FH3Zn2C4O8
_chemical_formula_sum              "N2 C30 H14 Br1 F1 Zn2 O8"
_cell_length_a       17.457602349358154
_cell_length_b       10.302969083221269
_cell_length_c       9.275646106892307
_cell_angle_alpha    84.95236398800574
_cell_angle_beta     92.91404810424501
_cell_angle_gamma    91.68807063265206

_space_group_name_H-M_alt    "P 1"
_space_group_IT_number       1

loop_
  _space_group_symop_operation_xyz
  'x, y, z'

loop_
  _atom_site_type_symbol
  _atom_site_label
  _atom_site_symmetry_multiplicity
  _atom_site_fract_x
  _atom_site_fract_y
  _atom_site_fract_z
  _atom_site_occupancy
  N   N1        1.0  0.7221033733687545  0.46698501896075006  0.47351438435558085  1.0000
  C   C1        1.0  0.6610229544301278  0.42118772527692633  0.461716197133956  1.0000
  C   C2        1.0  0.5850363324717199  0.3642215028662421  0.44704985705307293  1.0000
  C   C3        1.0  0.5265252418972752  0.40357288393016133  0.5302902628683257  1.0000
  C   C4        1.0  0.4519768465732452  0.3487176951784561  0.5163068018590149  1.0000
  C   C5        1.0  0.3898758950851536  0.3902644178653407  0.6044615486535048  1.0000
  C   C6        1.0  0.31531617390033984  0.40932055298290226  0.5424866290588054  1.0000
  C   C7        1.0  0.2568051057606606  0.44848691882895886  0.6258470133649172  1.0000
  C   C8        1.0  0.1808067104867548  0.46817229888132067  0.5614098560991962  1.0000
  N   N2        1.0  0.11971691722917913  0.48399296520731605  0.5096025495310794  1.0000
  C   C9        1.0  0.2723617151776923  0.4688347979026364  0.7717474777933355  1.0000
  C   C10       1.0  0.34613682311334804  0.4501633964816334  0.8341531693884039  1.0000
  C   C11       1.0  0.40463639351389724  0.41117215311747746  0.7513014912121972  1.0000
  C   C12       1.0  0.4372278521239917  0.25384918218351915  0.4174904048020519  1.0000
  C   C13       1.0  0.4957273182174664  0.2147721318209368  0.3346945579973646  1.0000
  C   C14       1.0  0.569491076659073  0.26973380431783345  0.3492892268152712  1.0000
  H   H1        1.0  0.5388848844949969  0.4780334018179638  0.6043428530673003  1.0000
  H   H2        1.0  0.3029472828031656  0.3954414059204876  0.4290978080609833  1.0000
  H   H3        1.0  0.22751452039021683  0.49908111590857246  0.8371369393017827  1.0000
  H   H4        1.0  0.35799191579005424  0.4656036729784776  0.9471271527845065  1.0000
  H   H5        1.0  0.4611328040247132  0.3956943007623692  0.8025436690160974  1.0000
  H   H6        1.0  0.38074070275552674  0.20864174995077  0.4056520776195649  1.0000
  H   H7        1.0  0.48388120482217645  0.14144047217326294  0.2593101673684941  1.0000
  H   H8        1.0  0.614338435036554  0.23861262836785915  0.2844678237511953  1.0000
  C   C15       1.0  0.9209138060725071  0.09424156174135591  0.49156508276799  1.0000
  C   C16       1.0  0.00046191020277408154  0.09449722976203746  0.5231092914171734  1.0000
  C   C17       1.0  0.039922051426337896  0.9776862060024565  0.5387567295667741  1.0000
  C   C18       1.0  0.00046197038506479144  0.8594148753639408  0.5231090230123506  1.0000
  C   C19       1.0  0.9209138178483369  0.8567265805200454  0.4915649881492545  1.0000
  C   C20       1.0  0.8815239016802713  0.9747552122979681  0.4759452746089452  1.0000
  Br  Br1       1.0  0.14812116638987524  0.9796883100311036  0.5816626742704762  1.0000
  H   H9        1.0  0.03212850631162214  0.18508249820589473  0.5356666032710482  1.0000
  H   H10       1.0  0.03212859645446575  0.7700015741581638  0.5356659612995192  1.0000
  H   H11       1.0  0.8201733445130628  0.9736199347363705  0.4516173606768196  1.0000
  C   C21       1.0  0.9208245205273817  0.47954375287957457  0.06771649261760547  1.0000
  C   C22       1.0  0.9910736247093853  0.49611762312025554  0.14615328770007485  1.0000
  C   C23       1.0  0.0603717330309701  0.5004604789587865  0.07699709952649614  1.0000
  C   C24       1.0  0.060637767023484564  0.4881754297442924  0.9286449920918507  1.0000
  C   C25       1.0  0.9915909187455836  0.47381768022186654  0.8483853568064035  1.0000
  C   C26       1.0  0.9210030749239452  0.47142442326266165  0.915413582410053  1.0000
  F   F1        1.0  0.12755977597798518  0.5150556850448098  0.15453042807397033  1.0000
  H   H12       1.0  0.742919803238719  0.36645827928715186  0.16472243662402009  1.0000
  H   H13       1.0  0.1144391405460772  0.4910199102873134  0.8752127458349688  1.0000
  H   H14       1.0  0.8005614208091513  0.4006005718100001  0.6296363194083292  1.0000
  Zn  Zn1       1.0  0.8368460549894725  0.4718895834406436  0.4839369829806239  1.0000
  Zn  Zn2       1.0  0.004974223847809433  0.4790776431139214  0.49919176776262675  1.0000
  C   C27       1.0  0.9209676354702832  0.4677870314830021  0.7551805307697943  1.0000
  C   C28       1.0  0.9208544793512468  0.4831819103060054  0.22794852821963785  1.0000
  C   C29       1.0  0.9209086557213898  0.7126556156013018  0.48581303601375153  1.0000
  C   C30       1.0  0.9209134017459322  0.23831176319201397  0.49731609472139215  1.0000
  O   O1        1.0  0.9846682976805401  0.48712507642066477  0.28751297442982016  1.0000
  O   O2        1.0  0.984759206995904  0.4692984609089624  0.7071936977498531  1.0000
  O   O3        1.0  0.9847107203136884  0.6670328882231222  0.48967746187336364  1.0000
  O   O4        1.0  0.9847167269692019  0.28939065697752486  0.50502909687992  1.0000
  O   O5        1.0  0.8571034944941853  0.6615765671255942  0.47809964865002885  1.0000
  O   O6        1.0  0.857151981156715  0.4638437003556788  0.6956158075675063  1.0000
  O   O7        1.0  0.8570610715267981  0.48167028724912053  0.2759333489312996  1.0000
  O   O8        1.0  0.8571095008351195  0.28393585748351424  0.49344957959448865  1.0000
