data_image0
_chemical_formula_structural       NC11NC3H8C10FC2H9C10IC2H9Zn2C4O8
_chemical_formula_sum              "N2 C42 H26 F1 I1 Zn2 O8"
_cell_length_a       17.807433833752565
_cell_length_b       10.299764965457928
_cell_length_c       10.299773630820606
_cell_angle_alpha    85.54414550411518
_cell_angle_beta     88.52986386144698
_cell_angle_gamma    90.70302191399561

_space_group_name_H-M_alt    "P 1"
_space_group_IT_number       1

loop_
  _space_group_symop_operation_xyz
  'x, y, z'

loop_
  _atom_site_type_symbol
  _atom_site_label
  _atom_site_symmetry_multiplicity
  _atom_site_fract_x
  _atom_site_fract_y
  _atom_site_fract_z
  _atom_site_occupancy
  N   N1        1.0  0.70760233214121  0.4389220419730776  0.5346992777507991  1.0000
  C   C1        1.0  0.6567799475906654  0.4041748667711958  0.6012603609739297  1.0000
  C   C2        1.0  0.593551775664554  0.360952245912582  0.684053854338359  1.0000
  C   C3        1.0  0.605273620055405  0.2973643267259922  0.8067699507046697  1.0000
  C   C4        1.0  0.5439530319351196  0.25582217916580596  0.8872795707176298  1.0000
  C   C5        1.0  0.4707562277041991  0.27755448521936027  0.8457138783529726  1.0000
  C   C6        1.0  0.45805759420618414  0.34129709782145  0.7225375915410094  1.0000
  C   C7        1.0  0.3802926700470619  0.36436037830680895  0.6781912985012625  1.0000
  C   C8        1.0  0.36149905297480844  0.3475285365136901  0.5486112922877433  1.0000
  C   C9        1.0  0.2882722966709051  0.3692221285519351  0.5070015276934481  1.0000
  C   C10       1.0  0.23289609922108678  0.4080663425219141  0.5941515081354225  1.0000
  C   C11       1.0  0.1575326715274893  0.4304188179321946  0.5511804739750088  1.0000
  N   N2        1.0  0.0969458489618889  0.448388547576579  0.5166348899325397  1.0000
  C   C12       1.0  0.2509981637008429  0.4251089248158826  0.723200388770701  1.0000
  C   C13       1.0  0.3241721653862251  0.4033803236689981  0.7650655802655848  1.0000
  C   C14       1.0  0.520235494236429  0.38283467538273513  0.6420443871426593  1.0000
  H   H1        1.0  0.6617379466488241  0.27993961276335194  0.8401348524858153  1.0000
  H   H2        1.0  0.5531469704603322  0.20634083754735724  0.9820138988728596  1.0000
  H   H3        1.0  0.424113912038975  0.2429790065866695  0.9091517007915146  1.0000
  H   H4        1.0  0.40316785909687  0.3159083156971445  0.4798943995577942  1.0000
  H   H5        1.0  0.2748229057403591  0.35537259920126085  0.40696725991694827  1.0000
  H   H6        1.0  0.2086123191640113  0.45550628919449343  0.7914024854093402  1.0000
  H   H7        1.0  0.3370934016531509  0.41877530593353274  0.8649171335951177  1.0000
  H   H8        1.0  0.5117402990967136  0.43367828522703955  0.5475444078183168  1.0000
  C   C15       1.0  0.902206827112489  0.062288122395516274  0.5256681829813671  1.0000
  C   C16       1.0  0.9070885486671134  0.07201654882426058  0.3889658239792374  1.0000
  C   C17       1.0  0.9096343289103346  0.9598085460950903  0.3197003158836303  1.0000
  C   C18       1.0  0.907231867827539  0.8367324268292031  0.3889746469616138  1.0000
  C   C19       1.0  0.9023485475270345  0.8250126442742489  0.525676827537954  1.0000
  C   C20       1.0  0.8998637822742326  0.9383484026886925  0.5932578343315196  1.0000
  C   C21       1.0  0.9147995037539892  0.9711540246174959  0.1750783429655176  1.0000
  C   C22       1.0  0.9625357588684484  0.8895144054993036  0.10817989242981942  1.0000
  C   C23       1.0  0.9673113575167728  0.9004239360969938  0.9720438985789351  1.0000
  C   C24       1.0  0.9245794869707363  0.9926360268425879  0.9012365570574224  1.0000
  F   F1        1.0  0.9292936062360836  0.0029906933398313545  0.7692385948779721  1.0000
  C   C25       1.0  0.87698739557478  0.07417249759670753  0.9665153761750744  1.0000
  C   C26       1.0  0.8720395193605379  0.06372413588514793  0.1026408735498774  1.0000
  H   H9        1.0  0.9003126163448327  0.3860340103174776  0.5777589060621907  1.0000
  H   H10       1.0  0.9099600675997931  0.16711651303777678  0.33609819065416513  1.0000
  H   H11       1.0  0.9081411261231297  0.7499366540521666  0.33598686741485234  1.0000
  H   H12       1.0  0.8960971040371157  0.9300753116634007  0.6987171520302595  1.0000
  H   H13       1.0  0.9005212417151305  0.4930935421730054  0.5777717771192825  1.0000
  H   H14       1.0  0.9968586249008256  0.8184800135385909  0.16113901978959233  1.0000
  H   H15       1.0  0.004352467325628993  0.8374644870092353  0.9215205479174058  1.0000
  H   H16       1.0  0.8437088072445552  0.14539630978505055  0.9116880038145619  1.0000
  H   H17       1.0  0.8340918076310473  0.12679640911187873  0.15117656085761302  1.0000
  C   C27       1.0  0.9022578850368719  0.4437680374983126  0.1443033102764022  1.0000
  C   C28       1.0  0.9780087485400315  0.4838013999730353  0.13683707039733162  1.0000
  C   C29       1.0  0.016412255274772747  0.503966962860311  0.01592370502546769  1.0000
  C   C30       1.0  0.9780487045632206  0.4835635834188577  0.9015673694404203  1.0000
  C   C31       1.0  0.9022974644768972  0.44353276438214906  0.9070416726234894  1.0000
  C   C32       1.0  0.8648263226501225  0.42385848823114586  0.028871361490963476  1.0000
  C   C33       1.0  0.09654949851220396  0.5463175222881466  0.00907869432998521  1.0000
  C   C34       1.0  0.14780103665819966  0.4915500835265276  0.9232519325420325  1.0000
  C   C35       1.0  0.2232060699052369  0.5315367436347453  0.9170116405725683  1.0000
  C   C36       1.0  0.24832528299880005  0.626529000428695  0.9961128166386422  1.0000
  I   I1        1.0  0.3621038152771882  0.6866599155580712  0.9863925187775011  1.0000
  C   C37       1.0  0.1979434702955709  0.6816196251763591  0.08166407005925393  1.0000
  C   C38       1.0  0.1224962993126637  0.6418831014920008  0.08831067672306925  1.0000
  H   H18       1.0  0.873383685688636  0.4285701827885926  0.47459762523628957  1.0000
  H   H19       1.0  0.007613083282318466  0.49767305674675943  0.22537690230848018  1.0000
  H   H20       1.0  0.0071048612524373675  0.5006922015807787  0.808017196055169  1.0000
  H   H21       1.0  0.8063878208596804  0.39297560888933664  0.03386282600272118  1.0000
  H   H22       1.0  0.8734421132053228  0.428223807503066  0.5816779821697877  1.0000
  H   H23       1.0  0.12978052893405811  0.4166523299822116  0.8622483510412282  1.0000
  H   H24       1.0  0.2621092612407592  0.48839719434829587  0.8508972907140786  1.0000
  H   H25       1.0  0.21715414008151732  0.7554716593808545  0.14281376507216148  1.0000
  H   H26       1.0  0.08426544510127432  0.6870529480334316  0.15411979778092477  1.0000
  Zn  Zn1       1.0  0.8199584603545059  0.4416503940697865  0.5294937701237055  1.0000
  Zn  Zn2       1.0  0.9845897045644848  0.4456495726684388  0.5218509834606081  1.0000
  C   C39       1.0  0.902287351940173  0.4384035101082562  0.7628678363915173  1.0000
  C   C40       1.0  0.9022626110579337  0.4488981388739897  0.2884769612189346  1.0000
  C   C41       1.0  0.9023176105457623  0.6808429759830092  0.5205002025948873  1.0000
  C   C42       1.0  0.9022322959889182  0.20645711131745959  0.5308446668444977  1.0000
  O   O1        1.0  0.9647408952959065  0.4521318494793019  0.333962557745625  1.0000
  O   O2        1.0  0.9647603725484639  0.4382041039217307  0.7115811677721571  1.0000
  O   O3        1.0  0.9647839646094496  0.6339770178056274  0.5158676278047895  1.0000
  O   O4        1.0  0.9647172470541011  0.2563589435509783  0.5296760029463233  1.0000
  O   O5        1.0  0.8398308616843257  0.6309410218239396  0.5216687532392672  1.0000
  O   O6        1.0  0.8398072699062011  0.43516966825851205  0.7173822239789784  1.0000
  O   O7        1.0  0.8397877926141609  0.44909736904323005  0.339762052547767  1.0000
  O   O8        1.0  0.839764144372611  0.25332445379602575  0.5354755951164121  1.0000
