data_image0
_chemical_formula_structural       NC11NC3H8C7OC6H10C7OC7H12Zn2C4O8
_chemical_formula_sum              "N2 C45 H30 O10 Zn2"
_cell_length_a       17.807433833752565
_cell_length_b       10.299379429549807
_cell_length_c       10.299362532796529
_cell_angle_alpha    85.55652278512687
_cell_angle_beta     88.53944106115836
_cell_angle_gamma    90.68187924927143

_space_group_name_H-M_alt    "P 1"
_space_group_IT_number       1

loop_
  _space_group_symop_operation_xyz
  'x, y, z'

loop_
  _atom_site_type_symbol
  _atom_site_label
  _atom_site_symmetry_multiplicity
  _atom_site_fract_x
  _atom_site_fract_y
  _atom_site_fract_z
  _atom_site_occupancy
  N   N1        1.0  0.7071548685136418  0.4380934053785286  0.5341440107135571  1.0000
  C   C1        1.0  0.6563464619469855  0.4033858296153047  0.6007180829056651  1.0000
  C   C2        1.0  0.5931356771743928  0.36021246530452367  0.6835277335169514  1.0000
  C   C3        1.0  0.6048831939308434  0.2966975844047339  0.8062675876919854  1.0000
  C   C4        1.0  0.5435794121170429  0.2552033658739044  0.8867927241796251  1.0000
  C   C5        1.0  0.4703738720294378  0.2769109452405403  0.8452189071159877  1.0000
  C   C6        1.0  0.4576494872613787  0.3405802403001619  0.7220188068744358  1.0000
  C   C7        1.0  0.3798752683175631  0.3636171321098166  0.6776638947087441  1.0000
  C   C8        1.0  0.3610719549964401  0.3467027940976195  0.5480923586608986  1.0000
  C   C9        1.0  0.287836466378141  0.3683716292800721  0.5064744854308989  1.0000
  C   C10       1.0  0.2324610832945755  0.4072730876114512  0.5936077707285676  1.0000
  C   C11       1.0  0.15708864814606  0.4295999929900254  0.5506283829670855  1.0000
  N   N2        1.0  0.0964945842492696  0.4475491661877382  0.5160760832508274  1.0000
  C   C12       1.0  0.2505727462792435  0.42439784588376384  0.7226481041358102  1.0000
  C   C13       1.0  0.32375551353056037  0.4026941598459104  0.7645214148178343  1.0000
  C   C14       1.0  0.5198105836031783  0.382069898854177  0.6415100876066089  1.0000
  H   H1        1.0  0.6613545287015847  0.279292719896697  0.8396390032520984  1.0000
  H   H2        1.0  0.5527932506230242  0.20577838319771047  0.981545549826688  1.0000
  H   H3        1.0  0.4237451809204554  0.24237311458464797  0.9086696919541025  1.0000
  H   H4        1.0  0.4027403246730724  0.31503737320865044  0.4793890262652997  1.0000
  H   H5        1.0  0.2743797674474298  0.354458359065281  0.40644709839737914  1.0000
  H   H6        1.0  0.2081875393540789  0.4548400086354245  0.79083713602055  1.0000
  H   H7        1.0  0.336683718763169  0.41815286704444676  0.8643654723037406  1.0000
  H   H8        1.0  0.5112952298714863  0.4328573841607508  0.5469910632762185  1.0000
  C   C15       1.0  0.9018365374516913  0.061429714899185354  0.5252635397045933  1.0000
  C   C16       1.0  0.9473937411393626  0.052683148654624874  0.6348937363064344  1.0000
  C   C17       1.0  0.9696674164000427  0.931015546323298  0.6910718722642657  1.0000
  C   C18       1.0  0.9473022562028831  0.8174587662656069  0.634621702554218  1.0000
  C   C19       1.0  0.9018201006658901  0.8242030486490503  0.5249673982977925  1.0000
  C   C20       1.0  0.8791879227018925  0.946665259706454  0.4711290668029182  1.0000
  C   C21       1.0  0.01842475218405749  0.9217122415166489  0.8060053625177477  1.0000
  O   O1        1.0  0.06608705681235127  0.8320873036892698  0.8161495689463765  1.0000
  C   C22       1.0  0.013108070237213497  0.013981698983313695  0.9094356803639667  1.0000
  C   C23       1.0  0.07737896438203129  0.04503018926564683  0.9780149157887896  1.0000
  C   C24       1.0  0.07274098071614121  0.130708530154366  0.07672129906382308  1.0000
  C   C25       1.0  0.003927944105505568  0.185340073401276  0.1086725866700805  1.0000
  C   C26       1.0  0.939542218269092  0.15398064138778111  0.04234275355256012  1.0000
  C   C27       1.0  0.9438785025681257  0.06837459814198389  0.9435627052206593  1.0000
  H   H9        1.0  0.8168151680986343  0.28536800693014763  0.31718011186270045  1.0000
  H   H10       1.0  0.966297617863783  0.14074356755570427  0.675852989592733  1.0000
  H   H11       1.0  0.964895554163672  0.723598483577575  0.6772419570536639  1.0000
  H   H12       1.0  0.8440671054623278  0.9526041186828159  0.3866118258505961  1.0000
  H   H13       1.0  0.8848706774063861  0.49939887758662044  0.4821868784644862  1.0000
  H   H14       1.0  0.13126971965195278  0.003887159257922157  0.9544669336071931  1.0000
  H   H15       1.0  0.12254856096803768  0.1547055999415088  0.1285053301054624  1.0000
  H   H16       1.0  0.00044034047868990727  0.25155011976272657  0.18517455406262773  1.0000
  H   H17       1.0  0.8861351808369857  0.19557480150705864  0.06786809042591424  1.0000
  H   H18       1.0  0.8930339043038514  0.04366845805034215  0.8949865079265912  1.0000
  C   C28       1.0  0.9017696893893802  0.442694412412171  0.1437513616592454  1.0000
  C   C29       1.0  0.8304581153575264  0.38227850815265146  0.15037119531681675  1.0000
  C   C30       1.0  0.7941666759647731  0.3531219640251986  0.036553055692315484  1.0000
  C   C31       1.0  0.830669673352775  0.3824472133978736  0.9151070140814793  1.0000
  C   C32       1.0  0.90188695495243  0.442938328568121  0.9064796010018674  1.0000
  C   C33       1.0  0.936964332068521  0.4729670374315171  0.0213625765198302  1.0000
  C   C34       1.0  0.7192455091245661  0.28800107593947133  0.04585735110143574  1.0000
  O   O2        1.0  0.7038984468274502  0.20841720762214  0.14249695188119182  1.0000
  C   C35       1.0  0.6617377857047119  0.3131571504498887  0.9456009504339828  1.0000
  C   C36       1.0  0.6559579615993896  0.43639640904733445  0.877967751846835  1.0000
  C   C37       1.0  0.600969109600111  0.4592419069445174  0.7848146045147518  1.0000
  C   C38       1.0  0.5504361265016584  0.36034472960272385  0.7581488804650145  1.0000
  C   C39       1.0  0.5554258856882601  0.23727984858131304  0.826736884051209  1.0000
  C   C40       1.0  0.610408008108945  0.2143069808328806  0.919962798202735  1.0000
  C   C41       1.0  0.4415814143820939  0.29709587436976315  0.6268668916367832  1.0000
  H   H19       1.0  0.036462837108184765  0.5562108615376422  0.3385620945520955  1.0000
  H   H20       1.0  0.8026430452275266  0.35886073149406195  0.2442049338658736  1.0000
  H   H21       1.0  0.8038145638778231  0.3567134826899734  0.8273089609470622  1.0000
  H   H22       1.0  0.9919034672652887  0.519627350975167  0.015439931973680874  1.0000
  H   H23       1.0  0.9293334532854783  0.4656641996861042  0.5757281161250001  1.0000
  H   H24       1.0  0.6934017891300296  0.5155610022072108  0.8980238540097458  1.0000
  H   H25       1.0  0.5973876001709825  0.5546197835086333  0.7333800173426646  1.0000
  H   H26       1.0  0.5171190904264182  0.15878012457710858  0.8088173381752815  1.0000
  H   H27       1.0  0.6132596175573651  0.11872949867729558  0.9713181362676585  1.0000
  H   H28       1.0  0.4062929396695111  0.3449367015727567  0.5504021614202896  1.0000
  H   H29       1.0  0.40489764100978687  0.2639900930332466  0.7121314767149309  1.0000
  H   H30       1.0  0.4695881291578664  0.21245121927103636  0.5869445752877627  1.0000
  Zn  Zn1       1.0  0.8195099012984545  0.4408186612400036  0.5289374829101618  1.0000
  Zn  Zn2       1.0  0.9841395385601663  0.44481329348667065  0.5212932010575628  1.0000
  C   C42       1.0  0.9018632145729145  0.4377182060923013  0.7623097053274346  1.0000
  C   C43       1.0  0.9017880230204982  0.44791543101368353  0.28792102199361436  1.0000
  C   C44       1.0  0.901818541018257  0.6800208953183142  0.5198484555367353  1.0000
  C   C45       1.0  0.9018326404428461  0.20561118005111242  0.5303823442363249  1.0000
  O   O3        1.0  0.9642702654429693  0.45117792859111727  0.33340471408313666  1.0000
  O   O4        1.0  0.9643310575252262  0.43748656206011266  0.711023806727486  1.0000
  O   O5        1.0  0.9642941410648893  0.633149027942095  0.5152346706506106  1.0000
  O   O6        1.0  0.9643071257111934  0.25551547060567215  0.5291937553914394  1.0000
  O   O7        1.0  0.839342257967411  0.6301164827592418  0.5210369311780711  1.0000
  O   O8        1.0  0.8393791743800408  0.43445557725205713  0.7168259974047222  1.0000
  O   O9        1.0  0.8393183821086938  0.44814689802626284  0.3392053433946023  1.0000
  O   O10       1.0  0.8393552423890138  0.2524844307825198  0.5349944820732644  1.0000
