data_image0
_chemical_formula_structural       NC8NH4C10H6C6FH3Zn2C4O8
_chemical_formula_sum              "N2 C28 H13 F1 Zn2 O8"
_cell_length_a       13.859017981522156
_cell_length_b       9.275150299802176
_cell_length_c       9.275646106892307
_cell_angle_alpha    84.62811981021342
_cell_angle_beta     90.02253054729924
_cell_angle_gamma    89.4839203727508

_space_group_name_H-M_alt    "P 1"
_space_group_IT_number       1

loop_
  _space_group_symop_operation_xyz
  'x, y, z'

loop_
  _atom_site_type_symbol
  _atom_site_label
  _atom_site_symmetry_multiplicity
  _atom_site_fract_x
  _atom_site_fract_y
  _atom_site_fract_z
  _atom_site_occupancy
  N   N1        1.0  0.8985465751067943  0.5961268758073457  0.39889596907240765  1.0000
  C   C1        1.0  0.8262143070822999  0.5897464055636037  0.33753956316325806  1.0000
  C   C2        1.0  0.7362372352667752  0.5818103085585113  0.26122017583393986  1.0000
  C   C3        1.0  0.7361088958489828  0.5663340928421241  0.11239362892913318  1.0000
  C   C4        1.0  0.6487032038463243  0.5586279716654168  0.038277690612720905  1.0000
  C   C5        1.0  0.561243609423857  0.5663358188646632  0.1123933705127349  1.0000
  C   C6        1.0  0.5610069924443806  0.5818112843639007  0.2612199862683746  1.0000
  C   C7        1.0  0.6485951209775279  0.5895475649952365  0.33562210886463933  1.0000
  C   C8        1.0  0.4709744847832633  0.5897473124199193  0.3375393172811638  1.0000
  N   N2        1.0  0.39859765751899734  0.5961271904751791  0.39889587356191125  1.0000
  H   H1        1.0  0.8034256734174533  0.5602440434019869  0.05383195447594047  1.0000
  H   H2        1.0  0.6487449733729258  0.5466735199898451  0.9233155854455614  1.0000
  H   H3        1.0  0.4939693848615723  0.5602471474562971  0.053831516361021244  1.0000
  H   H4        1.0  0.6485532599651088  0.6015260954019721  0.45081794089092053  1.0000
  C   C9        1.0  0.15112342581753269  0.17239575143618913  0.40131237801509334  1.0000
  C   C10       1.0  0.2018298368072411  0.2556121520901924  0.29210975817331497  1.0000
  C   C11       1.0  0.24425946052119923  0.1906860932237642  0.17735760595286143  1.0000
  C   C12       1.0  0.23641311554067546  0.04159350190169109  0.17033001363106123  1.0000
  C   C13       1.0  0.18781303670481875  0.9569401785646635  0.2788839140154382  1.0000
  C   C14       1.0  0.14603008884022706  0.019847075713010715  0.3964920063515616  1.0000
  C   C15       1.0  0.2949767698948911  0.277671251668804  0.06565817959661623  1.0000
  C   C16       1.0  0.337439976850761  0.3505233029331075  0.9721424784558539  1.0000
  C   C17       1.0  0.387162421616126  0.43583795320137764  0.8626396708409824  1.0000
  C   C18       1.0  0.42961744108253463  0.508684331182844  0.7691418960028193  1.0000
  H   H5        1.0  0.1054450395353335  0.4322756799246587  0.6305244789099964  1.0000
  H   H6        1.0  0.20646659017417604  0.37203674498543027  0.29433963509215055  1.0000
  H   H7        1.0  0.26872860647273855  0.9903950846769792  0.08153595806453384  1.0000
  H   H8        1.0  0.18486012825991027  0.8410065588150981  0.27265213231782415  1.0000
  H   H9        1.0  0.0834450874316277  0.8857197038240759  0.7394427661072978  1.0000
  H   H10       1.0  0.46689648972647313  0.5726496328116653  0.6870431272708233  1.0000
  C   C19       1.0  0.14843733223014688  0.6006377289086896  0.9750360573435317  1.0000
  C   C20       1.0  0.23669414124381555  0.6157187902586396  0.04701111050481854  1.0000
  C   C21       1.0  0.32383637863367176  0.6172511044319411  0.9715565599380098  1.0000
  C   C22       1.0  0.32425309012446113  0.6035844427012074  0.8232580424585518  1.0000
  C   C23       1.0  0.237493815418363  0.5909092958908131  0.7493373449332084  1.0000
  C   C24       1.0  0.14871617508978965  0.5916051460068041  0.8227683183546279  1.0000
  F   F1        1.0  0.40825584489967937  0.6302785373200002  0.042917656130582404  1.0000
  H   H11       1.0  0.9254034182132352  0.4834084697763745  0.08885581770577744  1.0000
  H   H12       1.0  0.3919117351245316  0.6041881381961736  0.7649392330395081  1.0000
  H   H13       1.0  0.9976837040749353  0.5186150316281387  0.5483377678378423  1.0000
  Zn  Zn1       1.0  0.04285054768446318  0.5961230246669458  0.3989042949532289  1.0000
  Zn  Zn2       1.0  0.2542937622876813  0.5961191426820649  0.3988994245569105  1.0000
  C   C25       1.0  0.14869589261999488  0.5875641120308551  0.6625614686197703  1.0000
  C   C26       1.0  0.14845071540978944  0.6046798744030553  0.1352423821517097  1.0000
  C   C27       1.0  0.14698600354292024  0.8597220443400029  0.39165129654944675  1.0000
  C   C28       1.0  0.1501605427807027  0.33252020765491763  0.40615264103880144  1.0000
  O   O1        1.0  0.22869684275789504  0.6060286870736775  0.18900727577718057  1.0000
  O   O2        1.0  0.22893027909843489  0.5862112689010577  0.6087924691629996  1.0000
  O   O3        1.0  0.22754844084281656  0.805982225175703  0.39003057997258006  1.0000
  O   O4        1.0  0.23007860876462605  0.3862577422756779  0.40776905668509544  1.0000
  O   O5        1.0  0.0670656290523144  0.8059844250763095  0.3900346628191049  1.0000
  O   O6        1.0  0.06844745685889064  0.5862152032436307  0.6087964651868174  1.0000
  O   O7        1.0  0.06821402031383639  0.6060325896239129  0.18900953669420906  1.0000
  O   O8        1.0  0.06959578641425113  0.38626163335224467  0.40777142587869014  1.0000
