data_image0
_chemical_formula_structural       NC12NC2H8C7NH5C9H10Zn2C4O8
_chemical_formula_sum              "N3 C34 H23 Zn2 O8"
_cell_length_a       19.240039667572717
_cell_length_b       9.275154477615127
_cell_length_c       10.297187173949776
_cell_angle_alpha    85.79368962705624
_cell_angle_beta     89.97407950640248
_cell_angle_gamma    89.43370810513201

_space_group_name_H-M_alt    "P 1"
_space_group_IT_number       1

loop_
  _space_group_symop_operation_xyz
  'x, y, z'

loop_
  _atom_site_type_symbol
  _atom_site_label
  _atom_site_symmetry_multiplicity
  _atom_site_fract_x
  _atom_site_fract_y
  _atom_site_fract_z
  _atom_site_occupancy
  N   N1        1.0  0.6473056083427086  0.5776927806066314  0.5728117937506241  1.0000
  C   C1        1.0  0.5871572391010138  0.5776928738308142  0.5728117121310716  1.0000
  C   C2        1.0  0.5123392013726803  0.5776930040220243  0.5728115752645955  1.0000
  C   C3        1.0  0.4761814381206357  0.5061377831208205  0.6759888577934234  1.0000
  C   C4        1.0  0.40351125563166956  0.5060146955636473  0.6760749761217097  1.0000
  C   C5        1.0  0.36600696600090404  0.5776931067575741  0.5728113479024608  1.0000
  C   C6        1.0  0.40287835372086594  0.6493717255650184  0.4695479150139452  1.0000
  C   C7        1.0  0.4755496090118012  0.6492483765758422  0.46963415492886007  1.0000
  C   C8        1.0  0.2888018760006005  0.5776930194172909  0.5728112521515081  1.0000
  C   C9        1.0  0.252203112311967  0.4519581231637864  0.6142384880538956  1.0000
  C   C10       1.0  0.1795318805393397  0.4520767904586893  0.614147569770702  1.0000
  C   C11       1.0  0.1424695897460101  0.5776928760194555  0.5728113125588938  1.0000
  C   C12       1.0  0.06765155313245143  0.5776927497753374  0.5728115608199051  1.0000
  N   N2        1.0  0.007503236445733101  0.577692704479914  0.5728117691220642  1.0000
  C   C13       1.0  0.1783548094209648  0.7033090457560844  0.5314750027477639  1.0000
  C   C14       1.0  0.2510249613368888  0.7034279129977248  0.5313839225541153  1.0000
  H   H1        1.0  0.5041407554881502  0.4507382596996232  0.7565484367169033  1.0000
  H   H2        1.0  0.37665790716713  0.4515013321960458  0.7577534982882905  1.0000
  H   H3        1.0  0.3755451712664997  0.7038851189593791  0.3878693420958519  1.0000
  H   H4        1.0  0.5030200635708569  0.704647788721934  0.3890748514608813  1.0000
  H   H5        1.0  0.2797605003374036  0.35298326540578506  0.6450565886199899  1.0000
  H   H6        1.0  0.15227614349189542  0.3541003162887811  0.64600245942976  1.0000
  H   H7        1.0  0.15018072314690004  0.8012854926874242  0.4996201275442677  1.0000
  H   H8        1.0  0.2776540517206443  0.8024028586506216  0.5005657775231092  1.0000
  C   C15       1.0  0.8294193761014174  0.1543032560524491  0.571308620153893  1.0000
  C   C16       1.0  0.8103693242829795  0.23746669279077676  0.45677887507178266  1.0000
  C   C17       1.0  0.785664490412705  0.1714134495274274  0.34831594238717667  1.0000
  C   C18       1.0  0.7796028092344163  0.021293579912277094  0.3531053685847574  1.0000
  C   C19       1.0  0.7992976652926888  0.936922111328469  0.4650244991643277  1.0000
  C   C20       1.0  0.8253961958215611  0.0010711869536095269  0.5743261412678424  1.0000
  C   C21       1.0  0.7656900969608076  0.25815851006300217  0.23240581532953694  1.0000
  N   N3        1.0  0.7496362257696254  0.32788563674978843  0.13924376328717458  1.0000
  H   H9        1.0  0.8428187508862708  0.23101788236103052  0.8901576785642831  1.0000
  H   H10       1.0  0.813208704983215  0.3544255660961939  0.4529246793603421  1.0000
  H   H11       1.0  0.7602452521733185  0.9691556154292171  0.26974479286169273  1.0000
  H   H12       1.0  0.7956480324892864  0.8204545000901866  0.4649101836223053  1.0000
  H   H13       1.0  0.8373680224283622  0.7023301335344877  0.7879640794877327  1.0000
  C   C22       1.0  0.8274999165436744  0.5776350933508523  0.19136402196760738  1.0000
  C   C23       1.0  0.7568763987332991  0.6172363811638566  0.18802324423727687  1.0000
  C   C24       1.0  0.7206938901394485  0.637525046336626  0.06969526070582699  1.0000
  C   C25       1.0  0.7566026299009777  0.6173893421468452  0.952801064281382  1.0000
  C   C26       1.0  0.8273156583245026  0.5777393543607844  0.9542707032263696  1.0000
  C   C27       1.0  0.8623025261809705  0.5581197385289701  0.07394207447805479  1.0000
  C   C28       1.0  0.6443094669756152  0.6803563744831058  0.07551413976055321  1.0000
  C   C29       1.0  0.5959262590922346  0.6223653832827698  0.9750356506293127  1.0000
  C   C30       1.0  0.6158381278482397  0.7814266596289823  0.9645029663088898  1.0000
  H   H14       1.0  0.8547152317644898  0.562388531336744  0.5201887878236937  1.0000
  H   H15       1.0  0.7296118978224247  0.6325250122204684  0.2781558802380981  1.0000
  H   H16       1.0  0.7300947024801495  0.6322500334365527  0.8602469250609208  1.0000
  H   H17       1.0  0.9167899206159187  0.5275657958907808  0.0757922048758517  1.0000
  H   H18       1.0  0.9608701090805687  0.5028332429506379  0.7498312230500659  1.0000
  H   H19       1.0  0.619758364442711  0.6941243066983804  0.17164048860986592  1.0000
  H   H20       1.0  0.6197732603443101  0.5572899460068794  0.9002787662963283  1.0000
  H   H21       1.0  0.5420003713284761  0.6028568800282746  0.010084719386370674  1.0000
  H   H22       1.0  0.6517808423122107  0.8129720698629909  0.8833489799367068  1.0000
  H   H23       1.0  0.5735492286446174  0.8548829032929639  0.9933937292901004  1.0000
  Zn  Zn1       1.0  0.7512508887672014  0.5776889104306409  0.5728192630100797  1.0000
  Zn  Zn2       1.0  0.9035580281095515  0.577684815396881  0.5728148591991105  1.0000
  C   C31       1.0  0.8273762198646918  0.571975890857416  0.8100445337548021  1.0000
  C   C32       1.0  0.8274343515272159  0.5833996541113102  0.3355897223836257  1.0000
  C   C33       1.0  0.8261543322721617  0.8410132969076909  0.5685794161485074  1.0000
  C   C34       1.0  0.8286561953614141  0.31436051584964053  0.5770549030725576  1.0000
  O   O1        1.0  0.8852121428191029  0.5853264493055536  0.3839914913233329  1.0000
  O   O2        1.0  0.8851960284444237  0.5700448999044097  0.7616390446197238  1.0000
  O   O3        1.0  0.8842085592658608  0.7872960079378744  0.5666542591116392  1.0000
  O   O4        1.0  0.8861995600000769  0.3680753515740313  0.57897617947345  1.0000
  O   O5        1.0  0.7686093049017183  0.7872983742564572  0.5666579427304159  1.0000
  O   O6        1.0  0.7695967658636558  0.5700489984373528  0.7616426651505394  1.0000
  O   O7        1.0  0.7696128809004824  0.5853304973826929  0.383993549928771  1.0000
  O   O8        1.0  0.7706002981040878  0.36807938935219375  0.5789783354315317  1.0000
