data_image0
_chemical_formula_structural       NC5NC4H6C9H8C6ClH5Zn2C4O8
_chemical_formula_sum              "N2 C28 H19 Cl1 Zn2 O8"
_cell_length_a       13.854160002989762
_cell_length_b       9.275152443626249
_cell_length_c       10.302974078461048
_cell_angle_alpha    85.36323094855369
_cell_angle_beta     89.99987288003342
_cell_angle_gamma    90.57354205828562

_space_group_name_H-M_alt    "P 1"
_space_group_IT_number       1

loop_
  _space_group_symop_operation_xyz
  'x, y, z'

loop_
  _atom_site_type_symbol
  _atom_site_label
  _atom_site_symmetry_multiplicity
  _atom_site_fract_x
  _atom_site_fract_y
  _atom_site_fract_z
  _atom_site_occupancy
  N   N1        1.0  0.9194915648810172  0.5787934039616706  0.5630623384211344  1.0000
  C   C1        1.0  0.8473279773162459  0.6040124071620048  0.509807464908054  1.0000
  C   C2        1.0  0.757555460741554  0.6353855311624376  0.44355636401955567  1.0000
  C   C3        1.0  0.669786501217882  0.6058939828610805  0.5082411322123663  1.0000
  C   C4        1.0  0.5824130484663944  0.6353855454958812  0.4435563431060727  1.0000
  C   C5        1.0  0.4922198349641817  0.6040122598017614  0.5098075478789639  1.0000
  N   N2        1.0  0.4197179938575451  0.57879334044721  0.5630623385400715  1.0000
  C   C6        1.0  0.5828452544574575  0.6949752134265699  0.3142020111711772  1.0000
  C   C7        1.0  0.6705958945818105  0.7266174799948407  0.24941741619169575  1.0000
  C   C8        1.0  0.6709970867038102  0.7864483816788344  0.10971544481699613  1.0000
  C   C9        1.0  0.757922343484378  0.694975212101115  0.31420192987150886  1.0000
  H   H1        1.0  0.6694765407793125  0.5596614127665067  0.6083593550049011  1.0000
  H   H2        1.0  0.5151184137674786  0.7167678405358373  0.2640169019998633  1.0000
  H   H3        1.0  0.7363083001731704  0.854627885364649  0.08808195952070674  1.0000
  H   H4        1.0  0.6065998225269796  0.8546278872418527  0.08808201812971639  1.0000
  H   H5        1.0  0.6703904138466154  0.6958992225202463  0.04555521683239205  1.0000
  H   H6        1.0  0.8259413736036297  0.7167679530506841  0.26401682471669496  1.0000
  C   C10       1.0  0.1667620245482424  0.15516107495658066  0.5643877987440553  1.0000
  C   C11       1.0  0.1319421804301426  0.23790048276568812  0.45409248919237033  1.0000
  C   C12       1.0  0.10609456144486827  0.17245914353942515  0.3417321769099131  1.0000
  C   C13       1.0  0.11466093049123738  0.02311720325392863  0.337442473164165  1.0000
  C   C14       1.0  0.14759328613299597  0.9386896489106298  0.44680564435540865  1.0000
  C   C15       1.0  0.17245671025495346  0.0024145928741363585  0.561748139348716  1.0000
  C   C16       1.0  0.08851010372655277  0.9559677010569252  0.22108630331829768  1.0000
  C   C17       1.0  0.06661489714897573  0.8997123524296944  0.12365625442630446  1.0000
  C   C18       1.0  0.040049391878503184  0.8314444374887346  0.005441977400029157  1.0000
  H   H7        1.0  0.305456976555877  0.23681249610497557  0.8236695803934486  1.0000
  H   H8        1.0  0.1268576582487719  0.35441796948148324  0.4536841114382241  1.0000
  H   H9        1.0  0.08028779845128042  0.23869891393630338  0.2576489434289113  1.0000
  H   H10       1.0  0.1516572192417862  0.8223796184913152  0.4431839221842351  1.0000
  H   H11       1.0  0.2627416501939064  0.707115175735032  0.739088172536758  1.0000
  H   H12       1.0  0.057694785606184434  0.7147226055253724  0.017570713007256437  1.0000
  H   H13       1.0  0.9614883689153035  0.8440270144270393  0.987668609009952  1.0000
  H   H14       1.0  0.08081167901280525  0.883792967320558  0.921406154823774  1.0000
  C   C19       1.0  0.1696093722365446  0.5787878366556514  0.181825492093179  1.0000
  C   C20       1.0  0.15181241825796962  0.4289543263243212  0.19152596770250674  1.0000
  C   C21       1.0  0.14298210456824445  0.3546110195162111  0.07938228794508029  1.0000
  C   C22       1.0  0.15181246197508713  0.4289544077964391  0.956418068477576  1.0000
  C   C23       1.0  0.1696093692739892  0.5787877621897363  0.9443105113985975  1.0000
  C   C24       1.0  0.1784211115781955  0.652974173146202  0.057669162539033314  1.0000
  Cl  Cl1       1.0  0.12074948424292326  0.1674333698516024  0.0930040292357246  1.0000
  H   H15       1.0  0.17631373418432328  0.6352275338735909  0.5054744294497011  1.0000
  H   H16       1.0  0.14473416719436738  0.369362040348038  0.2859093030937532  1.0000
  H   H17       1.0  0.1447342345051245  0.36936201976319244  0.8707083370839833  1.0000
  H   H18       1.0  0.19214661335585356  0.7685302735170789  0.04925953956273443  1.0000
  H   H19       1.0  0.17631355042987895  0.6352275211075348  0.6124467990080839  1.0000
  Zn  Zn1       1.0  0.06384608639134834  0.5787895233422593  0.5630698557221161  1.0000
  Zn  Zn2       1.0  0.2753633941760978  0.5787854160095185  0.5630655202497494  1.0000
  C   C25       1.0  0.16956857566507416  0.5730407774556836  0.8002023940197756  1.0000
  C   C26       1.0  0.1696432268990531  0.5845359820629343  0.3259331036580555  1.0000
  C   C27       1.0  0.1713753190389049  0.8422656151275936  0.5570736614364378  1.0000
  C   C28       1.0  0.16783639969961817  0.31530941117683137  0.5690619108584013  1.0000
  O   O1        1.0  0.2499242625041016  0.5864572598403114  0.3742953088571843  1.0000
  O   O2        1.0  0.2498242751765054  0.5711152940122888  0.7518365279659247  1.0000
  O   O3        1.0  0.25128216122606517  0.7885177552660745  0.5555083515776666  1.0000
  O   O4        1.0  0.2484663043473776  0.3690548089076984  0.5706233878723819  1.0000
  O   O5        1.0  0.0907431040396029  0.788520130447053  0.5555119880941295  1.0000
  O   O6        1.0  0.08928522963518182  0.5711194024104309  0.7518400898600253  1.0000
  O   O7        1.0  0.08938521668912  0.5864613179672948  0.37429731002481326  1.0000
  O   O8        1.0  0.087927258459094  0.3690588567164812  0.5706254864077174  1.0000
