data_image0
_chemical_formula_structural       NC10NC3NCH9C7OC3NC3H11C7OC3FC3H9Zn2C4O8
_chemical_formula_sum              "N4 C44 H29 O10 F1 Zn2"
_cell_length_a       19.437513618241372
_cell_length_b       10.298746005989749
_cell_length_c       10.299381723001549
_cell_angle_alpha    85.57926667056456
_cell_angle_beta     90.33093660507195
_cell_angle_gamma    89.53148363849229

_space_group_name_H-M_alt    "P 1"
_space_group_IT_number       1

loop_
  _space_group_symop_operation_xyz
  'x, y, z'

loop_
  _atom_site_type_symbol
  _atom_site_label
  _atom_site_symmetry_multiplicity
  _atom_site_fract_x
  _atom_site_fract_y
  _atom_site_fract_z
  _atom_site_occupancy
  N   N1        1.0  0.6481825733809073  0.41022741682357466  0.5758472027946389  1.0000
  C   C1        1.0  0.5892510527940455  0.42723817273039216  0.5728737631775325  1.0000
  C   C2        1.0  0.5158128459089315  0.44849155960962034  0.5691829658967237  1.0000
  C   C3        1.0  0.47404290399443294  0.34729144158827047  0.5575085108336952  1.0000
  C   C4        1.0  0.3981546226638681  0.3573555441248193  0.5502887105155656  1.0000
  C   C5        1.0  0.3585801408326252  0.43822338025849716  0.6160430795539567  1.0000
  C   C6        1.0  0.2823980923068134  0.42961278301403705  0.6075977211182761  1.0000
  C   C7        1.0  0.24925115841002732  0.3082596701203306  0.6122228231880806  1.0000
  C   C8        1.0  0.1775167003786228  0.3018860075503273  0.6050538395721089  1.0000
  C   C9        1.0  0.1379584695264491  0.4163928073250138  0.5936219128283144  1.0000
  C   C10       1.0  0.0641095267987974  0.4096809058052062  0.5862847877355573  1.0000
  N   N2        1.0  0.004740074877223505  0.40428512718377374  0.5803861976532401  1.0000
  C   C11       1.0  0.170388700284511  0.537435469457034  0.5897420366916701  1.0000
  C   C12       1.0  0.2421075788217711  0.5440631547832351  0.5969730796591945  1.0000
  C   C13       1.0  0.3872626350088104  0.5305325652004129  0.7059764882873156  1.0000
  N   N3        1.0  0.4442556012960849  0.5937460740268257  0.6855818989493403  1.0000
  C   C14       1.0  0.48810711152183034  0.5844629597807343  0.5724734836191563  1.0000
  H   H1        1.0  0.496419461799094  0.25222567967252285  0.5453730608921346  1.0000
  H   H2        1.0  0.3734400700289573  0.287827093814526  0.49196039472753395  1.0000
  H   H3        1.0  0.2786921366286296  0.2183430456817823  0.6232300879934514  1.0000
  H   H4        1.0  0.15291411686025064  0.20765330706135218  0.6089268135558472  1.0000
  H   H5        1.0  0.14026214256030803  0.6266975678920913  0.5810468100756347  1.0000
  H   H6        1.0  0.2662286799364612  0.6387086833933062  0.5930847080766337  1.0000
  H   H7        1.0  0.35725263748628716  0.5509354420988579  0.7903458043629836  1.0000
  H   H8        1.0  0.5308655606141252  0.6547818226783084  0.5782474367577817  1.0000
  H   H9        1.0  0.4584518790785249  0.6125569470390748  0.48183257386800293  1.0000
  C   C15       1.0  0.8264317470831799  0.02585465199998493  0.5780991726968617  1.0000
  C   C16       1.0  0.8586347151008932  0.03379352785118473  0.45600624843436344  1.0000
  C   C17       1.0  0.8741947288818829  0.9206963197568698  0.3935719592659355  1.0000
  C   C18       1.0  0.8586352384022322  0.7985569063893684  0.45595711855554405  1.0000
  C   C19       1.0  0.826497482560299  0.788647760144163  0.5781455636106834  1.0000
  C   C20       1.0  0.810434076834101  0.9028614895490894  0.6382846885771163  1.0000
  C   C21       1.0  0.9087854599252798  0.9288785894874719  0.265198240619164  1.0000
  O   O1        1.0  0.9507966508065219  0.8401941602130955  0.24052108097072344  1.0000
  C   C22       1.0  0.895718602780352  0.03760895627038962  0.1648273397248559  1.0000
  C   C23       1.0  0.8305738967645085  0.09808371184834441  0.1518907274137562  1.0000
  C   C24       1.0  0.8185325249606064  0.19993143441508487  0.05583173064354985  1.0000
  N   N4        1.0  0.7522863417051626  0.2612669677119015  0.04378446225911259  1.0000
  C   C25       1.0  0.8716786172131762  0.24091092313515222  0.9713750978917309  1.0000
  C   C26       1.0  0.9361955992769418  0.180281400508153  0.9824476690862346  1.0000
  C   C27       1.0  0.9481835022201713  0.07885896702013673  0.07820178077931605  1.0000
  H   H10       1.0  0.7665379536992739  0.21813357834368552  0.8096696247283326  1.0000
  H   H11       1.0  0.8723235191887705  0.12807062286159088  0.40995924760792835  1.0000
  H   H12       1.0  0.8710506850630702  0.7111464766211634  0.4084178426736161  1.0000
  H   H13       1.0  0.7856147938278685  0.8959899168888554  0.732398161133371  1.0000
  H   H14       1.0  0.7660320172673116  0.5626021149894171  0.8092202181258519  1.0000
  H   H15       1.0  0.7888998591698535  0.06539015775240496  0.2153220825361848  1.0000
  H   H16       1.0  0.7123023910126344  0.23149503928440973  0.10622588263449129  1.0000
  H   H17       1.0  0.742752689930485  0.33702338508051527  0.9724255401705292  1.0000
  H   H18       1.0  0.8630194990770057  0.319388145053129  0.8967786037172742  1.0000
  H   H19       1.0  0.9770270216091834  0.21195280692186075  0.9166733048590504  1.0000
  H   H20       1.0  0.9986414007091141  0.0333777438535694  0.08537159444762944  1.0000
  C   C28       1.0  0.8265225299217123  0.4071490818252956  0.1967554393553239  1.0000
  C   C29       1.0  0.8482835688700692  0.2763208820079281  0.20588590921867425  1.0000
  C   C30       1.0  0.8600067161562484  0.21077856833232467  0.0932918372807079  1.0000
  C   C31       1.0  0.8482177908902443  0.27661513723609255  0.9706190393491982  1.0000
  C   C32       1.0  0.8264066856206913  0.40735327531424875  0.959489332280327  1.0000
  C   C33       1.0  0.8158586917796163  0.47196479544524567  0.07315099900157973  1.0000
  C   C34       1.0  0.8822884887484544  0.07222705611561153  0.10281252763194805  1.0000
  O   O2        1.0  0.8610916944293513  0.9993300009574543  0.01835705590562742  1.0000
  C   C35       1.0  0.9286216586125525  0.016377095519461083  0.20804428095041128  1.0000
  C   C36       1.0  0.9230678735185642  0.884497609364073  0.25323884509896444  1.0000
  C   C37       1.0  0.9670574563239045  0.8305528419431805  0.3513521301834135  1.0000
  F   F1        1.0  0.9609540615096982  0.7035766051953334  0.39493564095383055  1.0000
  C   C38       1.0  0.017312246314607822  0.9073454691188525  0.40446444320150615  1.0000
  C   C39       1.0  0.023856709927751577  0.038002894522304535  0.3592173601060564  1.0000
  C   C40       1.0  0.9800035929761476  0.09235719288764031  0.26117681271479043  1.0000
  H   H21       1.0  0.7844460813571997  0.6534413348206765  0.38687985715743395  1.0000
  H   H22       1.0  0.8554070113823279  0.2248073337092653  0.30077911145900504  1.0000
  H   H23       1.0  0.8567409388597458  0.22591931914576202  0.8836987139858961  1.0000
  H   H24       1.0  0.7990822293643758  0.5728232929104631  0.06530802760734966  1.0000
  H   H25       1.0  0.8174733339230481  0.4572475825257183  0.6277764186865924  1.0000
  H   H26       1.0  0.8843049303365714  0.8236221435021368  0.2133687652113503  1.0000
  H   H27       1.0  0.051387126981219826  0.8655656571088057  0.48031244345976415  1.0000
  H   H28       1.0  0.06315935702768583  0.0971214799150224  0.3997331300726994  1.0000
  H   H29       1.0  0.9867765717752401  0.19321179111443865  0.22600834179616494  1.0000
  Zn  Zn1       1.0  0.7510773703144524  0.4085091128902625  0.5771645673662376  1.0000
  Zn  Zn2       1.0  0.9018452816135553  0.40599276351246916  0.5790795022496213  1.0000
  C   C41       1.0  0.8264266201817643  0.4021406105906984  0.8153159427466992  1.0000
  C   C42       1.0  0.8264976782490362  0.4123628771274501  0.34092827534567394  1.0000
  C   C43       1.0  0.826482309585034  0.6444622820802983  0.5729616163917478  1.0000
  C   C44       1.0  0.826441937254208  0.17003964607900188  0.5832826701905325  1.0000
  O   O3        1.0  0.8837049739167264  0.4131520667586126  0.3900407036029241  1.0000
  O   O4        1.0  0.8836486806304114  0.39944059009974875  0.7676565318536579  1.0000
  O   O5        1.0  0.8836928790286387  0.5951184176380453  0.5719536889106136  1.0000
  O   O6        1.0  0.883660724087211  0.21747424934391985  0.5857434485189337  1.0000
  O   O7        1.0  0.7692618763911091  0.5970276279189304  0.570500620436621  1.0000
  O   O8        1.0  0.7692176781347524  0.4013513607996006  0.7662033942294546  1.0000
  O   O9        1.0  0.7692739717000211  0.4150627917797898  0.3885860045839645  1.0000
  O   O10       1.0  0.7692297218521063  0.21938496510161173  0.5842888468667045  1.0000
