data_image0
_chemical_formula_structural       NC9NC4H8C7ONH7C7F3H5Zn2C4O8
_chemical_formula_sum              "N3 C31 H20 O9 F3 Zn2"
_cell_length_a       16.32274767691083
_cell_length_b       10.297852080636378
_cell_length_c       9.272721663655245
_cell_angle_alpha    85.87639669813234
_cell_angle_beta     89.98655041730063
_cell_angle_gamma    89.50344002776104

_space_group_name_H-M_alt    "P 1"
_space_group_IT_number       1

loop_
  _space_group_symop_operation_xyz
  'x, y, z'

loop_
  _atom_site_type_symbol
  _atom_site_label
  _atom_site_symmetry_multiplicity
  _atom_site_fract_x
  _atom_site_fract_y
  _atom_site_fract_z
  _atom_site_occupancy
  N   N1        1.0  0.7629561652992001  0.40437689671331944  0.3977824089338937  1.0000
  C   C1        1.0  0.7103317059684796  0.3566318790438694  0.3375044517712711  1.0000
  C   C2        1.0  0.6449192368514676  0.2973321953210697  0.2626387469744833  1.0000
  C   C3        1.0  0.6559811459023445  0.21622078659200097  0.16023102001878375  1.0000
  C   C4        1.0  0.5763760185809662  0.17663800837339028  0.11025945353994614  1.0000
  C   C5        1.0  0.5177935640076242  0.23456653274709985  0.18340001110729842  1.0000
  C   C6        1.0  0.42776344512984865  0.21925656373117164  0.1640735365187942  1.0000
  C   C7        1.0  0.3725760968323161  0.2867759596456494  0.24931537152433483  1.0000
  C   C8        1.0  0.287788411786818  0.27369132291249487  0.23279774160098565  1.0000
  C   C9        1.0  0.23220169399260943  0.3432863850376535  0.3206592151980223  1.0000
  N   N2        1.0  0.1875288428569817  0.3992293607676524  0.39128495892789283  1.0000
  C   C10       1.0  0.257134379500306  0.19297809408452693  0.1309011107839957  1.0000
  C   C11       1.0  0.3110003525348581  0.12554813440978885  0.04577256372621141  1.0000
  C   C12       1.0  0.3956271081628386  0.1382803306514151  0.06184511117516833  1.0000
  C   C13       1.0  0.5560587272274344  0.3190326839672373  0.2900404004597752  1.0000
  H   H1        1.0  0.7146978078311919  0.1846803722491588  0.12040697741742547  1.0000
  H   H2        1.0  0.5676796340671024  0.1103457541005315  0.026561540839107774  1.0000
  H   H3        1.0  0.39506972487298714  0.3497862421625264  0.3288629883067582  1.0000
  H   H4        1.0  0.19167741884902423  0.18219906532245456  0.11729425918211046  1.0000
  H   H5        1.0  0.2871141341223646  0.06310892797593069  0.9669461883065376  1.0000
  H   H6        1.0  0.4350820448209163  0.08434070551986883  0.9937481910611918  1.0000
  H   H7        1.0  0.5398678621077851  0.28483724833889257  0.4027315092810111  1.0000
  H   H8        1.0  0.5391291304557532  0.42299408544652306  0.2654328158031187  1.0000
  C   C14       1.0  0.9753338068137863  0.020364899617754784  0.3945408960445851  1.0000
  C   C15       1.0  0.9633508138372968  0.02929858094708738  0.24408851343040297  1.0000
  C   C16       1.0  0.9565517366969617  0.9167449566046649  0.1679309044737749  1.0000
  C   C17       1.0  0.9631434469429128  0.7940486385187159  0.2440419421870441  1.0000
  C   C18       1.0  0.9751590870206736  0.7832312909894168  0.39453877551361094  1.0000
  C   C19       1.0  0.9809819558082019  0.8969073140816912  0.46884203346840364  1.0000
  C   C20       1.0  0.9440983946336782  0.9287788076995758  0.009000596754888072  1.0000
  O   O1        1.0  0.9656182443836921  0.03126568968825016  0.9368662325455261  1.0000
  N   N3        1.0  0.9071162030808515  0.8270475918177  0.9351191877111407  1.0000
  H   H9        1.0  0.99827796841922  0.21074972292139818  0.67881494509225  1.0000
  H   H10       1.0  0.9585652696295667  0.124194525200096  0.1860374113806733  1.0000
  H   H11       1.0  0.96053009945105  0.7065928730693501  0.18624931024239477  1.0000
  H   H12       1.0  0.9902153538084224  0.8892684904972474  0.5847975854287815  1.0000
  H   H13       1.0  0.9991796857913776  0.5555132516179803  0.6786649563697953  1.0000
  H   H14       1.0  0.9024120783349107  0.835615828080582  0.8225283934544056  1.0000
  H   H15       1.0  0.8794220560146231  0.7475227894735581  0.9909493179995766  1.0000
  C   C21       1.0  0.9730793331495223  0.3997176048595754  0.971129814024394  1.0000
  C   C22       1.0  0.007971049792960152  0.2930504917032237  0.05331884745287852  1.0000
  C   C23       1.0  0.050041481900480855  0.19402259107148456  0.986770630192614  1.0000
  C   C24       1.0  0.05471052777545404  0.19994736753317066  0.8355493215035756  1.0000
  C   C25       1.0  0.019333898689627645  0.3039159881767437  0.7523994237609273  1.0000
  C   C26       1.0  0.9774136105920814  0.4038786041812119  0.8179498862921446  1.0000
  C   C27       1.0  0.0851289912197486  0.07876271438263527  0.07658173754623743  1.0000
  F   F1        1.0  0.11271014814315006  0.116179794975801  0.20839236478451229  1.0000
  F   F2        1.0  0.15044479845745085  0.024243858330105013  0.006462596106627801  1.0000
  F   F3        1.0  0.025004121451717373  0.9859953309264894  0.10053814664165128  1.0000
  H   H16       1.0  0.9210782623285942  0.7096573751854585  0.04814308159078284  1.0000
  H   H17       1.0  0.0038814380632337135  0.28848540969340086  0.17022709496715163  1.0000
  H   H18       1.0  0.08500858650660192  0.1232770323884864  0.7811782697413143  1.0000
  H   H19       1.0  0.022844371515000614  0.30428885867549793  0.635691081254016  1.0000
  H   H20       1.0  0.8303459535603301  0.6247444605763286  0.6989083245498118  1.0000
  Zn  Zn1       1.0  0.885478718391926  0.4028879837364303  0.3959157119926593  1.0000
  Zn  Zn2       1.0  0.06500635883466405  0.4007076728778227  0.39316346791400036  1.0000
  C   C28       1.0  0.9765936798893683  0.39791747411254863  0.6578828199494404  1.0000
  C   C29       1.0  0.9738933581225052  0.4056797983053733  0.1311964714163807  1.0000
  C   C30       1.0  0.9751585129528828  0.6390051222896294  0.38879361301822857  1.0000
  C   C31       1.0  0.9753284645495629  0.1645905906640035  0.40028575616229367  1.0000
  O   O2        1.0  0.04229635756914196  0.4068476815124829  0.1838718415950653  1.0000
  O   O3        1.0  0.044448003651943443  0.3950938034728042  0.6031181451424399  1.0000
  O   O4        1.0  0.04328817745176328  0.5897751468659774  0.38582672077109503  1.0000
  O   O5        1.0  0.04345612195324011  0.21216634762400122  0.40116315879653763  1.0000
  O   O6        1.0  0.9070288940093384  0.5914293097356615  0.38791602204174436  1.0000
  O   O7        1.0  0.9081887194549345  0.3967495265521872  0.6052073695300102  1.0000
  O   O8        1.0  0.9060370645643243  0.4085033508090763  0.18595933245642327  1.0000
  O   O9        1.0  0.9071968295004929  0.21382200816131314  0.40325075775939  1.0000
