data_image0
_chemical_formula_structural       NC9NC5H8C7NC2NH7C7OCH10Zn2C4O8
_chemical_formula_sum              "N4 C35 H25 O9 Zn2"
_cell_length_a       17.807436237873137
_cell_length_b       9.273995741505848
_cell_length_c       10.300835455316063
_cell_angle_alpha    85.71363745915025
_cell_angle_beta     89.41013499251636
_cell_angle_gamma    88.97465214434487

_space_group_name_H-M_alt    "P 1"
_space_group_IT_number       1

loop_
  _space_group_symop_operation_xyz
  'x, y, z'

loop_
  _atom_site_type_symbol
  _atom_site_label
  _atom_site_symmetry_multiplicity
  _atom_site_fract_x
  _atom_site_fract_y
  _atom_site_fract_z
  _atom_site_occupancy
  N   N1        1.0  0.7153264645972508  0.5403387721466142  0.5606809408791644  1.0000
  C   C1        1.0  0.6545296890287321  0.501271546463139  0.5495735511473632  1.0000
  C   C2        1.0  0.5789051823944042  0.4526762200178373  0.5357571644800303  1.0000
  C   C3        1.0  0.5603743022723313  0.37337747580858593  0.430596340146785  1.0000
  C   C4        1.0  0.48694614358326976  0.32607136828401573  0.4170986342149876  1.0000
  C   C5        1.0  0.43099791702895346  0.3576448910650687  0.5087283935834939  1.0000
  C   C6        1.0  0.3529634043223435  0.3074982694971682  0.4944661681366338  1.0000
  C   C7        1.0  0.29127325029505313  0.39826307473922395  0.5205989657965224  1.0000
  C   C8        1.0  0.21770159329525013  0.3507315703150746  0.5071144486842263  1.0000
  C   C9        1.0  0.15497726697709263  0.44448419880953005  0.5336175995287764  1.0000
  N   N2        1.0  0.104559862367822  0.5198548261307672  0.5549253923091984  1.0000
  C   C10       1.0  0.2052350214112587  0.2121488640827165  0.4674711645495515  1.0000
  C   C11       1.0  0.2660677225213858  0.12136867946716466  0.44132994489291605  1.0000
  C   C12       1.0  0.3395175873472796  0.16846215508957418  0.4546109986493987  1.0000
  C   C13       1.0  0.45022315278133757  0.4374924864399674  0.614109611332027  1.0000
  C   C14       1.0  0.5237030334694107  0.48458720338834005  0.6274512281365536  1.0000
  H   H1        1.0  0.6026239260622066  0.34840323376235593  0.35883918274628623  1.0000
  H   H2        1.0  0.473702533166837  0.26646227387306043  0.3340599737486112  1.0000
  H   H3        1.0  0.3003499645542204  0.5064671479599399  0.5497074125187045  1.0000
  H   H4        1.0  0.1485676234470719  0.17436245661650407  0.4567955414864071  1.0000
  H   H5        1.0  0.2562972787700162  0.014074813871044034  0.4110232334595054  1.0000
  H   H6        1.0  0.3857677651049196  0.0954730694706083  0.4354064425148594  1.0000
  H   H7        1.0  0.4086874664029565  0.4618685405111316  0.6871597863431181  1.0000
  H   H8        1.0  0.5374819959432574  0.5455511263227091  0.7094513537270302  1.0000
  C   C15       1.0  0.9077003943942195  0.10672566168761333  0.5568877861393798  1.0000
  C   C16       1.0  0.9208674724718091  0.18924446424261787  0.43926386203452955  1.0000
  C   C17       1.0  0.9407558627364083  0.123059907575384  0.32641094745907084  1.0000
  C   C18       1.0  0.9483070502129791  0.9722167880454671  0.3279545135836168  1.0000
  C   C19       1.0  0.9335626761386089  0.8885031716758063  0.44452608862945997  1.0000
  C   C20       1.0  0.9121930501157234  0.9534564489087226  0.5587296630897501  1.0000
  C   C21       1.0  0.9703005430929206  0.9040368259952323  0.20696410807689736  1.0000
  N   N3        1.0  0.9730165356040361  0.9781538273261803  0.08893322114835134  1.0000
  C   C22       1.0  0.9955308146510466  0.8790644616772403  0.006934221379007573  1.0000
  C   C23       1.0  0.006259119765841034  0.7475998052303686  0.07570875864195137  1.0000
  N   N4        1.0  0.9904240984612441  0.7634581779940159  0.20149137286057384  1.0000
  H   H9        1.0  0.846824467610791  0.37457003223529517  0.7446686149630815  1.0000
  H   H10       1.0  0.9175987821207314  0.3062594878947975  0.4351241858839632  1.0000
  H   H11       1.0  0.9513410490661087  0.19068438513163422  0.2380456039198957  1.0000
  H   H12       1.0  0.9361061846224021  0.7718075893627084  0.44628795293643436  1.0000
  H   H13       1.0  0.9132122477880682  0.6554171011693617  0.7746492421769494  1.0000
  H   H14       1.0  0.0038228343918615933  0.9016281144801247  0.9032850582015103  1.0000
  H   H15       1.0  0.9945187743916882  0.6827177856163048  0.2773323967085928  1.0000
  C   C24       1.0  0.9098780873947508  0.530021114987379  0.17649304701482985  1.0000
  C   C25       1.0  0.9792053059413763  0.6001531293221074  0.16969778273523994  1.0000
  C   C26       1.0  0.01369517616352911  0.6370256169686974  0.049061761604362486  1.0000
  C   C27       1.0  0.9793857018304212  0.6003352713319525  0.9343967620886323  1.0000
  C   C28       1.0  0.9100153704045698  0.5301610296086507  0.9391244524317873  1.0000
  C   C29       1.0  0.8755868274874129  0.49572986119412676  0.06060096785523328  1.0000
  C   C30       1.0  0.08889931964666165  0.7082346520034326  0.043153835229475135  1.0000
  O   O1        1.0  0.14573912039146109  0.5999820590157177  0.04958425867015049  1.0000
  C   C31       1.0  0.21665438963586836  0.6654667402813108  0.044151711713513946  1.0000
  H   H16       1.0  0.8837368236532872  0.501644588131622  0.5065889449204188  1.0000
  H   H17       1.0  0.006669008720729067  0.6263599363792896  0.2580924927084398  1.0000
  H   H18       1.0  0.006973140905925716  0.6266684385536624  0.8416151120219123  1.0000
  H   H19       1.0  0.8221222225561831  0.44162990735049323  0.06507935733311543  1.0000
  H   H20       1.0  0.7795627690697987  0.3963241934082724  0.7408836195751931  1.0000
  H   H21       1.0  0.0932472217336795  0.7783971687036597  0.12593077915889972  1.0000
  H   H22       1.0  0.09342136056254091  0.7784100008341079  0.950814205852149  1.0000
  H   H23       1.0  0.26070236281285153  0.5791750275156733  0.04928873062087492  1.0000
  H   H24       1.0  0.22460700488046492  0.7320102480285426  0.12832787848796046  1.0000
  H   H25       1.0  0.22479070993358016  0.7320607341556287  0.9508142815643926  1.0000
  Zn  Zn1       1.0  0.8276507950370507  0.5344237022467717  0.5590275152644191  1.0000
  Zn  Zn2       1.0  0.9922354532971195  0.525758145907578  0.5565894674814236  1.0000
  C   C32       1.0  0.909957258364937  0.5243912045883818  0.794958297664692  1.0000
  C   C33       1.0  0.909930796903396  0.5357923680506154  0.32065878986349006  1.0000
  C   C34       1.0  0.9113390443649678  0.7934056028944023  0.5532071376845984  1.0000
  C   C35       1.0  0.9085489455640197  0.2667762405678209  0.562410016136529  1.0000
  O   O2        1.0  0.9724074733929354  0.5344344300923247  0.36811689002403775  1.0000
  O   O3        1.0  0.9723965234269409  0.5191710980997724  0.7456493994896554  1.0000
  O   O4        1.0  0.9735114913625947  0.736403671462039  0.550433643109798  1.0000
  O   O5        1.0  0.9712924493328838  0.31720186998256095  0.5633325498971917  1.0000
  O   O6        1.0  0.848593742836627  0.7429799811304856  0.5522844336738102  1.0000
  O   O7        1.0  0.8474787840756595  0.5257491399036902  0.747500124585881  1.0000
  O   O8        1.0  0.8474897335440343  0.541012421366927  0.3699660538274605  1.0000
  O   O9        1.0  0.8463747094437215  0.32377985096335715  0.5651818110324767  1.0000
