data_image0
_chemical_formula_structural       NC12NC2H8C9H10C6NCOH5Zn2C4O8
_chemical_formula_sum              "N3 C34 H23 O9 Zn2"
_cell_length_a       19.240039667572717
_cell_length_b       10.297183801781406
_cell_length_c       9.27373355559583
_cell_angle_alpha    86.14735742997276
_cell_angle_beta     90.0110552776814
_cell_angle_gamma    89.99762600624447

_space_group_name_H-M_alt    "P 1"
_space_group_IT_number       1

loop_
  _space_group_symop_operation_xyz
  'x, y, z'

loop_
  _atom_site_type_symbol
  _atom_site_label
  _atom_site_symmetry_multiplicity
  _atom_site_fract_x
  _atom_site_fract_y
  _atom_site_fract_z
  _atom_site_occupancy
  N   N1        1.0  0.6542980183995  0.4063030262991303  0.40954928376346267  1.0000
  C   C1        1.0  0.5941496495719151  0.40630310942483505  0.4095491927938273  1.0000
  C   C2        1.0  0.519331612414006  0.40630322527043244  0.40954904036390505  1.0000
  C   C3        1.0  0.4828699804080229  0.3429290730342358  0.5243413188758475  1.0000
  C   C4        1.0  0.4101992436838489  0.34281908929533694  0.5244374119701998  1.0000
  C   C5        1.0  0.3729993774511715  0.4063033154196976  0.4095487876498167  1.0000
  C   C6        1.0  0.41017518962158556  0.4697877306676157  0.2946603791322946  1.0000
  C   C7        1.0  0.4828458894789829  0.46967751267815117  0.2947566082837365  1.0000
  C   C8        1.0  0.2957942870034668  0.4063032357138841  0.40954868179963744  1.0000
  C   C9        1.0  0.2586133068854463  0.29346033123050796  0.45606840568533524  1.0000
  C   C10       1.0  0.1859426067210686  0.29356628157265163  0.4559670065514907  1.0000
  C   C11       1.0  0.14946200008941288  0.4063031071586638  0.40954874945606284  1.0000
  C   C12       1.0  0.0746439629625947  0.4063029960507478  0.40954902546153904  1.0000
  N   N2        1.0  0.014495646132865204  0.40630295745066647  0.40954925677448895  1.0000
  C   C13       1.0  0.1859289043072382  0.5190400080259945  0.36313043362915254  1.0000
  C   C14       1.0  0.2585995887241285  0.5191461367951526  0.3630288539705042  1.0000
  H   H1        1.0  0.5105942701612625  0.2938706882042814  0.6139676689678717  1.0000
  H   H2        1.0  0.3831154578457464  0.2945709686057756  0.6153013192729913  1.0000
  H   H3        1.0  0.3830724446657222  0.5180358778718362  0.2037964153875913  1.0000
  H   H4        1.0  0.5105513712194542  0.5187358001751314  0.2051305643034793  1.0000
  H   H5        1.0  0.2857117726048182  0.20461466578810517  0.4906989048307238  1.0000
  H   H6        1.0  0.1582330416702831  0.20563111798927114  0.4917434161301075  1.0000
  H   H7        1.0  0.1582086459122775  0.6069751472217959  0.3273540402095128  1.0000
  H   H8        1.0  0.2856876018155967  0.6079918809558569  0.32839830510237333  1.0000
  C   C15       1.0  0.8344026216172368  0.02482941937739836  0.4097534618483447  1.0000
  C   C16       1.0  0.8323622268577349  0.03322276572961358  0.2580938971693927  1.0000
  C   C17       1.0  0.8313167121907863  0.9209064351209537  0.18039426718943252  1.0000
  C   C18       1.0  0.832354029348214  0.7980459884309177  0.25750608715360346  1.0000
  C   C19       1.0  0.8343977298172686  0.7877667165720126  0.40935747901969544  1.0000
  C   C20       1.0  0.835408025303154  0.9016249744174352  0.48448991518657114  1.0000
  C   C21       1.0  0.8291096888825155  0.9394166266765969  0.016363739078194998  1.0000
  C   C22       1.0  0.7884048649639269  0.8399238573278376  0.9361349510520576  1.0000
  C   C23       1.0  0.8675867191265285  0.8401877849689571  0.9315565563245163  1.0000
  H   H9        1.0  0.8351954507215011  0.3491336477977527  0.46819275662396675  1.0000
  H   H10       1.0  0.8315746678602305  0.12788542583776508  0.19954493790635808  1.0000
  H   H11       1.0  0.8315866545347295  0.7098958036898417  0.20058302116125803  1.0000
  H   H12       1.0  0.8369818843458334  0.8944218885869876  0.6014984540786179  1.0000
  H   H13       1.0  0.8382484719053649  0.561135616506155  0.6961620003662075  1.0000
  H   H14       1.0  0.8284009508865394  0.03962233555880146  0.9636414437779872  1.0000
  H   H15       1.0  0.7652183541282858  0.7569206256287531  0.0017229506434430816  1.0000
  H   H16       1.0  0.7638749922030491  0.8798107347417017  0.8341663620649444  1.0000
  H   H17       1.0  0.8924989326840004  0.7573456821284668  0.9943641793478473  1.0000
  H   H18       1.0  0.8893351553587553  0.8802265362868096  0.8269107673406553  1.0000
  C   C24       1.0  0.8343604254364575  0.40220523582066475  0.9863306044635856  1.0000
  C   C25       1.0  0.7704800641602041  0.39474921248746925  0.060285952571593304  1.0000
  C   C26       1.0  0.7072317127658353  0.3978206243024922  0.9853348894681472  1.0000
  C   C27       1.0  0.7078451693009092  0.4125706593082162  0.8339794993138363  1.0000
  C   C28       1.0  0.7706804601066674  0.41808824450058646  0.7588211649626548  1.0000
  C   C29       1.0  0.8344399112737542  0.4103908788941548  0.8327803886769893  1.0000
  N   N3        1.0  0.6431453393776208  0.3932644406475976  0.065351755962759  1.0000
  C   C30       1.0  0.5805276703171478  0.3334445963009254  0.018600395168461903  1.0000
  O   O1        1.0  0.5801626339218802  0.26469813126136765  0.9112852426054715  1.0000
  H   H19       1.0  0.9981425707241633  0.49240717192749367  0.08259719622318595  1.0000
  H   H20       1.0  0.659844319979006  0.421219784631191  0.7733604097803028  1.0000
  H   H21       1.0  0.9452980419382639  0.4656528194226937  0.547645441497139  1.0000
  H   H22       1.0  0.6428962049601383  0.42780486383747146  0.16875282802655533  1.0000
  H   H23       1.0  0.5330227951488182  0.34433909095359283  0.07901559352603682  1.0000
  Zn  Zn1       1.0  0.7582432830405352  0.40629961864206093  0.40955758806981724  1.0000
  Zn  Zn2       1.0  0.9105504014355761  0.4062958824653653  0.40955272011680455  1.0000
  C   C31       1.0  0.8344233705471498  0.40366853196950214  0.6727859218940637  1.0000
  C   C32       1.0  0.8343719771207073  0.4089286095346394  0.14632452684488517  1.0000
  C   C33       1.0  0.8343945278209062  0.6434997845424975  0.40368919554083704  1.0000
  C   C34       1.0  0.8344007678924243  0.16909579697494231  0.4154213308474708  1.0000
  O   O2        1.0  0.8921756116835944  0.4111779500149999  0.20001810433702438  1.0000
  O   O3        1.0  0.8922173146666098  0.40141537181384734  0.6190882353704749  1.0000
  O   O4        1.0  0.8921932447727512  0.5950821558580246  0.40179072426015683  1.0000
  O   O5        1.0  0.892199629595143  0.21751117421985144  0.41731550738245726  1.0000
  O   O6        1.0  0.7765940029060233  0.5950843268901902  0.40179480079824437  1.0000
  O   O7        1.0  0.7766180727794626  0.40141910283533067  0.6190922342532827  1.0000
  O   O8        1.0  0.7765763696802434  0.41118161901122297  0.20002037047593424  1.0000
  O   O9        1.0  0.7766003875991565  0.21751483496966137  0.41731788158033245  1.0000
