data_image0
_chemical_formula_structural       NC6NCNCH5C6NH5C6ClH3Zn2C4O8
_chemical_formula_sum              "N4 C24 H13 Cl1 Zn2 O8"
_cell_length_a       14.933214217465613
_cell_length_b       9.274771166103582
_cell_length_c       10.302974078461048
_cell_angle_alpha    85.4557754151483
_cell_angle_beta     89.96595870270414
_cell_angle_gamma    90.63112361825276

_space_group_name_H-M_alt    "P 1"
_space_group_IT_number       1

loop_
  _space_group_symop_operation_xyz
  'x, y, z'

loop_
  _atom_site_type_symbol
  _atom_site_label
  _atom_site_symmetry_multiplicity
  _atom_site_fract_x
  _atom_site_fract_y
  _atom_site_fract_z
  _atom_site_occupancy
  N   N1        1.0  0.8534573959837793  0.5795475028239323  0.5645692967593123  1.0000
  C   C1        1.0  0.7759735874673683  0.5805444895290712  0.5636755479559312  1.0000
  C   C2        1.0  0.6795831901036911  0.5817874772749703  0.5625611538733717  1.0000
  C   C3        1.0  0.6311389268751837  0.4859952167954585  0.6484515002896603  1.0000
  C   C4        1.0  0.5376125114762154  0.4870784208246002  0.6474802921618459  1.0000
  C   C5        1.0  0.49162765018961513  0.5838990011592675  0.5606679548997344  1.0000
  C   C6        1.0  0.39503847307718304  0.5817896346078331  0.562559285203899  1.0000
  N   N2        1.0  0.3175414445718179  0.5800299568847911  0.5641367364081251  1.0000
  C   C7        1.0  0.5401785066161264  0.6809008566780168  0.4736931629230068  1.0000
  N   N3        1.0  0.4955180285615932  0.7815346339426767  0.3834620051102624  1.0000
  C   C8        1.0  0.6341790263073934  0.6788512247832168  0.4755310319235888  1.0000
  H   H1        1.0  0.6656477876097312  0.4104694616620652  0.7161702234510033  1.0000
  H   H2        1.0  0.5010444776148736  0.41218800011212875  0.7146292394924187  1.0000
  H   H3        1.0  0.5323335450654508  0.8526118779861009  0.31973188122296947  1.0000
  H   H4        1.0  0.42581120206973705  0.7868892091542375  0.3786609892702424  1.0000
  H   H5        1.0  0.6718666205605017  0.7529881246442351  0.4090575670981131  1.0000
  C   C9        1.0  0.0827544527656372  0.156189305939042  0.5650632277174317  1.0000
  C   C10       1.0  0.06214818121053581  0.23947664120871412  0.44898435697307937  1.0000
  C   C11       1.0  0.049902750285655516  0.17441453051067413  0.33216110189550707  1.0000
  C   C12       1.0  0.05831053745822092  0.024687660371504053  0.3305704293928844  1.0000
  C   C13       1.0  0.07726089823081073  0.9400791757409104  0.4450559953376902  1.0000
  C   C14       1.0  0.08825288841457395  0.0033770604224285863  0.5636541017547971  1.0000
  N   N4        1.0  0.02984666190849561  0.26080193572392174  0.21480573324914373  1.0000
  H   H6        1.0  0.18353410996744357  0.23595437242586303  0.8490970099022472  1.0000
  H   H7        1.0  0.04931274471560321  0.9731910876579031  0.24068632592496186  1.0000
  H   H8        1.0  0.15250254657506046  0.7063775289556647  0.7569016635364658  1.0000
  H   H9        1.0  0.02367685369604033  0.37286942339695495  0.21476931634640417  1.0000
  H   H10       1.0  0.020933171547943275  0.2133226582964185  0.12705660479171055  1.0000
  C   C15       1.0  0.08550367192223221  0.5797831843319396  0.1831161577406517  1.0000
  C   C16       1.0  0.06895452809076134  0.42994511009048053  0.1926135476121067  1.0000
  C   C17       1.0  0.06074334018679206  0.3555995388428326  0.08036910219964177  1.0000
  C   C18       1.0  0.06895456866991978  0.4299451915979129  0.9575056484681691  1.0000
  C   C19       1.0  0.08550366915481372  0.5797831098694297  0.9456011769400517  1.0000
  C   C20       1.0  0.09369758764390967  0.6539717805485419  0.05906038102171806  1.0000
  Cl  Cl1       1.0  0.04006953094525236  0.1684161877732695  0.09373714115482401  1.0000
  H   H11       1.0  0.06237255931298782  0.37035100895322604  0.28691611105158316  1.0000
  H   H12       1.0  0.06237262175517502  0.37035098843503533  0.8717151449535931  1.0000
  H   H13       1.0  0.1064607439120493  0.7695314007021292  0.050807383899460934  1.0000
  Zn  Zn1       1.0  0.9873820031243355  0.5796828580771012  0.5644519806002908  1.0000
  Zn  Zn2       1.0  0.1836167459644491  0.5798827677535869  0.5642647336071027  1.0000
  C   C21       1.0  0.08546436327468836  0.5740365691460347  0.801484715040496  1.0000
  C   C22       1.0  0.08553654050401427  0.5855308789380615  0.3272321215189833  1.0000
  C   C23       1.0  0.08720894692444725  0.8432405059845314  0.5587469823640088  1.0000
  C   C24       1.0  0.08379187864500054  0.3163252089502937  0.5699699263577296  1.0000
  O   O1        1.0  0.16001759287846973  0.5875294293027402  0.3755277066880698  1.0000
  O   O2        1.0  0.1599209330903054  0.5721886573891857  0.7530466418241285  1.0000
  O   O3        1.0  0.16132870255866927  0.7895742399119581  0.5570342037412548  1.0000
  O   O4        1.0  0.15860975651545547  0.370143857030722  0.5715400474752861  1.0000
  O   O5        1.0  0.012388925608052943  0.7894217687333169  0.5571766667891744  1.0000
  O   O6        1.0  0.010981167383667723  0.572037919293167  0.7531890327668558  1.0000
  O   O7        1.0  0.011077826905177229  0.5873786409395267  0.3756685368312602  1.0000
  O   O8        1.0  0.009669990471536724  0.3699930583501052  0.5716809749712015  1.0000
