data_image0
_chemical_formula_structural       NC9NC4H8C6SCNH4C8NH7Zn2C4O8
_chemical_formula_sum              "N4 C32 H19 S1 Zn2 O8"
_cell_length_a       16.32274767691083
_cell_length_b       10.302215558581764
_cell_length_c       9.274266800404106
_cell_angle_alpha    85.99272178288915
_cell_angle_beta     89.02225532851281
_cell_angle_gamma    89.54366289277024

_space_group_name_H-M_alt    "P 1"
_space_group_IT_number       1

loop_
  _space_group_symop_operation_xyz
  'x, y, z'

loop_
  _atom_site_type_symbol
  _atom_site_label
  _atom_site_symmetry_multiplicity
  _atom_site_fract_x
  _atom_site_fract_y
  _atom_site_fract_z
  _atom_site_occupancy
  N   N1        1.0  0.7789094605374094  0.4008038476804017  0.39821712909586404  1.0000
  C   C1        1.0  0.7268407543892318  0.35296835100095825  0.3379434731735358  1.0000
  C   C2        1.0  0.6621185351733297  0.29355629161987684  0.2630831105527862  1.0000
  C   C3        1.0  0.674124628863069  0.21229116418310293  0.16068269153636483  1.0000
  C   C4        1.0  0.5949802308858434  0.1726333777026383  0.11071469071660388  1.0000
  C   C5        1.0  0.5357234299167778  0.23067169029212264  0.18385002864521316  1.0000
  C   C6        1.0  0.4458714972503746  0.21533271246491562  0.1645249329112426  1.0000
  C   C7        1.0  0.3898982332126956  0.28298005849111885  0.24976068545079325  1.0000
  C   C8        1.0  0.3052628374982286  0.26987062888772556  0.23324423401183123  1.0000
  C   C9        1.0  0.2488660516220059  0.33959757297411786  0.32109943829788623  1.0000
  N   N2        1.0  0.20354204309629578  0.39564655931866916  0.39172014260346977  1.0000
  C   C10       1.0  0.2755482746877249  0.18900445142787992  0.1313548738670558  1.0000
  C   C11       1.0  0.3301991188343534  0.12144671181975641  0.046232401155809726  1.0000
  C   C12       1.0  0.414677688765506  0.1342030328055106  0.062303801892110496  1.0000
  C   C13       1.0  0.5730053849649784  0.31529791264107  0.29048280828473994  1.0000
  H   H1        1.0  0.7332084636573397  0.18069097125882316  0.12086149106331567  1.0000
  H   H2        1.0  0.5870555292628108  0.10621548894316812  0.027022750819411637  1.0000
  H   H3        1.0  0.41165844581603134  0.34610974341815837  0.32930262622822015  1.0000
  H   H4        1.0  0.21021676647003132  0.17820499894479735  0.11774899305014652  1.0000
  H   H5        1.0  0.3070396660377381  0.058889185670262016  0.9674116502510627  1.0000
  H   H6        1.0  0.4547604676023175  0.08016119276018929  0.9942117407918166  1.0000
  H   H7        1.0  0.5557209843994131  0.2813255693100356  0.4031510807237282  1.0000
  H   H8        1.0  0.5563572060869195  0.4191684392638799  0.26589177425793387  1.0000
  C   C14       1.0  0.9911484707073589  0.016953643307413564  0.3949301347350924  1.0000
  C   C15       1.0  0.07306405027174945  0.012193232454998485  0.43903555660570914  1.0000
  C   C16       1.0  0.11382673585015302  0.8927866397620083  0.46144018825750743  1.0000
  C   C17       1.0  0.07327647720986263  0.7770162674933512  0.43915436374026595  1.0000
  C   C18       1.0  0.9913108000035873  0.779486693738928  0.3950194515459113  1.0000
  C   C19       1.0  0.9506874669011102  0.8999701883824734  0.37320565999200217  1.0000
  S   S1        1.0  0.21848519967908597  0.8882238255424892  0.517147523759838  1.0000
  C   C20       1.0  0.19063103492273537  0.8769758528526916  0.7022935523246961  1.0000
  N   N3        1.0  0.1723452353253023  0.8696025412103685  0.8236729937175336  1.0000
  H   H9        1.0  0.10551580508718604  0.10089311458222606  0.45642587694104186  1.0000
  H   H10       1.0  0.10587384150131006  0.6854331933153276  0.4566261941824923  1.0000
  H   H11       1.0  0.8875107394976843  0.9027920847724221  0.33921001912674953  1.0000
  H   H12       1.0  0.8368413143948056  0.5769345814345482  0.3116815327583973  1.0000
  C   C21       1.0  0.9931135383864161  0.3953585211713706  0.9716349199126716  1.0000
  C   C22       1.0  0.9454794990557654  0.3029921889744467  0.053502019677822865  1.0000
  C   C23       1.0  0.89288952586667  0.2207836767710765  0.9863996590984416  1.0000
  C   C24       1.0  0.8861809794317553  0.2296898643416696  0.8358055016233457  1.0000
  C   C25       1.0  0.9349391868469513  0.31893850536061796  0.7526145768350383  1.0000
  C   C26       1.0  0.9893457351940427  0.4010818425455717  0.81831466687176  1.0000
  C   C27       1.0  0.8303535216614397  0.13968444022624915  0.7635669550177497  1.0000
  C   C28       1.0  0.8746975051580252  0.0204467055052413  0.7316590978520892  1.0000
  N   N4        1.0  0.9097011604917792  0.9263405331323872  0.7064735276926583  1.0000
  H   H13       1.0  0.08343401812755369  0.6800127861387977  0.049722693206476494  1.0000
  H   H14       1.0  0.9475699704567354  0.29624253919500965  0.17048324817231508  1.0000
  H   H15       1.0  0.8567155928701743  0.15083592207100738  0.0521886263344733  1.0000
  H   H16       1.0  0.9317489434212766  0.32193969879567796  0.6357727492327792  1.0000
  H   H17       1.0  0.05313217747847451  0.5901726279551598  0.5210215998302363  1.0000
  H   H18       1.0  0.8069926842313937  0.18750869873604462  0.6611610701009285  1.0000
  H   H19       1.0  0.7766094963473783  0.11366034306060536  0.834547605347514  1.0000
  Zn  Zn1       1.0  0.901449219711972  0.3993121372525954  0.39635056411717356  1.0000
  Zn  Zn2       1.0  0.08100223527021953  0.3971276953294589  0.39359851639249815  1.0000
  C   C29       1.0  0.9900550195814593  0.3948276789763896  0.658273516322035  1.0000
  C   C30       1.0  0.9923983958332194  0.4016137689092428  0.13167567582190398  1.0000
  C   C31       1.0  0.9913014848573294  0.6353129577451366  0.38925794598034913  1.0000
  C   C32       1.0  0.9911518686142997  0.16112693150128998  0.40069132377846395  1.0000
  O   O1        1.0  0.06029781990938621  0.4028784385723157  0.18434242706256154  1.0000
  O   O2        1.0  0.05843218137821116  0.3919040861606653  0.603517609432531  1.0000
  O   O3        1.0  0.05943779262939963  0.5860990114257765  0.386285647289073  1.0000
  O   O4        1.0  0.059292147871905516  0.20868352260978984  0.40157428205510604  1.0000
  O   O5        1.0  0.9231592458376876  0.5877563107190698  0.3883747993861217  1.0000
  O   O6        1.0  0.9221536352569506  0.39356294483996934  0.6056066848462622  1.0000
  O   O7        1.0  0.9240192815460087  0.4045372402903309  0.18642976923188725  1.0000
  O   O8        1.0  0.9230136090222222  0.21034231577202456  0.40366173230690183  1.0000
