data_image0
_chemical_formula_structural       NC6NCNCH5C6ClH5C9H8Zn2C4O8
_chemical_formula_sum              "N3 C27 H18 Cl1 Zn2 O8"
_cell_length_a       14.933214217465613
_cell_length_b       10.30297070629231
_cell_length_c       9.275155815604961
_cell_angle_alpha    86.05280978821669
_cell_angle_beta     90.32327604629522
_cell_angle_gamma    90.03245333812676

_space_group_name_H-M_alt    "P 1"
_space_group_IT_number       1

loop_
  _space_group_symop_operation_xyz
  'x, y, z'

loop_
  _atom_site_type_symbol
  _atom_site_label
  _atom_site_symmetry_multiplicity
  _atom_site_fract_x
  _atom_site_fract_y
  _atom_site_fract_z
  _atom_site_occupancy
  N   N1        1.0  0.8370395749790838  0.4092836361328238  0.409398976417681  1.0000
  C   C1        1.0  0.759545456601206  0.4101732605337429  0.40840863814511696  1.0000
  C   C2        1.0  0.6631422049676517  0.41128239389847754  0.4071738087131156  1.0000
  C   C3        1.0  0.6156886063579035  0.3258058446241896  0.5023465563035806  1.0000
  C   C4        1.0  0.5221509887914707  0.3267724004194543  0.5012703871511768  1.0000
  C   C5        1.0  0.4751648283475074  0.4131665317567746  0.4050760067477838  1.0000
  C   C6        1.0  0.3785974659130237  0.41128431947717653  0.40717173822672653  1.0000
  N   N2        1.0  0.301118634222016  0.40971413570714477  0.4089196681513484  1.0000
  C   C7        1.0  0.5227125112587462  0.4997224177600945  0.30870161488051906  1.0000
  N   N3        1.0  0.4770112996281733  0.5895191109337353  0.20871893321285317  1.0000
  C   C8        1.0  0.6167342282885683  0.4978935082597271  0.3107381075519382  1.0000
  H   H1        1.0  0.6509785393534385  0.25841333368735664  0.5773838242697322  1.0000
  H   H2        1.0  0.4863574561929945  0.2599468047923934  0.5756763018402835  1.0000
  H   H3        1.0  0.5130917491689394  0.6529421629849089  0.13810132303665235  1.0000
  H   H4        1.0  0.4072490974548803  0.5942970612887031  0.20339905878679385  1.0000
  H   H5        1.0  0.6536551134058234  0.5640467271843128  0.23708067627772533  1.0000
  C   C9        1.0  0.06908339417098924  0.028251472199426253  0.4091655517354076  1.0000
  C   C10       1.0  0.16165737149310355  0.025409561991927898  0.4368299546884394  1.0000
  C   C11       1.0  0.20759010781134965  0.907042637307132  0.45055619231511246  1.0000
  C   C12       1.0  0.16165737051543638  0.7903015927954492  0.43682988690761904  1.0000
  C   C13       1.0  0.06908340404741686  0.790736414661107  0.40916563422847074  1.0000
  C   C14       1.0  0.02324767160279295  0.9103051860299688  0.395468252583411  1.0000
  Cl  Cl1       1.0  0.32323706140811787  0.9049959305264149  0.4851155234339706  1.0000
  H   H6        1.0  0.034212395160824  0.3566250820642132  0.3987440487743857  1.0000
  H   H7        1.0  0.19847629160654012  0.11480452878476434  0.44783263633326503  1.0000
  H   H8        1.0  0.19847625579233985  0.6996033351203965  0.4478325328222976  1.0000
  H   H9        1.0  0.9518518108300477  0.9115686259386886  0.3741325890669458  1.0000
  H   H10       1.0  0.0342123918487143  0.463597117495231  0.39874432088698614  1.0000
  C   C15       1.0  0.06744268149067684  0.40621079672358196  0.9859360265517526  1.0000
  C   C16       1.0  0.9973900471534227  0.46940582768489103  0.05382324555433082  1.0000
  C   C17       1.0  0.9333353681577472  0.5412347637957788  0.9726046302734925  1.0000
  C   C18       1.0  0.9381454293380379  0.5513729204987293  0.8220178656138359  1.0000
  C   C19       1.0  0.006396048139077013  0.4874786814187564  0.7524241428113179  1.0000
  C   C20       1.0  0.07072411713972088  0.4127770141037457  0.8323950634528168  1.0000
  C   C21       1.0  0.8722806381156409  0.626233304225186  0.7384885014204232  1.0000
  C   C22       1.0  0.8171307408571576  0.6889186550817101  0.6685174133056284  1.0000
  C   C23       1.0  0.7502162574890014  0.7649767300118625  0.5836078514542868  1.0000
  H   H11       1.0  0.2752922369344266  0.3016570932060141  0.09867921689591319  1.0000
  H   H12       1.0  0.9933669329424577  0.46580326586179677  0.17061893836005315  1.0000
  H   H13       1.0  0.880491550020127  0.5899825860222379  0.02747223592261028  1.0000
  H   H14       1.0  0.008050590742451737  0.49358509083747526  0.6352761384221952  1.0000
  H   H15       1.0  0.20940946707387487  0.3377218170951235  0.5586694479590221  1.0000
  H   H16       1.0  0.768413125282196  0.768723781651858  0.4675900710847772  1.0000
  H   H17       1.0  0.6835226305034042  0.718683613390981  0.5987030078457849  1.0000
  H   H18       1.0  0.7479499926555312  0.8652222206926953  0.6201149223817236  1.0000
  Zn  Zn1       1.0  0.9709627997218689  0.40940445005787374  0.4092689899210183  1.0000
  Zn  Zn2       1.0  0.16719544069908154  0.4095827628813302  0.4090614901617476  1.0000
  C   C24       1.0  0.07010187119871275  0.40636385792833823  0.6723962177099221  1.0000
  C   C25       1.0  0.06805851262502394  0.41262499615302645  0.14593440156471282  1.0000
  C   C26       1.0  0.06905654353256256  0.646565944102994  0.40342236122725517  1.0000
  C   C27       1.0  0.0691037736285094  0.1724213507079879  0.4149083349566707  1.0000
  O   O1        1.0  0.1427344557550334  0.41483966492641106  0.19955257274479288  1.0000
  O   O2        1.0  0.14436196044777352  0.4042835418332693  0.6186201441328159  1.0000
  O   O3        1.0  0.143516847065692  0.5982497749022415  0.4014218530499931  1.0000
  O   O4        1.0  0.14357950175728185  0.2208734402455762  0.41675075583550836  1.0000
  O   O5        1.0  0.99457867169907  0.598113772634133  0.40157972431048616  1.0000
  O   O6        1.0  0.995423784779217  0.40414909877604854  0.6187779385472465  1.0000
  O   O7        1.0  0.9937962734285677  0.41470516318590833  0.19970863437269148  1.0000
  O   O8        1.0  0.99464131984605  0.2207389300574405  0.416906925518743  1.0000
