data_image0
_chemical_formula_structural       NC9NC5H8C6H6C6NCOH7Zn2C4O8
_chemical_formula_sum              "N3 C31 H21 O9 Zn2"
_cell_length_a       17.807436237873137
_cell_length_b       10.681118228259551
_cell_length_c       10.29962270195845
_cell_angle_alpha    85.57967045949373
_cell_angle_beta     89.41121966804023
_cell_angle_gamma    88.3900060031841

_space_group_name_H-M_alt    "P 1"
_space_group_IT_number       1

loop_
  _space_group_symop_operation_xyz
  'x, y, z'

loop_
  _atom_site_type_symbol
  _atom_site_label
  _atom_site_symmetry_multiplicity
  _atom_site_fract_x
  _atom_site_fract_y
  _atom_site_fract_z
  _atom_site_occupancy
  N   N1        1.0  0.7071413652431174  0.3377549939551917  0.5571782420971889  1.0000
  C   C1        1.0  0.6465517835648318  0.30381860281630213  0.5461546711779502  1.0000
  C   C2        1.0  0.5711850033124407  0.2616054695052066  0.5324425458810436  1.0000
  C   C3        1.0  0.5530739870239528  0.192708730383921  0.4274431479768066  1.0000
  C   C4        1.0  0.4798967169110894  0.15161549110629347  0.41404693234791057  1.0000
  C   C5        1.0  0.4237817386049375  0.17905493379169915  0.5056176638451246  1.0000
  C   C6        1.0  0.3460131795675954  0.1354942416107192  0.4914630275713657  1.0000
  C   C7        1.0  0.2838416551665238  0.2143386392619484  0.5174011236303784  1.0000
  C   C8        1.0  0.21052208279394025  0.173049617004485  0.5040185885564777  1.0000
  C   C9        1.0  0.1473005360629845  0.25448936376780695  0.5303205769099648  1.0000
  N   N2        1.0  0.09648340064973998  0.31996128617257175  0.5514666490796097  1.0000
  C   C10       1.0  0.19879048529052112  0.05266742242720767  0.4646726083717557  1.0000
  C   C11       1.0  0.2601046383050228  0.9738096646127099  0.43872612288558854  1.0000
  C   C12       1.0  0.33330474093148627  0.014718173900507338  0.4519061260751436  1.0000
  C   C13       1.0  0.4425842002237926  0.24842845134135483  0.6108362843867361  1.0000
  C   C14       1.0  0.5158143126383237  0.2893380480918949  0.6240768543083559  1.0000
  H   H1        1.0  0.595455515357254  0.17100460113228458  0.3557327568314366  1.0000
  H   H2        1.0  0.4669686856069262  0.0998250067282356  0.33112919608053426  1.0000
  H   H3        1.0  0.2923444927410451  0.30833164344474007  0.5462772437637522  1.0000
  H   H4        1.0  0.1423234889408846  0.01984364548797246  0.45407806325056327  1.0000
  H   H5        1.0  0.2509032316076861  0.8806071055493465  0.40864963158796175  1.0000
  H   H6        1.0  0.3799420309972491  0.9513152341157228  0.43285833128983  1.0000
  H   H7        1.0  0.4009197941806267  0.26961317741745705  0.6838411307937735  1.0000
  H   H8        1.0  0.5292704985943933  0.3423052099512597  0.7059529988240614  1.0000
  C   C15       1.0  0.9018159824058166  0.9611079877033094  0.5543280016261802  1.0000
  C   C16       1.0  0.9348153414875952  0.8851196014203749  0.6569779748512433  1.0000
  C   C17       1.0  0.9348153299905549  0.7542373637510102  0.6569779156463682  1.0000
  C   C18       1.0  0.9018159698029198  0.696598392254079  0.5543280579498444  1.0000
  C   C19       1.0  0.8688439276723953  0.7725741575994725  0.45176291131089275  1.0000
  C   C20       1.0  0.8688439391305688  0.9034664151915288  0.4517629638500196  1.0000
  H   H9        1.0  0.868444495538419  0.26909585842507977  0.45052162563694226  1.0000
  H   H10       1.0  0.9606818405202329  0.9267389508315708  0.7374398275573504  1.0000
  H   H11       1.0  0.9606817481492652  0.6982349264500135  0.7374398059727748  1.0000
  H   H12       1.0  0.8429740560047998  0.7310005019978925  0.371290552702914  1.0000
  H   H13       1.0  0.84297403631034  0.9594249419284806  0.37129054243218335  1.0000
  H   H14       1.0  0.8684447720700467  0.40716649478510397  0.45052127028426076  1.0000
  C   C21       1.0  0.9017444831196066  0.32873436078273444  0.17297229334456235  1.0000
  C   C22       1.0  0.8230253941593636  0.34199281363710393  0.1720335451933861  1.0000
  C   C23       1.0  0.783504919422597  0.35071665549944275  0.05459603896075804  1.0000
  C   C24       1.0  0.8231915079262176  0.3422536356501349  0.9368589158372417  1.0000
  C   C25       1.0  0.9018874588534113  0.32897198439794084  0.9356837218044296  1.0000
  C   C26       1.0  0.9407374733955962  0.3227893622428455  0.05425037966735924  1.0000
  N   N3        1.0  0.7028541885338091  0.3623440890070894  0.05766180122872644  1.0000
  C   C27       1.0  0.6587804141354974  0.43271051860809234  0.9602348352413925  1.0000
  O   O1        1.0  0.689043585007166  0.5037164439365076  0.8726809373880244  1.0000
  H   H15       1.0  0.050175014389044044  0.30238698110750617  0.3821029138647325  1.0000
  H   H16       1.0  0.7920057745291104  0.34666916211524246  0.26264425727736734  1.0000
  H   H17       1.0  0.7927002098590981  0.3434107530748815  0.8464539889581252  1.0000
  H   H18       1.0  0.0014221695382024024  0.31258471520484754  0.054096627903637014  1.0000
  H   H19       1.0  0.9320192886641955  0.32197805553546444  0.6079389635004878  1.0000
  H   H20       1.0  0.6743278821817094  0.3247104378639638  0.14017758722446685  1.0000
  H   H21       1.0  0.5981938695196858  0.42766894861016475  0.9640184582576962  1.0000
  Zn  Zn1       1.0  0.8194970666256758  0.33261677505569764  0.5555375102620681  1.0000
  Zn  Zn2       1.0  0.9841276830716522  0.32508930026296234  0.5531180571569652  1.0000
  C   C28       1.0  0.9018587572741091  0.3239382247813396  0.7915149896782201  1.0000
  C   C29       1.0  0.9017677902082781  0.3337693484807269  0.3171406787826263  1.0000
  C   C30       1.0  0.9018111276986907  0.5575735891765432  0.5491531106582719  1.0000
  C   C31       1.0  0.9018153636197979  0.10013248209246604  0.5595026278642883  1.0000
  O   O2        1.0  0.9642520732418909  0.3325970354789147  0.36460673608539085  1.0000
  O   O3        1.0  0.9643253027597806  0.3193964137368884  0.7422122496178285  1.0000
  O   O4        1.0  0.9642859993158259  0.5080599641380164  0.5465033299363635  1.0000
  O   O5        1.0  0.9642913204903145  0.14393349657452978  0.5603155592211496  1.0000
  O   O6        1.0  0.8393333730266624  0.5137725813142489  0.5483400090166934  1.0000
  O   O7        1.0  0.8393726764541651  0.3251105354762977  0.7440488594552555  1.0000
  O   O8        1.0  0.8392994466935548  0.3383111130897447  0.36644178457534937  1.0000
  O   O9        1.0  0.8393386939571581  0.14964756525873546  0.5621507050756253  1.0000
