data_image0
_chemical_formula_structural       NC9NC5H8C6NCOC6H11C7OC3FC3H8Zn2C4O8
_chemical_formula_sum              "N3 C44 H27 O10 F1 Zn2"
_cell_length_a       17.807436237873137
_cell_length_b       10.29965916528486
_cell_length_c       10.29938172300155
_cell_angle_alpha    85.59399439143573
_cell_angle_beta     89.37614531969923
_cell_angle_gamma    88.40731929758992

_space_group_name_H-M_alt    "P 1"
_space_group_IT_number       1

loop_
  _space_group_symop_operation_xyz
  'x, y, z'

loop_
  _atom_site_type_symbol
  _atom_site_label
  _atom_site_symmetry_multiplicity
  _atom_site_fract_x
  _atom_site_fract_y
  _atom_site_fract_z
  _atom_site_occupancy
  N   N1        1.0  0.7078914737948936  0.38732713308103023  0.5575664755001011  1.0000
  C   C1        1.0  0.6472996896954784  0.3521355699478154  0.5465314507017494  1.0000
  C   C2        1.0  0.5719301698797691  0.30836114090321165  0.5328050780400171  1.0000
  C   C3        1.0  0.5538438725691279  0.2369203184382922  0.4277796422627926  1.0000
  C   C4        1.0  0.48066395248387034  0.19430720624303355  0.41436955563154143  1.0000
  C   C5        1.0  0.42452155128465285  0.22275739003748996  0.5059523340182839  1.0000
  C   C6        1.0  0.3467501669192805  0.17758556152480431  0.4917829954035997  1.0000
  C   C7        1.0  0.2845836438556445  0.2593460831761649  0.5177477132754378  1.0000
  C   C8        1.0  0.21126138150204038  0.2165299429026568  0.5043512437248747  1.0000
  C   C9        1.0  0.1480451738329694  0.3009818292646222  0.5306807136991287  1.0000
  N   N2        1.0  0.09723233026992147  0.3688753034725243  0.5518488792275351  1.0000
  C   C10       1.0  0.1995220569403534  0.09169530235047918  0.46496462515584813  1.0000
  C   C11       1.0  0.2608312091811398  0.009920926599170658  0.43899151321117924  1.0000
  C   C12       1.0  0.3340340049804865  0.052342484191391536  0.4521853197902204  1.0000
  C   C13       1.0  0.4432993021322453  0.2946926218477164  0.6111971555192761  1.0000
  C   C14       1.0  0.5165320865162588  0.3371153041116477  0.6244515312267787  1.0000
  H   H1        1.0  0.5962468373857837  0.21441667423906008  0.35605974651666905  1.0000
  H   H2        1.0  0.4677559118840691  0.14060450417619363  0.3314321119680157  1.0000
  H   H3        1.0  0.293093166396805  0.35681559717939515  0.5466555012084873  1.0000
  H   H4        1.0  0.1430529064876269  0.057657501204239736  0.4543590039530308  1.0000
  H   H5        1.0  0.2516236836338057  0.9132711660207145  0.4088835717876718  1.0000
  H   H6        1.0  0.38066663357730546  0.9865944446925105  0.4331161780162722  1.0000
  H   H7        1.0  0.40161290894480467  0.31665757902625047  0.6842113805363146  1.0000
  H   H8        1.0  0.529968861178462  0.39203827549579023  0.7063477322927614  1.0000
  C   C15       1.0  0.9024994280496231  0.9967434763071481  0.5545931401749682  1.0000
  C   C16       1.0  0.9030328278902283  0.005963768123815381  0.4177717523298759  1.0000
  C   C17       1.0  0.9044093248546001  0.8937201738953015  0.34891716960481434  1.0000
  C   C18       1.0  0.9031743256127412  0.7707668460331437  0.4180660534255786  1.0000
  C   C19       1.0  0.902631535445453  0.7594486268304049  0.5548333565326022  1.0000
  C   C20       1.0  0.9025615072470475  0.8730319291137375  0.6223210483128387  1.0000
  N   N3        1.0  0.9038005753667775  0.9067856059510667  0.20886247417143397  1.0000
  C   C21       1.0  0.9390290488013951  0.8139665690253851  0.12862044718977317  1.0000
  O   O1        1.0  0.9908467688363297  0.7387042911510886  0.17483669596844842  1.0000
  C   C22       1.0  0.917215642147401  0.8087680060424713  0.990577026185835  1.0000
  C   C23       1.0  0.8477558527642036  0.8619052019529777  0.9452521206281893  1.0000
  C   C24       1.0  0.8276466119685978  0.8558111596091084  0.8150271415430305  1.0000
  C   C25       1.0  0.8762975965167211  0.7963964316990975  0.7288576107763851  1.0000
  C   C26       1.0  0.9450962836144601  0.7425026905877954  0.7728160303457456  1.0000
  C   C27       1.0  0.9654923406016976  0.7482267805303083  0.9029323247802701  1.0000
  H   H9        1.0  0.9007762127913098  0.18664888332318252  0.8126926666118501  1.0000
  H   H10       1.0  0.9029553624587175  0.10056284886132838  0.3639508797254696  1.0000
  H   H11       1.0  0.9013174406046546  0.684050618133142  0.3652889540433819  1.0000
  H   H12       1.0  0.9021603615970419  0.8650582605333711  0.727794751011889  1.0000
  H   H13       1.0  0.9014238450264902  0.4277052438214651  0.6073116169083648  1.0000
  H   H14       1.0  0.8823727686668431  0.993922206352615  0.16323756594501382  1.0000
  H   H15       1.0  0.8083775385052532  0.9064848865174369  0.010311561749996475  1.0000
  H   H16       1.0  0.7741123766928893  0.896772621492361  0.7810282042886194  1.0000
  H   H17       1.0  0.8605817564570384  0.791757904529019  0.6281327756092381  1.0000
  H   H18       1.0  0.9826973818398146  0.6962110036167034  0.7060190014564411  1.0000
  H   H19       1.0  0.019215073007686764  0.706069693392349  0.9347098268861793  1.0000
  C   C28       1.0  0.902628714452402  0.37799193446537704  0.1733446321049028  1.0000
  C   C29       1.0  0.9263802323039562  0.24641491081088174  0.18181565686886647  1.0000
  C   C30       1.0  0.9391760846003074  0.18046863529064372  0.06886759440638879  1.0000
  C   C31       1.0  0.9263084296181354  0.24671144089593122  0.9465507543629282  1.0000
  C   C32       1.0  0.902502234957594  0.37820016953683894  0.9360819092573016  1.0000
  C   C33       1.0  0.890989512370762  0.4431745247022356  0.05006352872284104  1.0000
  C   C34       1.0  0.9634956042912586  0.04115089551580686  0.07771188095444148  1.0000
  O   O2        1.0  0.9403440981396138  0.9690057279648618  0.9938473520695905  1.0000
  C   C35       1.0  0.014084475955771227  0.9836815633827384  0.18159670125372118  1.0000
  C   C36       1.0  0.008009615890170792  0.8520117351910874  0.22691716056972358  1.0000
  C   C37       1.0  0.0560395692730675  0.7965296091895435  0.32375140611319075  1.0000
  F   F1        1.0  0.04936495323284283  0.6697817637179432  0.36747787766881257  1.0000
  C   C38       1.0  0.11092112642977736  0.8715503871300698  0.375438029945117  1.0000
  C   C39       1.0  0.11807765663326085  0.0019635329034000067  0.3300362449055858  1.0000
  C   C40       1.0  0.07019674889287297  0.057850355873849665  0.2332709172006151  1.0000
  H   H20       1.0  0.8567030118115574  0.625732838068776  0.36474241963295917  1.0000
  H   H21       1.0  0.9341545679487268  0.1946572110012803  0.27649076174150355  1.0000
  H   H22       1.0  0.9356112317856341  0.19572226967771564  0.8593722840961014  1.0000
  H   H23       1.0  0.8726785093282288  0.5446103209100452  0.04272894957306317  1.0000
  H   H24       1.0  0.9656777861664776  0.7925031312212887  0.18814633352718624  1.0000
  H   H25       1.0  0.1481257291587678  0.8285797172209697  0.45029527185069035  1.0000
  H   H26       1.0  0.16099867458269723  0.05969651757914351  0.36943678863973894  1.0000
  H   H27       1.0  0.07760044808826039  0.1584560011075793  0.19793352483786286  1.0000
  Zn  Zn1       1.0  0.8202468317097864  0.38199887050519266  0.5559240104179382  1.0000
  Zn  Zn2       1.0  0.9848769505540483  0.37419298310414884  0.5535020175792449  1.0000
  C   C41       1.0  0.9025235901399398  0.3729873903248626  0.7919066088624733  1.0000
  C   C42       1.0  0.9026019901423817  0.3832060166501331  0.3175195206691006  1.0000
  C   C43       1.0  0.9026035651001043  0.6152799160833639  0.5496128581040924  1.0000
  C   C44       1.0  0.9025219587237109  0.14091193331792118  0.5598133410010622  1.0000
  O   O3        1.0  0.9650692923627145  0.38198795110151634  0.3649867948805947  1.0000
  O   O4        1.0  0.965006738733026  0.3682799881565543  0.7426007239731698  1.0000
  O   O5        1.0  0.9650704770908701  0.5639343072156107  0.5469468187831601  1.0000
  O   O6        1.0  0.9650054978455156  0.1863336439694374  0.5606406035253984  1.0000
  O   O7        1.0  0.8401182282381408  0.5698582123050819  0.548785425291461  1.0000
  O   O8        1.0  0.8400544901586248  0.3742054534849139  0.7444392617275677  1.0000
  O   O9        1.0  0.8401170440893022  0.3879133707465393  0.36682377122049226  1.0000
  O   O10       1.0  0.8400532495512799  0.192259054352661  0.5624776772301792  1.0000
