data_image0
_chemical_formula_structural       NC8NC6H8C12SCH10C12BrH8Zn2C4O8
_chemical_formula_sum              "N2 C43 H26 S1 Br1 Zn2 O8"
_cell_length_a       17.457602349358154
_cell_length_b       10.299776766347527
_cell_length_c       10.299148005577397
_cell_angle_alpha    85.55397783742741
_cell_angle_beta     92.84953389996222
_cell_angle_gamma    91.66964631390691

_space_group_name_H-M_alt    "P 1"
_space_group_IT_number       1

loop_
  _space_group_symop_operation_xyz
  'x, y, z'

loop_
  _atom_site_type_symbol
  _atom_site_label
  _atom_site_symmetry_multiplicity
  _atom_site_fract_x
  _atom_site_fract_y
  _atom_site_fract_z
  _atom_site_occupancy
  N   N1        1.0  0.7225259260663042  0.45300407413291094  0.6264707159659104  1.0000
  C   C1        1.0  0.6614596151104075  0.4070815672364625  0.6158545254460959  1.0000
  C   C2        1.0  0.5854905375482842  0.3499596814624816  0.6026575266973677  1.0000
  C   C3        1.0  0.5269337574825069  0.39010928731958816  0.6775575283782173  1.0000
  C   C4        1.0  0.45240219240104707  0.3351055204989912  0.6649749928359225  1.0000
  C   C5        1.0  0.3902528782757924  0.37749755511989513  0.7442969348784787  1.0000
  C   C6        1.0  0.3157179985033716  0.3959739066652934  0.688531860301878  1.0000
  C   C7        1.0  0.25716122088946336  0.4359395752456948  0.7635398181894671  1.0000
  C   C8        1.0  0.1811886782272633  0.45502209878120525  0.705559220041559  1.0000
  N   N2        1.0  0.12011967160294208  0.47035806813829634  0.6589429701611149  1.0000
  C   C9        1.0  0.2726469748143865  0.4576719513055627  0.8948213839244444  1.0000
  C   C10       1.0  0.3463969705294199  0.4395845186688705  0.9509740692557567  1.0000
  C   C11       1.0  0.4049419835862611  0.399798831126765  0.876423846653001  1.0000
  C   C12       1.0  0.43771657455103274  0.23927496054392083  0.5760594917856272  1.0000
  C   C13       1.0  0.4962614739470437  0.19940396770447763  0.5015595060475375  1.0000
  C   C14       1.0  0.5700081012865565  0.254520024597922  0.5146920078240513  1.0000
  H   H1        1.0  0.5392452671045538  0.46529176989328014  0.7441904407962705  1.0000
  H   H2        1.0  0.3034038067604944  0.38101935701234746  0.5865043511780921  1.0000
  H   H3        1.0  0.2277640150757488  0.4885451144157207  0.9536590425600272  1.0000
  H   H4        1.0  0.3581972580954363  0.45609674731908706  0.05262831226237518  1.0000
  H   H5        1.0  0.46141780190592285  0.3848004396418241  0.9225315938831216  1.0000
  H   H6        1.0  0.3812434396642966  0.19394211298109656  0.5654071853312418  1.0000
  H   H7        1.0  0.4844638908480875  0.12533810018419178  0.43372824122948384  1.0000
  H   H8        1.0  0.6148911297887681  0.2227771075769749  0.4563654861005723  1.0000
  C   C15       1.0  0.9213988022611365  0.08031923569115484  0.6427114563141858  1.0000
  C   C16       1.0  0.9259714510265771  0.06893764867362465  0.7796049019088408  1.0000
  C   C17       1.0  0.9282145836198838  0.9460286621544917  0.8489692265433421  1.0000
  C   C18       1.0  0.9258247504824728  0.8336434670211269  0.7796081115976797  1.0000
  C   C19       1.0  0.9212541508855228  0.8430331960755356  0.642714083947048  1.0000
  C   C20       1.0  0.9190663302555829  0.9668109179831944  0.5750320155832134  1.0000
  C   C21       1.0  0.933043475483271  0.9350517644149473  0.9937863556678952  1.0000
  C   C22       1.0  0.8891157426766256  0.8396634767515688  0.06424468709244169  1.0000
  C   C23       1.0  0.8936833368178957  0.8295683934434066  0.20053310382728615  1.0000
  C   C24       1.0  0.9419868884215384  0.9145744021348386  0.2681542794273888  1.0000
  C   C25       1.0  0.9860973246148912  0.009396682381420883  0.1990839958682484  1.0000
  C   C26       1.0  0.9816422279844363  0.019846566165750312  0.06279435155576596  1.0000
  S   S1        1.0  0.9479323407408884  0.9011641762956765  0.4430379783204584  1.0000
  C   C27       1.0  0.870834985170663  0.013858117593951613  0.45627087375511927  1.0000
  H   H9        1.0  0.926741094523202  0.15579479369225813  0.8326284556189805  1.0000
  H   H10       1.0  0.9285948045578176  0.7387431451412713  0.8325988976035035  1.0000
  H   H11       1.0  0.9155392506951466  0.9748228630344807  0.46942458583454605  1.0000
  H   H12       1.0  0.8505089070724402  0.7740210042416523  0.013975360315287013  1.0000
  H   H13       1.0  0.8593679968591956  0.7560004219638927  0.25345448747380706  1.0000
  H   H14       1.0  0.023887214809129143  0.07505914729315565  0.25087560657137065  1.0000
  H   H15       1.0  0.016925456833235767  0.0930876321994254  0.011365123064198674  1.0000
  H   H16       1.0  0.8862063868952094  0.11086568522421292  0.408646446536181  1.0000
  H   H17       1.0  0.8619164351170715  0.024133292510137853  0.5608264550163492  1.0000
  H   H18       1.0  0.8168623777901018  0.9759758257035237  0.40973885742922883  1.0000
  C   C28       1.0  0.921431023497977  0.46173282263170373  0.26133310414055355  1.0000
  C   C29       1.0  0.8492571243325073  0.5193618783142895  0.2500026346650892  1.0000
  C   C30       1.0  0.8125554016934007  0.5485230621227948  0.12711075593352872  1.0000
  C   C31       1.0  0.8490010903775304  0.5192778987352773  0.014704687583916739  1.0000
  C   C32       1.0  0.9212218911422067  0.46161962366467524  0.02409237534720376  1.0000
  C   C33       1.0  0.9569920014717566  0.43320014436280335  0.1477940089988874  1.0000
  C   C34       1.0  0.7362046748991822  0.6094896038502147  0.11616944770094961  1.0000
  C   C35       1.0  0.7200705248092844  0.7101022298749342  0.1949316655446713  1.0000
  C   C36       1.0  0.6481745830093477  0.7673725639689708  0.18443605222243753  1.0000
  C   C37       1.0  0.5915955373643824  0.7249596871237205  0.0954497292354981  1.0000
  C   C38       1.0  0.6069589970215645  0.6251002808004087  0.01677211711452053  1.0000
  C   C39       1.0  0.6787897565448383  0.5676051382514771  0.02686986421836379  1.0000
  Br  Br1       1.0  0.49343080859093363  0.803344950615153  0.08138374697384188  1.0000
  H   H19       1.0  0.8209435625402949  0.5400721012636656  0.3370301360614336  1.0000
  H   H20       1.0  0.8214443294296614  0.5431698463604306  0.9196380721674514  1.0000
  H   H21       1.0  0.012662641045033894  0.38875340223356863  0.15581753177909483  1.0000
  H   H22       1.0  0.0577489406160008  0.35353722871598486  0.8344797446034686  1.0000
  H   H23       1.0  0.7633522468832081  0.7456081712333797  0.26337478310331486  1.0000
  H   H24       1.0  0.6365744702269891  0.8449318700295523  0.24529462590171436  1.0000
  H   H25       1.0  0.5632230333473834  0.5917264795410606  0.9479849403805165  1.0000
  H   H26       1.0  0.6891062639918549  0.4893005210877208  0.9661075370018611  1.0000
  Zn  Zn1       1.0  0.8372628911676078  0.4580085781839154  0.6358490057551367  1.0000
  Zn  Zn2       1.0  0.00538269135631641  0.465342914883057  0.6495753131624089  1.0000
  C   C40       1.0  0.9212607011075882  0.4564673548620932  0.8799144122034334  1.0000
  C   C41       1.0  0.9213867169335604  0.4668858568664533  0.40551018408059525  1.0000
  C   C42       1.0  0.9212789425824844  0.6988646230438234  0.6375379276074953  1.0000
  C   C43       1.0  0.9213684183681072  0.22448702589756464  0.6478867332279588  1.0000
  O   O1        1.0  0.9851724363284051  0.47139293914497865  0.4591063912888329  1.0000
  O   O2        1.0  0.9850740203169293  0.45752588478403017  0.8367357808522757  1.0000
  O   O3        1.0  0.985087890105927  0.6532647066514168  0.6410149844701574  1.0000
  O   O4        1.0  0.9851585091964427  0.2756541240793855  0.6548270856097144  1.0000
  O   O5        1.0  0.8574870159564463  0.6476973664861527  0.630597228616885  1.0000
  O   O6        1.0  0.8574731458869709  0.4519601049044904  0.8263179557566321  1.0000
  O   O7        1.0  0.8575715623861431  0.4658271142442689  0.4486870047525471  1.0000
  O   O8        1.0  0.8575576352261107  0.2700882898754482  0.6444077964437196  1.0000
