data_image0
_chemical_formula_structural       NC12NC2H8C6SCNH5C9H9Zn2C4O8
_chemical_formula_sum              "N3 C34 H22 S1 Zn2 O8"
_cell_length_a       17.80743265337812
_cell_length_b       9.27526961838325
_cell_length_c       10.297187173949778
_cell_angle_alpha    85.82522808352634
_cell_angle_beta     91.50840816747596
_cell_angle_gamma    88.87871087483882

_space_group_name_H-M_alt    "P 1"
_space_group_IT_number       1

loop_
  _space_group_symop_operation_xyz
  'x, y, z'

loop_
  _atom_site_type_symbol
  _atom_site_label
  _atom_site_symmetry_multiplicity
  _atom_site_fract_x
  _atom_site_fract_y
  _atom_site_fract_z
  _atom_site_occupancy
  N   N1        1.0  0.6999678422613911  0.5615285316811094  0.6070622685484279  1.0000
  C   C1        1.0  0.6490013782969999  0.5943342849135809  0.5384763461137521  1.0000
  C   C2        1.0  0.5855940920562586  0.6351422612767323  0.45316409912540107  1.0000
  C   C3        1.0  0.5970530290842239  0.6950967844138016  0.32675031801953813  1.0000
  C   C4        1.0  0.5355608356638643  0.7342358149460206  0.243828102052813  1.0000
  C   C5        1.0  0.4624541070865381  0.7137127194269366  0.2866607613939134  1.0000
  C   C6        1.0  0.45001893742959215  0.6536263765022383  0.41354226879415784  1.0000
  C   C7        1.0  0.5123684330730629  0.6144909557485565  0.49644798375796245  1.0000
  C   C8        1.0  0.37234946128136925  0.6318668174695483  0.45923102175564434  1.0000
  C   C9        1.0  0.35338058697102687  0.6620726592444466  0.5864160360367054  1.0000
  C   C10       1.0  0.2802436713127398  0.6415957275955688  0.6292894435816098  1.0000
  C   C11       1.0  0.2251338621535509  0.590630795337702  0.5458148826000173  1.0000
  C   C12       1.0  0.1498630598048558  0.5695403338258578  0.5900871298167574  1.0000
  N   N2        1.0  0.08935066544034671  0.5525850211921557  0.6256789708193704  1.0000
  C   C13       1.0  0.2434120451797449  0.5602375134105866  0.41917222224577766  1.0000
  C   C14       1.0  0.31649608781309363  0.5807308158216122  0.3760429411640991  1.0000
  H   H1        1.0  0.6534450006499952  0.7115488432157384  0.2923699093749359  1.0000
  H   H2        1.0  0.544549598373426  0.7809569620247903  0.1462097318076585  1.0000
  H   H3        1.0  0.4156665899746158  0.7466040721600902  0.2211837144918307  1.0000
  H   H4        1.0  0.504085783076523  0.5662317473612097  0.5939359728806946  1.0000
  H   H5        1.0  0.3948339519157756  0.703362459605022  0.6521605144512993  1.0000
  H   H6        1.0  0.2666543459337355  0.665866950250252  0.7274105569859957  1.0000
  H   H7        1.0  0.2012346551807809  0.5203547859442734  0.3538461861710829  1.0000
  H   H8        1.0  0.32956547621100907  0.5547548042992014  0.2782186695896495  1.0000
  C   C15       1.0  0.8967800268725182  0.13364198755155599  0.6147583441059075  1.0000
  C   C16       1.0  0.8700115382396082  0.21724790167238714  0.5030759182249316  1.0000
  C   C17       1.0  0.8375153049347606  0.15201965393370062  0.3980810276499915  1.0000
  C   C18       1.0  0.8312928421575327  0.0020636128955662278  0.40260630811507014  1.0000
  C   C19       1.0  0.85844145660249  0.9169173007296234  0.51198485438956  1.0000
  C   C20       1.0  0.8925457335733689  0.9804603529902334  0.6179943455396479  1.0000
  S   S1        1.0  0.7886293437229874  0.9187850527990796  0.268198522865148  1.0000
  C   C21       1.0  0.8750724884691744  0.9005423506742978  0.19035972590687744  1.0000
  N   N3        1.0  0.9317571163292887  0.888594809731536  0.13935659176723614  1.0000
  H   H9        1.0  0.9778319455470198  0.39829320167977117  0.7810980882260785  1.0000
  H   H10       1.0  0.8725679460662563  0.33410584213964856  0.49815706858963765  1.0000
  H   H11       1.0  0.8166177293392561  0.21846618134263207  0.31352452499892625  1.0000
  H   H12       1.0  0.8545889276978853  0.800415212140604  0.5126640177138657  1.0000
  H   H13       1.0  0.016773624396449804  0.853197046153393  0.8604695260497801  1.0000
  C   C22       1.0  0.894762466243824  0.5569967598080772  0.2349277633584288  1.0000
  C   C23       1.0  0.8184220184564552  0.5983492631706027  0.22795677401383263  1.0000
  C   C24       1.0  0.7793105581940041  0.6195351276705847  0.10776892601257136  1.0000
  C   C25       1.0  0.818126088132084  0.5985090126926799  0.9927205214310457  1.0000
  C   C26       1.0  0.8945632925636259  0.5571055897206864  0.9978249737936573  1.0000
  C   C27       1.0  0.9323823255235578  0.5366184223398587  0.1192947501240722  1.0000
  C   C28       1.0  0.6967428632936963  0.6642605216331658  0.1096614694778475  1.0000
  C   C29       1.0  0.6444315182244214  0.6074742356200654  0.006653097952171724  1.0000
  C   C30       1.0  0.6659783312588765  0.7660318257445149  0.9972296694988696  1.0000
  H   H14       1.0  0.9241808462694773  0.5410753526031828  0.5651514662537949  1.0000
  H   H15       1.0  0.7889504731549972  0.6143139582044248  0.3166879520152366  1.0000
  H   H16       1.0  0.7894723599736462  0.6140270078066217  0.8988038119688188  1.0000
  H   H17       1.0  0.9912804406459681  0.5047133834651785  0.12394565779938582  1.0000
  H   H18       1.0  0.670204364395896  0.6786372350152501  0.20452583566549398  1.0000
  H   H19       1.0  0.6702019059783619  0.54181049598028  0.9330959623749602  1.0000
  H   H20       1.0  0.5861336152442657  0.5893058106046056  0.038905195254164804  1.0000
  H   H21       1.0  0.704837599138954  0.7966829633022674  0.9179492617386557  1.0000
  H   H22       1.0  0.6202729194434484  0.8405337806468383  0.02397174030926074  1.0000
  Zn  Zn1       1.0  0.812335334531146  0.5589437792658352  0.6124421204670079  1.0000
  Zn  Zn2       1.0  0.9769832267202545  0.5551580137338514  0.6203096692201485  1.0000
  C   C31       1.0  0.894627979328862  0.551340959122649  0.853599031482374  1.0000
  C   C32       1.0  0.894692370742279  0.5627626118316424  0.3791529785634691  1.0000
  C   C33       1.0  0.8933435820581764  0.8203929911758523  0.6122062699657156  1.0000
  C   C34       1.0  0.8959767204741239  0.29370884875469705  0.6205458000286446  1.0000
  O   O1        1.0  0.9571518945211963  0.5632547157651719  0.4305419480114458  1.0000
  O   O2        1.0  0.9571324015651618  0.5479744589570754  0.8081809714144998  1.0000
  O   O3        1.0  0.9560943918720688  0.7652373970271258  0.6132545740759874  1.0000
  O   O4        1.0  0.95818984800497  0.34599178928752217  0.6254682453096978  1.0000
  O   O5        1.0  0.8311286570601796  0.7681100050056286  0.6072835416858237  1.0000
  O   O6        1.0  0.8321666581058623  0.550848799252785  0.8022098763841845  1.0000
  O   O7        1.0  0.8321861517708506  0.5661290055915833  0.4245692910645624  1.0000
  O   O8        1.0  0.8332241052776924  0.3488660688149976  0.6194956857114401  1.0000
