data_image0
_chemical_formula_structural       NC8NH4C6NH7C9H9Zn2C4O8
_chemical_formula_sum              "N3 C27 H20 Zn2 O8"
_cell_length_a       13.859017124695912
_cell_length_b       9.274771166103582
_cell_length_c       9.273585224739815
_cell_angle_alpha    86.03363261937257
_cell_angle_beta     90.10205969128333
_cell_angle_gamma    90.59707951677755

_space_group_name_H-M_alt    "P 1"
_space_group_IT_number       1

loop_
  _space_group_symop_operation_xyz
  'x, y, z'

loop_
  _atom_site_type_symbol
  _atom_site_label
  _atom_site_symmetry_multiplicity
  _atom_site_fract_x
  _atom_site_fract_y
  _atom_site_fract_z
  _atom_site_occupancy
  N   N1        1.0  0.9175878182284322  0.5625182589778617  0.4073119079158698  1.0000
  C   C1        1.0  0.8450030007373717  0.5390849219904231  0.3511937747205862  1.0000
  C   C2        1.0  0.7547118161341075  0.5099372697860418  0.281390028622412  1.0000
  C   C3        1.0  0.6673759033750567  0.5383532647863714  0.3494398974203483  1.0000
  C   C4        1.0  0.5794815040906292  0.5099384900079418  0.28138944711426306  1.0000
  C   C5        1.0  0.5791053478154935  0.45310000691963964  0.14526823775725028  1.0000
  C   C6        1.0  0.6662597742165643  0.4247932313073619  0.07748031141362022  1.0000
  C   C7        1.0  0.7539706917951225  0.45309766888780373  0.14526942033696755  1.0000
  C   C8        1.0  0.48976316785127727  0.5390858437001926  0.3511932750377629  1.0000
  N   N2        1.0  0.41763894579356037  0.5625185794695668  0.4073116913288901  1.0000
  H   H1        1.0  0.6678082662336324  0.5823484504322869  0.4548009731150339  1.0000
  H   H2        1.0  0.5115901169775466  0.43073552256442676  0.09170553796399927  1.0000
  H   H3        1.0  0.665828358231324  0.380887894412882  0.9723326083185189  1.0000
  H   H4        1.0  0.8210463053160408  0.43073109346988914  0.09170772355676671  1.0000
  C   C9        1.0  0.16465667365380912  0.13892984258461083  0.40809740766859415  1.0000
  C   C10       1.0  0.1422904412026178  0.22093223082912147  0.2792089217839038  1.0000
  C   C11       1.0  0.12893199102602404  0.15456820006068717  0.14950269071233535  1.0000
  C   C12       1.0  0.13798917051231907  0.0048147860503588965  0.1477454711183832  1.0000
  C   C13       1.0  0.15856891859981112  0.9214750230658835  0.27486340662984965  1.0000
  C   C14       1.0  0.17057927427955358  0.9860960875574131  0.4065387264035191  1.0000
  N   N3        1.0  0.10715679072140327  0.2396557291841317  0.019197645353433043  1.0000
  H   H5        1.0  0.27364566614789454  0.22178726901499823  0.7235271639405609  1.0000
  H   H6        1.0  0.13742464457052872  0.3375193240851926  0.2786552845730228  1.0000
  H   H7        1.0  0.1281678691678756  0.9523160769399678  0.047949612223053606  1.0000
  H   H8        1.0  0.16281597685689797  0.8052691736909103  0.2707356267147458  1.0000
  H   H9        1.0  0.24007967691626142  0.6912049391938382  0.6211426459766927  1.0000
  H   H10       1.0  0.10050875555940886  0.3517291512640715  0.019150835245353773  1.0000
  H   H11       1.0  0.09742932195077514  0.19119825171179292  0.9217720569009816  1.0000
  C   C15       1.0  0.1670828827596329  0.5582231723159312  0.9840744221746451  1.0000
  C   C16       1.0  0.2529677301269264  0.5260965799673718  0.06009027462795568  1.0000
  C   C17       1.0  0.3402491788370323  0.5069526915358138  0.9878650925505963  1.0000
  C   C18       1.0  0.34086678910324  0.5207463917477722  0.8357804873745531  1.0000
  C   C19       1.0  0.25599415638168743  0.5501609223544686  0.7587659051024577  1.0000
  C   C20       1.0  0.16815305487900822  0.5668027132773064  0.8305616768470307  1.0000
  C   C21       1.0  0.42945108139992344  0.4738734696611325  0.07944112920972235  1.0000
  C   C22       1.0  0.5042085464913113  0.37490209118457374  0.019385258540632007  1.0000
  C   C23       1.0  0.5253409152027524  0.5361856082039784  0.022992386062302243  1.0000
  H   H12       1.0  0.007686753673232796  0.5393855031493923  0.26539335967419553  1.0000
  H   H13       1.0  0.25245946227807314  0.5191352528130286  0.17727259173154875  1.0000
  H   H14       1.0  0.40621892152867933  0.5077131088590965  0.77487011696148  1.0000
  H   H15       1.0  0.02533828026945085  0.6692941040165015  0.5417030350399235  1.0000
  H   H16       1.0  0.42304425740488716  0.4645705404763177  0.1992200970953506  1.0000
  H   H17       1.0  0.4909710615865952  0.33778363958316526  0.9098757219453905  1.0000
  H   H18       1.0  0.5437815588354447  0.30736589333238173  0.10303079956884753  1.0000
  H   H19       1.0  0.5248946879842031  0.5968605026657615  0.9156616004707042  1.0000
  H   H20       1.0  0.5772560575980725  0.5629386643057286  0.10875063482235903  1.0000
  Zn  Zn1       1.0  0.06189175855797303  0.5625145846833206  0.4073201800652368  1.0000
  Zn  Zn2       1.0  0.2733349305114594  0.5625106068397897  0.4073152620724174  1.0000
  C   C24       1.0  0.16790843832911784  0.5594345668720575  0.6705680364968456  1.0000
  C   C25       1.0  0.16732057259591104  0.5655924460656  0.1440675437008223  1.0000
  C   C26       1.0  0.16944753728361106  0.8259053909717923  0.40108991445583597  1.0000
  C   C27       1.0  0.1657813894720297  0.29911988970899284  0.4135457457732523  1.0000
  O   O1        1.0  0.24764188129277123  0.5680578391126638  0.19776084206609523  1.0000
  O   O2        1.0  0.24806759655091004  0.5569650623452225  0.6168705925962503  1.0000
  O   O3        1.0  0.2493093586209889  0.7721436379991945  0.39926509971128454  1.0000
  O   O4        1.0  0.24640004700697649  0.3528792726834476  0.4153662268672438  1.0000
  O   O5        1.0  0.08882656990727944  0.772145918842514  0.39926921526450454  1.0000
  O   O6        1.0  0.08758481985141287  0.5569690754482648  0.6168746281121447  1.0000
  O   O7        1.0  0.0871591021152942  0.568061784386452  0.19776314483032142  1.0000
  O   O8        1.0  0.08591726789003928  0.35288320873533086  0.41536863770938215  1.0000
