data_image0
_chemical_formula_structural       NC6NC3H6C6ClH5C6NCOH7Zn2C4O8
_chemical_formula_sum              "N3 C26 H18 Cl1 O9 Zn2"
_cell_length_a       14.934028789175542
_cell_length_b       10.30297070629231
_cell_length_c       9.27373355559583
_cell_angle_alpha    86.17407986501598
_cell_angle_beta     89.98656969987877
_cell_angle_gamma    89.96080423122717

_space_group_name_H-M_alt    "P 1"
_space_group_IT_number       1

loop_
  _space_group_symop_operation_xyz
  'x, y, z'

loop_
  _atom_site_type_symbol
  _atom_site_label
  _atom_site_symmetry_multiplicity
  _atom_site_fract_x
  _atom_site_fract_y
  _atom_site_fract_z
  _atom_site_occupancy
  N   N1        1.0  0.8429672684799931  0.4047006941221949  0.40975603282176065  1.0000
  C   C1        1.0  0.765481135165475  0.40370552704188617  0.40907730797592307  1.0000
  C   C2        1.0  0.6690844796432142  0.40246296543936727  0.40823004625309783  1.0000
  C   C3        1.0  0.621331128062068  0.49923345938572283  0.4741083696482422  1.0000
  C   C4        1.0  0.527819307908867  0.4982357787148741  0.4734290509940735  1.0000
  C   C5        1.0  0.48114829501615636  0.40051699069466273  0.4069052289702142  1.0000
  C   C6        1.0  0.3845027272851972  0.4026136584718079  0.40833385904544506  1.0000
  N   N2        1.0  0.30702276657039246  0.40427763186512755  0.40946798541259954  1.0000
  C   C7        1.0  0.528895948369332  0.3024076927706627  0.3401149385703872  1.0000
  C   C8        1.0  0.4805695893572377  0.19616706960836883  0.2677909465478545  1.0000
  C   C9        1.0  0.6230389335415113  0.30442340975013044  0.34148722763766926  1.0000
  H   H1        1.0  0.6563826616112183  0.5754796379036409  0.5260149669140135  1.0000
  H   H2        1.0  0.4917908403513746  0.5738947497168647  0.524935752528273  1.0000
  H   H3        1.0  0.43780839914099307  0.2394861732350393  0.17920076617879377  1.0000
  H   H4        1.0  0.437835659748118  0.1403644786112732  0.34788938302182393  1.0000
  H   H5        1.0  0.5280218763604394  0.12735341716256277  0.22093835178245655  1.0000
  H   H6        1.0  0.6605605568679495  0.229770931353376  0.29066600403492204  1.0000
  C   C10       1.0  0.07499930582778515  0.023241761036552743  0.4096182141132141  1.0000
  C   C11       1.0  0.1674643419387962  0.020282730901281194  0.4373205464093181  1.0000
  C   C12       1.0  0.21334302491413545  0.9018576942421552  0.45106560356428443  1.0000
  C   C13       1.0  0.16746434121572654  0.7851747615768379  0.4373204786286136  1.0000
  C   C14       1.0  0.07499931539387901  0.7857267036380152  0.4096182966097144  1.0000
  C   C15       1.0  0.029217522634426445  0.9053534640036494  0.39590213518173223  1.0000
  Cl  Cl1       1.0  0.32885388535556953  0.8996646765775751  0.48567231747013606  1.0000
  H   H7        1.0  0.04016934609418962  0.35165948638785705  0.39918242383786007  1.0000
  H   H8        1.0  0.2042399339496903  0.10963111601649603  0.4483383134764254  1.0000
  H   H9        1.0  0.20423989852616975  0.6944299222197639  0.44833820995149537  1.0000
  H   H10       1.0  0.9579056807665294  0.9067072302853877  0.37453721940507734  1.0000
  H   H11       1.0  0.04016934176036677  0.4586315223459005  0.3991826959470108  1.0000
  C   C16       1.0  0.07494808215785721  0.40039385730739935  0.9863912560514753  1.0000
  C   C17       1.0  0.9926486628832184  0.3930172800736956  0.060393810493846845  1.0000
  C   C18       1.0  0.9111635721462171  0.39616115334271546  0.9854949123442305  1.0000
  C   C19       1.0  0.9119540328681631  0.4109017216494953  0.8341466872575425  1.0000
  C   C20       1.0  0.9929070343025717  0.4163422375575341  0.7589409760800727  1.0000
  C   C21       1.0  0.07505055470060658  0.40857455324804715  0.8328452252234276  1.0000
  N   N3        1.0  0.8285987642117582  0.3916829382440281  0.06556065496687902  1.0000
  C   C22       1.0  0.7479256809552329  0.3319721068001549  0.018828313040424538  1.0000
  O   O1        1.0  0.7474548196298734  0.26326683456129474  0.9114777715576339  1.0000
  H   H12       1.0  0.285955235988006  0.4903499513938989  0.08257371082226528  1.0000
  H   H13       1.0  0.9916021470494808  0.3867418814854046  0.17751440734403023  1.0000
  H   H14       1.0  0.8501128915251401  0.41960209346329047  0.7735704663350971  1.0000
  H   H15       1.0  0.9911639466982198  0.424352974737773  0.6419008868437701  1.0000
  H   H16       1.0  0.2178735144173467  0.4636735270266452  0.5476503224059948  1.0000
  H   H17       1.0  0.8282780827418859  0.4262031728546629  0.16897985339788546  1.0000
  H   H18       1.0  0.6867235395551319  0.34291593402167764  0.0792871488396869  1.0000
  Zn  Zn1       1.0  0.9768836755984641  0.40457520888514664  0.4096812249199593  1.0000
  Zn  Zn2       1.0  0.17310639094346023  0.40439259623953805  0.40955457640137505  1.0000
  C   C23       1.0  0.07502918877063866  0.4018562118498646  0.672847282633505  1.0000
  C   C24       1.0  0.07496302053442228  0.40711323074548933  0.14638865876173313  1.0000
  C   C25       1.0  0.0749940246771718  0.6415452873440295  0.40387505655110156  1.0000
  C   C26       1.0  0.07499811768003584  0.16742259625065484  0.41536096172537257  1.0000
  O   O2        1.0  0.14943353183999963  0.40929334936944217  0.20003718625262468  1.0000
  O   O3        1.0  0.14948717807707856  0.39953651103314747  0.6191022169690148  1.0000
  O   O4        1.0  0.14945777897779078  0.5930884861944272  0.4019052420323177  1.0000
  O   O5        1.0  0.14946286396868402  0.21574138251335095  0.41723405317028095  1.0000
  O   O6        1.0  0.0005271356120568581  0.5932264226749905  0.4020017481866911  1.0000
  O   O7        1.0  0.0005565346980147543  0.39967600657803715  0.6191986462777908  1.0000
  O   O8        1.0  0.0005028883107096609  0.4094327829259863  0.20013188278540328  1.0000
  O   O9        1.0  0.0005322204488138467  0.21588080782836339  0.4173288577577392  1.0000
