data_image0
_chemical_formula_structural       NC8NH4C6ClH5C7NH4Zn2C4O8
_chemical_formula_sum              "N3 C25 H13 Cl1 Zn2 O8"
_cell_length_a       11.048855714531884
_cell_length_b       9.276545438789551
_cell_length_c       9.275157849593905
_cell_angle_alpha    86.141431454383
_cell_angle_beta     89.74088388254012
_cell_angle_gamma    89.40961225544244

_space_group_name_H-M_alt    "P 1"
_space_group_IT_number       1

loop_
  _space_group_symop_operation_xyz
  'x, y, z'

loop_
  _atom_site_type_symbol
  _atom_site_label
  _atom_site_symmetry_multiplicity
  _atom_site_fract_x
  _atom_site_fract_y
  _atom_site_fract_z
  _atom_site_occupancy
  N   N1        1.0  0.13219228523618295  0.5627578345766637  0.411288874285783  1.0000
  C   C1        1.0  0.0785120328064244  0.5039970474849851  0.3262829892894308  1.0000
  C   C2        1.0  0.011535640601987751  0.4306803350162769  0.2202196382678543  1.0000
  C   C3        1.0  0.8838188864696604  0.43068014543956135  0.22021973985969567  1.0000
  C   C4        1.0  0.8220735631189229  0.35820330589771876  0.115371677148391  1.0000
  C   C5        1.0  0.88651616092885  0.2862997578435724  0.011352882242913639  1.0000
  C   C6        1.0  0.012922374213378387  0.28629964794790674  0.011352904837960809  1.0000
  C   C7        1.0  0.07533110119130004  0.3582034040572968  0.11537164949527745  1.0000
  C   C8        1.0  0.8147686111307785  0.5039971222845485  0.3262829762034394  1.0000
  N   N2        1.0  0.7594261708943597  0.5627578775212128  0.41128890309683325  1.0000
  H   H1        1.0  0.7240241609729724  0.3572957213760215  0.11405808559524155  1.0000
  H   H2        1.0  0.8384070858046291  0.23052969290466208  0.9306740988989439  1.0000
  H   H3        1.0  0.06260912608724524  0.23052980231107886  0.9306740983546335  1.0000
  H   H4        1.0  0.1734061720924989  0.35729567498339176  0.11405836063417894  1.0000
  C   C9        1.0  0.4494687127700344  0.13932040796043998  0.4110513203562287  1.0000
  C   C10       1.0  0.4504312960262957  0.22169080883259262  0.2780348936631858  1.0000
  C   C11       1.0  0.4403717414544177  0.15535823221228684  0.1479135926978967  1.0000
  C   C12       1.0  0.42910730188116053  0.005775692217451225  0.14880683413551687  1.0000
  C   C13       1.0  0.4300212548858584  0.9218433620409304  0.27938174272074945  1.0000
  C   C14       1.0  0.44216143567973193  0.9861843315497786  0.41153892058281094  1.0000
  Cl  Cl1       1.0  0.44005795293088557  0.2603951042103536  0.9833872555437363  1.0000
  H   H5        1.0  0.510509124392573  0.40446154629630415  0.6376259497859323  1.0000
  H   H6        1.0  0.456113244454726  0.3383838951333562  0.27518164034552733  1.0000
  H   H7        1.0  0.4207953245005571  0.9540845543341602  0.04813722594419077  1.0000
  H   H8        1.0  0.42411428136452917  0.8055573744272124  0.27673172978398264  1.0000
  H   H9        1.0  0.40070552331161413  0.689693100257995  0.6445739755041838  1.0000
  C   C15       1.0  0.44745618517891717  0.5586765040198459  0.9880949971433326  1.0000
  C   C16       1.0  0.5513684756446738  0.6056836693868308  0.05781809797454418  1.0000
  C   C17       1.0  0.6489744303862521  0.6640293357364073  0.9779735294272548  1.0000
  C   C18       1.0  0.6438038276833171  0.6762954122126843  0.827321644394424  1.0000
  C   C19       1.0  0.5423899245476734  0.6281206062474607  0.7562563295250917  1.0000
  C   C20       1.0  0.4441739679933415  0.5668281575503085  0.8344952609468181  1.0000
  C   C21       1.0  0.7540556261426428  0.7130445965691146  0.051005378616828086  1.0000
  N   N3        1.0  0.8385140069579657  0.7524396497140036  0.1097106622843622  1.0000
  H   H10       1.0  0.15339653280877277  0.5100585573775147  0.09590460268867869  1.0000
  H   H11       1.0  0.718775584870244  0.7219062418207991  0.7645251115165994  1.0000
  H   H12       1.0  0.5420567645448977  0.6357015489632944  0.6391962545320556  1.0000
  H   H13       1.0  0.24750583186016953  0.5280401352989368  0.5570664189121558  1.0000
  Zn  Zn1       1.0  0.31319845112356887  0.5627540587345301  0.41129719964193745  1.0000
  Zn  Zn2       1.0  0.5784200884476041  0.5627499401445593  0.41129236517559714  1.0000
  C   C22       1.0  0.4448412144443626  0.5595429667050346  0.674504155227075  1.0000
  C   C23       1.0  0.4467802050915456  0.5659628528660589  0.14808555203304397  1.0000
  C   C24       1.0  0.4435586833766514  0.8260536810397903  0.4057039224724288  1.0000
  C   C25       1.0  0.44806266030816083  0.2994504068541004  0.4168858606250947  1.0000
  O   O1        1.0  0.5472036234299377  0.5684003643911958  0.20177800550909386  1.0000
  O   O2        1.0  0.5457148930189386  0.5571012374748784  0.6208076170245549  1.0000
  O   O3        1.0  0.5446778703376863  0.7723120242413366  0.4037495281569064  1.0000
  O   O4        1.0  0.5482405559390336  0.3531895869004813  0.4188359863289306  1.0000
  O   O5        1.0  0.3433778931250272  0.7723144119815102  0.4037535784826743  1.0000
  O   O6        1.0  0.3444149011502627  0.557105356895157  0.6208115915069887  1.0000
  O   O7        1.0  0.3459036387944281  0.5684044168760237  0.20178024729659394  1.0000
  O   O8        1.0  0.34694057096856806  0.35319363011246785  0.418838336158313  1.0000
