data_image0
_chemical_formula_structural       NC12NC2H8C6ClH5C9H8Zn2C4O8
_chemical_formula_sum              "N2 C33 H21 Cl1 Zn2 O8"
_cell_length_a       19.240039667572717
_cell_length_b       10.30297070629231
_cell_length_c       9.275155815604963
_cell_angle_alpha    86.05280978821669
_cell_angle_beta     90.35749810205114
_cell_angle_gamma    89.99831201696266

_space_group_name_H-M_alt    "P 1"
_space_group_IT_number       1

loop_
  _space_group_symop_operation_xyz
  'x, y, z'

loop_
  _atom_site_type_symbol
  _atom_site_label
  _atom_site_symmetry_multiplicity
  _atom_site_fract_x
  _atom_site_fract_y
  _atom_site_fract_z
  _atom_site_occupancy
  N   N1        1.0  0.649673128335783  0.40850714669306104  0.41026330345442963  1.0000
  C   C1        1.0  0.5895247592436877  0.4085072299432386  0.4102632125270309  1.0000
  C   C2        1.0  0.514706721642375  0.4085073460113269  0.41026306015571223  1.0000
  C   C3        1.0  0.4785791992935466  0.3449514638427824  0.5250235927413032  1.0000
  C   C4        1.0  0.4059087418002205  0.3448413617921595  0.5251196297110703  1.0000
  C   C5        1.0  0.3683744859436079  0.4085074365899908  0.4102628074858887  1.0000
  C   C6        1.0  0.4052159091206504  0.47217369998664555  0.2954062011638863  1.0000
  C   C7        1.0  0.4778868886036293  0.4720633635645815  0.29550237407051894  1.0000
  C   C8        1.0  0.291169395186719  0.4085073571338007  0.4102627015932818  1.0000
  C   C9        1.0  0.2541231188121769  0.2956425750244078  0.4567243214865577  1.0000
  C   C10       1.0  0.18145212391792137  0.29574865621386803  0.4566229763308183  1.0000
  C   C11       1.0  0.1448371084688563  0.4085072285256419  0.41026276918365934  1.0000
  C   C12       1.0  0.07001907214569719  0.40850711695626507  0.4102630451342253  1.0000
  N   N2        1.0  0.0098707559899277  0.40850707793706614  0.41026327642945204  1.0000
  C   C13       1.0  0.18116960369867238  0.5212658761862596  0.36390250334350455  1.0000
  C   C14       1.0  0.2538399928608848  0.5213721360417456  0.3638009777537656  1.0000
  H   H1        1.0  0.5065643551588722  0.2957509389711712  0.6146253757278339  1.0000
  H   H2        1.0  0.3790894359596632  0.2964482548054621  0.6159594028275879  1.0000
  H   H3        1.0  0.3778486840029274  0.5205668335801166  0.20456637161865365  1.0000
  H   H4        1.0  0.5053315051235422  0.521263790576042  0.2059008971482954  1.0000
  H   H5        1.0  0.2813218229284563  0.20678349946649477  0.4913090531188277  1.0000
  H   H6        1.0  0.15384614480181108  0.2077973518628211  0.49235410242607647  1.0000
  H   H7        1.0  0.1533457594159449  0.6092171561333322  0.3281713933947268  1.0000
  H   H8        1.0  0.280827767411133  0.6102312903662264  0.3292161964391131  1.0000
  C   C15       1.0  0.8297752865033402  0.02725972462784987  0.4102694872119878  1.0000
  C   C16       1.0  0.9016271167478622  0.024331937099927543  0.4380294820508645  1.0000
  C   C17       1.0  0.9372780768564606  0.9059224023812023  0.45180314981950276  1.0000
  C   C18       1.0  0.9016271159890399  0.7892239679043567  0.43802941426903463  1.0000
  C   C19       1.0  0.829775294168987  0.7897446670803682  0.4102695697152495  1.0000
  C   C20       1.0  0.7941996241803787  0.9093559584963947  0.3965248580944218  1.0000
  Cl  Cl1       1.0  0.02703813166341895  0.903768414366846  0.4864818979787249  1.0000
  H   H9        1.0  0.8027099580620967  0.35566568297805423  0.39981197645857014  1.0000
  H   H10       1.0  0.9302043354685413  0.11369274839581278  0.4490701829113515  1.0000
  H   H11       1.0  0.9302043076711418  0.6984915547646686  0.4490700793634021  1.0000
  H   H12       1.0  0.738785312115606  0.9106856296008551  0.37511547121454214  1.0000
  H   H13       1.0  0.8027099554913834  0.4626377184121448  0.39981224856775033  1.0000
  C   C21       1.0  0.8285018378259041  0.40522057117809346  0.9870382678284749  1.0000
  C   C22       1.0  0.7741300787616041  0.46848058727560904  0.054853150483211266  1.0000
  C   C23       1.0  0.7244136675767392  0.5403689444500812  0.9735683923430133  1.0000
  C   C24       1.0  0.7281470245026215  0.550502639044163  0.8229865945523684  1.0000
  C   C25       1.0  0.7811201387408969  0.48654508648853084  0.753463347336511  1.0000
  C   C26       1.0  0.8310487431661927  0.41178374449653665  0.8335006931398792  1.0000
  C   C27       1.0  0.6770256841983633  0.62542412300574  0.7393892183777719  1.0000
  C   C28       1.0  0.634220771085132  0.6881606343021113  0.6693611824809378  1.0000
  C   C29       1.0  0.5822847061244646  0.7642807832264398  0.5843825247363386  1.0000
  H   H14       1.0  0.9898254776451051  0.30047405361721663  0.099996083616541  1.0000
  H   H15       1.0  0.7710075152972008  0.46488175754092853  0.17164468902133567  1.0000
  H   H16       1.0  0.6833986311687738  0.5891657878554268  0.028381431467313197  1.0000
  H   H17       1.0  0.7824043215934534  0.49264996105167347  0.6363170514280241  1.0000
  H   H18       1.0  0.9386901831164075  0.3365998944195381  0.5599182841337246  1.0000
  H   H19       1.0  0.5964083107645591  0.7680109543316302  0.4683835344518958  1.0000
  H   H20       1.0  0.530520060128037  0.7180495357197572  0.5994088132908715  1.0000
  H   H21       1.0  0.5805257315096329  0.8645283762340477  0.6208872555187853  1.0000
  Zn  Zn1       1.0  0.7536184171563687  0.4085037251902291  0.41027160607509683  1.0000
  Zn  Zn2       1.0  0.9059255213317525  0.4085000005353988  0.41026673613424736  1.0000
  C   C30       1.0  0.8305657833645617  0.4053711655547707  0.6735012048658469  1.0000
  C   C31       1.0  0.8289798187380829  0.4116341993246657  0.1470372787486438  1.0000
  C   C32       1.0  0.8297544462243547  0.6455742214397224  0.40452626897786725  1.0000
  C   C33       1.0  0.8297911041376753  0.17142958423117197  0.41601229147707797  1.0000
  O   O1        1.0  0.8869399857778676  0.41377959409598586  0.20073256030506847  1.0000
  O   O2        1.0  0.8882031829990265  0.4032219612292984  0.619801812254382  1.0000
  O   O3        1.0  0.887547243338409  0.5971889782774713  0.40260264850750926  1.0000
  O   O4        1.0  0.8875958731412364  0.21981258549845695  0.4179316159902573  1.0000
  O   O5        1.0  0.7719480133719224  0.5971911402297969  0.40260672621316784  1.0000
  O   O6        1.0  0.7726039527981919  0.40322568239279205  0.6198058131136661  1.0000
  O   O7        1.0  0.771340750409458  0.41378325658237386  0.20073482837094558  1.0000
  O   O8        1.0  0.7719966380951131  0.2198162395368266  0.41793399211189913  1.0000
