data_image0
_chemical_formula_structural       NC12NC2H8C7OC6H10C7OC6H10Zn2C4O8
_chemical_formula_sum              "N2 C44 H28 O10 Zn2"
_cell_length_a       17.80743265337812
_cell_length_b       10.299379429549807
_cell_length_c       10.299382801718286
_cell_angle_alpha    85.54943384292815
_cell_angle_beta     91.51478421497153
_cell_angle_gamma    89.43379168207073

_space_group_name_H-M_alt    "P 1"
_space_group_IT_number       1

loop_
  _space_group_symop_operation_xyz
  'x, y, z'

loop_
  _atom_site_type_symbol
  _atom_site_label
  _atom_site_symmetry_multiplicity
  _atom_site_fract_x
  _atom_site_fract_y
  _atom_site_fract_z
  _atom_site_occupancy
  N   N1        1.0  0.7076563485610323  0.40645685259090686  0.6008475781522526  1.0000
  C   C1        1.0  0.6568488975670675  0.4360020873665182  0.5321395672519753  1.0000
  C   C2        1.0  0.5936394121563427  0.472754215627204  0.4466754502826731  1.0000
  C   C3        1.0  0.6053888868235602  0.5267498693760448  0.32003877536978  1.0000
  C   C4        1.0  0.5440863344320045  0.5619988517458387  0.23697113738483291  1.0000
  C   C5        1.0  0.47088012348202046  0.5435155132937831  0.27988019060097935  1.0000
  C   C6        1.0  0.45815378951976654  0.4894011541275433  0.406985040975657  1.0000
  C   C7        1.0  0.5203136610591949  0.45415542216029897  0.4900361664534172  1.0000
  C   C8        1.0  0.380378855051064  0.46980426087820687  0.45275473096448504  1.0000
  C   C9        1.0  0.3615685551189144  0.49702084798395496  0.5797863129350558  1.0000
  C   C10       1.0  0.28833238962090035  0.4785790945145114  0.6227359129720484  1.0000
  C   C11       1.0  0.23296340438387608  0.4326666551828422  0.5394919736002775  1.0000
  C   C12       1.0  0.1575903857738247  0.4136723575844365  0.5838426715628753  1.0000
  N   N2        1.0  0.09699581640529412  0.3984022197567287  0.6194975817037289  1.0000
  C   C13       1.0  0.2510821141059607  0.4052812675112769  0.4130034106956446  1.0000
  C   C14       1.0  0.3242654717653785  0.4237377496972947  0.36979792396490585  1.0000
  H   H1        1.0  0.6618606042484427  0.5415667818391805  0.2855971361443428  1.0000
  H   H2        1.0  0.5533015633392258  0.6040764526681836  0.13917887881531854  1.0000
  H   H3        1.0  0.42425224436077424  0.5731380621341888  0.21428002810183686  1.0000
  H   H4        1.0  0.5117968758938877  0.41069239960863024  0.5877044889763368  1.0000
  H   H5        1.0  0.4032317740569114  0.5342171883646956  0.6453443566018371  1.0000
  H   H6        1.0  0.2748702226571201  0.5004480936132449  0.7207346176318901  1.0000
  H   H7        1.0  0.20870190507806594  0.36935238006306575  0.34785784871173187  1.0000
  H   H8        1.0  0.3371992296569998  0.40033317754663145  0.27210310974661844  1.0000
  C   C15       1.0  0.9023378457271902  0.021037428834215225  0.6103271893390785  1.0000
  C   C16       1.0  0.9478558844778165  0.010228895653528119  0.7242527880861047  1.0000
  C   C17       1.0  0.9701095083917467  0.8875528622006089  0.7825309941911557  1.0000
  C   C18       1.0  0.9477644963608107  0.7750086600294788  0.7239721290661525  1.0000
  C   C19       1.0  0.9023215129391233  0.7838115365035359  0.6100295005105203  1.0000
  C   C20       1.0  0.8797085728721178  0.9072980307900574  0.5540572679676166  1.0000
  C   C21       1.0  0.01882576786207845  0.8760430291899977  0.9020616357611754  1.0000
  O   O1        1.0  0.06648371605920178  0.7842730585543463  0.916700677309226  1.0000
  C   C22       1.0  0.013472950090088753  0.9685395485075333  0.00498960756851441  1.0000
  C   C23       1.0  0.07771874150796698  0.9966891264630758  0.07962946590171416  1.0000
  C   C24       1.0  0.0730462650868755  0.08256455321789867  0.17789755268190277  1.0000
  C   C25       1.0  0.004223197945115944  0.14028757063905092  0.20335894285509862  1.0000
  C   C26       1.0  0.9398617889403916  0.11183195331162943  0.13095763683010708  1.0000
  C   C27       1.0  0.9442325968813362  0.026042403225663417  0.03258743305772516  1.0000
  H   H9        1.0  0.81739078890503  0.24882428458914352  0.39422747653140094  1.0000
  H   H10       1.0  0.9667450969305456  0.09743423457694389  0.7669944517298388  1.0000
  H   H11       1.0  0.9653425703950671  0.6803520530939567  0.7682511809948207  1.0000
  H   H12       1.0  0.8446179490591195  0.9148264950514163  0.46622862901696016  1.0000
  H   H13       1.0  0.8853873588826587  0.45977474696170423  0.5656509071181333  1.0000
  H   H14       1.0  0.13161683570298544  0.9531248440347688  0.06116401702968311  1.0000
  H   H15       1.0  0.12283486879983997  0.10431523166433099  0.23437835607858507  1.0000
  H   H16       1.0  0.0007088590487374073  0.20664555264415685  0.27953130567635864  1.0000
  H   H17       1.0  0.8864467118792173  0.15582537726543522  0.15144604076479862  1.0000
  H   H18       1.0  0.8934058691263209  0.003628924764349288  0.9792166353158356  1.0000
  C   C28       1.0  0.902404619700819  0.40234969949610266  0.22881217951721777  1.0000
  C   C29       1.0  0.9813292872409846  0.4015804311056279  0.23128880397832297  1.0000
  C   C30       1.0  0.0211366832975195  0.399704267930562  0.11548040834516948  1.0000
  C   C31       1.0  0.9811462181406823  0.40161225681660334  0.9960344550800602  1.0000
  C   C32       1.0  0.9022547045893899  0.40249926512003203  0.9915444754972218  1.0000
  C   C33       1.0  0.8633415391484738  0.4025180989471153  0.10852121546084838  1.0000
  C   C34       1.0  0.10447084359936754  0.40027605576925346  0.1178428601809831  1.0000
  O   O2        1.0  0.13757041759708843  0.46030376062389333  0.024877896599304172  1.0000
  C   C35       1.0  0.15025537887941365  0.3327417375923167  0.2255680921688896  1.0000
  C   C36       1.0  0.22086671011190684  0.381743713659844  0.26003226290862136  1.0000
  C   C37       1.0  0.2648189271972876  0.31789683328297813  0.36041654873299467  1.0000
  C   C38       1.0  0.23907984721027864  0.204118986128589  0.426592036127454  1.0000
  C   C39       1.0  0.16946474089512265  0.15364935176554972  0.39215313039742083  1.0000
  C   C40       1.0  0.1252985204279431  0.21712192466706504  0.2918608015920656  1.0000
  H   H19       1.0  0.7534619144392731  0.40581323814255404  0.4313021768212076  1.0000
  H   H20       1.0  0.01193464443070602  0.4038979197479968  0.3233525446875418  1.0000
  H   H21       1.0  0.01175934692956071  0.40115029572665145  0.9065493228249855  1.0000
  H   H22       1.0  0.8024965670499946  0.4031119456715875  0.10580768899159156  1.0000
  H   H23       1.0  0.8719480410058277  0.40394505817357373  0.6622773813977187  1.0000
  H   H24       1.0  0.2417219311294103  0.46999055046645755  0.2100612682386962  1.0000
  H   H25       1.0  0.3188954841829148  0.3566642082625493  0.3868640688132894  1.0000
  H   H26       1.0  0.2732083950841233  0.15478279894465974  0.5041891691763136  1.0000
  H   H27       1.0  0.14983236970649494  0.06492128111753748  0.44281164094591313  1.0000
  H   H28       1.0  0.07212411392471152  0.17505352304398464  0.2652715522695903  1.0000
  Zn  Zn1       1.0  0.8200113107271761  0.40412899352229553  0.6062370545466733  1.0000
  Zn  Zn2       1.0  0.9846408498905018  0.40071948680085745  0.6141187024185559  1.0000
  C   C41       1.0  0.9022814992975994  0.3972970295554368  0.8473737132323638  1.0000
  C   C42       1.0  0.9023724590093795  0.40755305227995103  0.37298225662622175  1.0000
  C   C43       1.0  0.9023217461774189  0.6396300512947166  0.6049104572550483  1.0000
  C   C44       1.0  0.9023321559728207  0.16521847132047737  0.6154455797611735  1.0000
  O   O3        1.0  0.9648377178473297  0.4079997888904461  0.42435809801699537  1.0000
  O   O4        1.0  0.9647662515108278  0.3942615763787698  0.8019794867464565  1.0000
  O   O5        1.0  0.9647979089028433  0.5899485738596241  0.6061886512286985  1.0000
  O   O6        1.0  0.9648060042973406  0.21231280184471735  0.6201488334676886  1.0000
  O   O7        1.0  0.8398461001403569  0.5925356796433447  0.6002069208010892  1.0000
  O   O8        1.0  0.8398144427250995  0.39685024254759393  0.7959976864647597  1.0000
  O   O9        1.0  0.8398859094193675  0.4105884094933666  0.4183747363659061  1.0000
  O   O10       1.0  0.8398541958473713  0.2149014131774227  0.6141655691872132  1.0000
