data_image0
_chemical_formula_structural       NC11NC3H8C6N2CH8C10OC3H12Zn2C4O8
_chemical_formula_sum              "N4 C38 H28 O9 Zn2"
_cell_length_a       17.807433833752565
_cell_length_b       10.299967256147013
_cell_length_c       10.299151058433393
_cell_angle_alpha    85.57124003100529
_cell_angle_beta     88.50014189410291
_cell_angle_gamma    90.68422937799005

_space_group_name_H-M_alt    "P 1"
_space_group_IT_number       1

loop_
  _space_group_symop_operation_xyz
  'x, y, z'

loop_
  _atom_site_type_symbol
  _atom_site_label
  _atom_site_symmetry_multiplicity
  _atom_site_fract_x
  _atom_site_fract_y
  _atom_site_fract_z
  _atom_site_occupancy
  N   N1        1.0  0.7077641849723946  0.4381041024734358  0.5345604332858445  1.0000
  C   C1        1.0  0.6569286705215526  0.40339351117621686  0.6011258626796796  1.0000
  C   C2        1.0  0.5936841669711683  0.3602163960556244  0.6839247622263296  1.0000
  C   C3        1.0  0.6053817147997769  0.2966959163594538  0.8066488410949244  1.0000
  C   C4        1.0  0.5440451534391137  0.2551980101505471  0.8871636868941419  1.0000
  C   C5        1.0  0.4708565421566946  0.2769074698660181  0.8455952783061722  1.0000
  C   C6        1.0  0.4581823121418824  0.3405823916387352  0.7224109844219802  1.0000
  C   C7        1.0  0.3804261521936291  0.36362129973582213  0.6780618013205439  1.0000
  C   C8        1.0  0.361674038621756  0.346719812235004  0.5484787444983097  1.0000
  C   C9        1.0  0.28845549560805417  0.3683905348626922  0.5068662647559803  1.0000
  C   C10       1.0  0.2330461904039982  0.40728107633086164  0.5940165341071129  1.0000
  C   C11       1.0  0.15769125429137204  0.4296099351021936  0.5510426992273949  1.0000
  N   N2        1.0  0.0971112583452315  0.4475606786883071  0.5164948636126043  1.0000
  C   C12       1.0  0.25110686870828697  0.42439301365097  0.723068434931446  1.0000
  C   C13       1.0  0.3242725881605049  0.4026874204710984  0.7649363519548775  1.0000
  C   C14       1.0  0.5203761814195608  0.3820757367966614  0.6419125550530913  1.0000
  H   H1        1.0  0.6618394611396201  0.2792895408481033  0.8400159219237265  1.0000
  H   H2        1.0  0.5532204096346651  0.20576873776954366  0.9819042025336175  1.0000
  H   H3        1.0  0.4242019879829151  0.24236688570423118  0.9090373364068096  1.0000
  H   H4        1.0  0.4033691370775242  0.31506308114353443  0.47976168749674325  1.0000
  H   H5        1.0  0.2750383063573651  0.3544872557834067  0.4068296967390977  1.0000
  H   H6        1.0  0.208695114879774  0.4548266331711548  0.7912707577589153  1.0000
  H   H7        1.0  0.3371613851342442  0.41813602499990754  0.8647901007226665  1.0000
  H   H8        1.0  0.5118993422081619  0.4328673785252759  0.547406308462983  1.0000
  C   C15       1.0  0.9024424291385386  0.061472330075010184  0.5255531727829568  1.0000
  C   C16       1.0  0.8947905241925163  0.0707576357210844  0.38971670695965255  1.0000
  C   C17       1.0  0.8909458222331398  0.958754536660833  0.3214648172976682  1.0000
  C   C18       1.0  0.8947860785570542  0.8355478033413968  0.3896364333816176  1.0000
  C   C19       1.0  0.902440177148881  0.8241826608402337  0.5255129320266219  1.0000
  C   C20       1.0  0.9062208562583425  0.9377201956840121  0.5926268567392032  1.0000
  N   N3        1.0  0.8831433842068148  0.9729867366255289  0.18295543092211575  1.0000
  N   N4        1.0  0.8792926047011465  0.8755545055891737  0.11459700507580273  1.0000
  C   C21       1.0  0.8713967730994177  0.8943394097451002  0.9744281708513922  1.0000
  H   H9        1.0  0.9168920241401465  0.251245492831637  0.7820509248044009  1.0000
  H   H10       1.0  0.8917713344333563  0.16520528957197245  0.3361205513426764  1.0000
  H   H11       1.0  0.8918160963945393  0.7487456529595455  0.3369135578026343  1.0000
  H   H12       1.0  0.9121180074376849  0.9297540389068176  0.6973135579811915  1.0000
  H   H13       1.0  0.9168952407551274  0.5954962770212391  0.7821206451591876  1.0000
  H   H14       1.0  0.8187679883404015  0.9472330267229563  0.951872672280157  1.0000
  H   H15       1.0  0.8690761545420855  0.7980350513383319  0.9332305214793015  1.0000
  H   H16       1.0  0.9202497386640149  0.9510206849967903  0.929957962284584  1.0000
  C   C22       1.0  0.9025342941653681  0.44273923489479966  0.144151716804088  1.0000
  C   C23       1.0  0.8257865187068791  0.40924905671613776  0.1494306674360497  1.0000
  C   C24       1.0  0.7867771031125094  0.3923617632440326  0.034961551040094685  1.0000
  C   C25       1.0  0.8255517767398001  0.40941196196309004  0.9141451787079168  1.0000
  C   C26       1.0  0.9023483491682796  0.44291570212110387  0.9069144093242292  1.0000
  C   C27       1.0  0.9403666322768884  0.4593759066052921  0.022406875477291706  1.0000
  C   C28       1.0  0.7055838650731588  0.3569357254990766  0.04159057908375696  1.0000
  C   C29       1.0  0.6770697847983983  0.2637096971669981  0.13780418121083104  1.0000
  C   C30       1.0  0.6006694908905543  0.2304545044906574  0.14387094889282315  1.0000
  C   C31       1.0  0.5513099084488879  0.28934023420220667  0.05450148648221709  1.0000
  O   O1        1.0  0.47515111677338573  0.2525780320447091  0.06478942337108706  1.0000
  C   C32       1.0  0.41885663965169895  0.30437971135732855  0.980646853338631  1.0000
  C   C33       1.0  0.579522932563765  0.3827570646453311  0.9580272280617241  1.0000
  C   C34       1.0  0.6559388448789231  0.4160692714987444  0.9517543708760267  1.0000
  H   H17       1.0  0.9320644577098306  0.45555045878840345  0.4696019091900956  1.0000
  H   H18       1.0  0.7959239419997844  0.3979607840539972  0.24267171297121815  1.0000
  H   H19       1.0  0.7960018947462542  0.3947808077734356  0.8257209223026325  1.0000
  H   H20       1.0  0.9995646429424392  0.48520397416906147  0.017619721819936093  1.0000
  H   H21       1.0  0.04740778272223344  0.5053477589025916  0.686031467824125  1.0000
  H   H22       1.0  0.7140185093081873  0.21523709426187376  0.2073517726213072  1.0000
  H   H23       1.0  0.5796971880616484  0.15817416306733145  0.21834844248743912  1.0000
  H   H24       1.0  0.3639250575916512  0.2581605885843725  0.010855193441103191  1.0000
  H   H25       1.0  0.4322469603308958  0.28302718897713786  0.8786186875009228  1.0000
  H   H26       1.0  0.4146498553109293  0.4111340256452621  0.9874735153059748  1.0000
  H   H27       1.0  0.5428875353438274  0.4304234448899642  0.8876497259352347  1.0000
  H   H28       1.0  0.6760513831413179  0.4894200121249881  0.8775871874664336  1.0000
  Zn  Zn1       1.0  0.8201213379722292  0.44082959326874077  0.5293545850620849  1.0000
  Zn  Zn2       1.0  0.9847540880349306  0.44482457099492523  0.5217112987549737  1.0000
  C   C35       1.0  0.9023818152185071  0.43770876728933517  0.7627362949514269  1.0000
  C   C36       1.0  0.9024954085372752  0.4479470792107523  0.28832963278543144  1.0000
  C   C37       1.0  0.9024380080768969  0.6800128594239874  0.5203454115822956  1.0000
  C   C38       1.0  0.9024391594889329  0.20564142546222342  0.5307205880858041  1.0000
  O   O2        1.0  0.964959628839902  0.45120528695341594  0.33381647144867554  1.0000
  O   O3        1.0  0.964870042964966  0.4374816754168793  0.7114480050280956  1.0000
  O   O4        1.0  0.9649145768560324  0.6331452740441728  0.5157156907825104  1.0000
  O   O5        1.0  0.9649150387945447  0.2555416962303836  0.5295486909240623  1.0000
  O   O6        1.0  0.8399603310315391  0.6301124666714051  0.5215171954944433  1.0000
  O   O7        1.0  0.8399157971493482  0.43445042829611036  0.7172494404102341  1.0000
  O   O8        1.0  0.8400053834550811  0.4481739942176342  0.33961634537925356  1.0000
  O   O9        1.0  0.8399607933829387  0.252510394228463  0.535348662226286  1.0000
