data_image0
_chemical_formula_structural       NC5NC4H6C6NH7C6SCH6Zn2C4O8
_chemical_formula_sum              "N3 C26 H19 S1 Zn2 O8"
_cell_length_a       13.854160002989762
_cell_length_b       9.274771166103582
_cell_length_c       9.275274088470228
_cell_angle_alpha    86.00109441054587
_cell_angle_beta     89.72578587479208
_cell_angle_gamma    90.59704847255895

_space_group_name_H-M_alt    "P 1"
_space_group_IT_number       1

loop_
  _space_group_symop_operation_xyz
  'x, y, z'

loop_
  _atom_site_type_symbol
  _atom_site_label
  _atom_site_symmetry_multiplicity
  _atom_site_fract_x
  _atom_site_fract_y
  _atom_site_fract_z
  _atom_site_occupancy
  N   N1        1.0  0.9249184650743545  0.5635347928593595  0.4075159548382712  1.0000
  C   C1        1.0  0.8529470600713701  0.5881905881417069  0.3484424241431894  1.0000
  C   C2        1.0  0.7634136258834416  0.6188630599557561  0.2749526905660342  1.0000
  C   C3        1.0  0.6754115427172419  0.5900555201230271  0.34670679824557893  1.0000
  C   C4        1.0  0.5882712136849433  0.6188630740677192  0.27495266737470314  1.0000
  C   C5        1.0  0.4978389173908487  0.5881904416663961  0.34844251600460274  1.0000
  N   N2        1.0  0.4251448940334019  0.5635347293505354  0.40751595486747627  1.0000
  C   C6        1.0  0.5891697770105023  0.6770848435118844  0.13146231129621455  1.0000
  C   C7        1.0  0.6771544662137685  0.7080419007458145  0.059600874790298956  1.0000
  C   C8        1.0  0.6780581056911308  0.7663957917860995  0.9046247484782085  1.0000
  C   C9        1.0  0.7642468663201107  0.677084841329376  0.13146222104922933  1.0000
  H   H1        1.0  0.6747405991681164  0.5448816896543105  0.45776590201606826  1.0000
  H   H2        1.0  0.5216235108735492  0.6983468637350123  0.07579075570064142  1.0000
  H   H3        1.0  0.7434629555139902  0.8343425088675909  0.8807213624675674  1.0000
  H   H4        1.0  0.6137544776642573  0.8343425113625823  0.880721427528198  1.0000
  H   H5        1.0  0.6776504757789892  0.6751764365965409  0.83325857083909  1.0000
  H   H6        1.0  0.8324464710089928  0.6983469754272966  0.07579067009636709  1.0000
  C   C10       1.0  0.17207048164752026  0.13994566668293548  0.4083014689394948  1.0000
  C   C11       1.0  0.1502636087340689  0.22203039942619604  0.2794294506934021  1.0000
  C   C12       1.0  0.13747127472062792  0.15574922789402534  0.14973979599128207  1.0000
  C   C13       1.0  0.14653936250371613  0.005996928655361167  0.14798280526027385  1.0000
  C   C14       1.0  0.1665669164213337  0.9225759535900852  0.27508449866311646  1.0000
  C   C15       1.0  0.1780020179335644  0.9871129022535302  0.4067429896986754  1.0000
  N   N3        1.0  0.11626187502522178  0.2409200058254755  0.01945139964865694  1.0000
  H   H7        1.0  0.27970956911535483  0.2226015251196343  0.7236909490382486  1.0000
  H   H8        1.0  0.14539854263739427  0.3386178504075461  0.2788758820031345  1.0000
  H   H9        1.0  0.13715379053523  0.9535619709831327  0.04819970042100796  1.0000
  H   H10       1.0  0.17083362877955288  0.8063727371986417  0.27095724844591684  1.0000
  H   H11       1.0  0.2465823767341335  0.6920846202007215  0.6213195050529201  1.0000
  H   H12       1.0  0.10961171517915819  0.35299346340300364  0.01940459243686399  1.0000
  H   H13       1.0  0.10695973765577646  0.19252476573617305  0.9220382622634826  1.0000
  C   C16       1.0  0.17636354316421543  0.5595098329465282  0.9843326947124886  1.0000
  C   C17       1.0  0.2589169788845891  0.6102832379806203  0.053587638019523265  1.0000
  C   C18       1.0  0.336189857652766  0.6725486984999582  0.9734090302904254  1.0000
  C   C19       1.0  0.33219215909470856  0.6841790944842105  0.8228275079351017  1.0000
  C   C20       1.0  0.25169367342086857  0.6323138129534474  0.7520716614382237  1.0000
  C   C21       1.0  0.17370894637969525  0.5675487250759215  0.830711729546652  1.0000
  S   S1        1.0  0.44031401131741377  0.737949249584096  0.06397707478213399  1.0000
  C   C22       1.0  0.39196546138931654  0.9184984528814157  0.07537708532971243  1.0000
  H   H14       1.0  0.942212077707389  0.5001581555099173  0.09314657674202187  1.0000
  H   H15       1.0  0.3918409922408533  0.7325095600573596  0.7602407271210665  1.0000
  H   H16       1.0  0.01717370483312064  0.5217039048401877  0.5538812568526104  1.0000
  H   H17       1.0  0.3785206449997358  0.9689074227078085  0.9653222571817537  1.0000
  H   H18       1.0  0.3236885400090713  0.9130799720184996  0.1387526159212784  1.0000
  H   H19       1.0  0.4451671726882667  0.9858018355733912  0.1302525933468106  1.0000
  Zn  Zn1       1.0  0.06927295937056899  0.5635309917628499  0.40752429296446824  1.0000
  Zn  Zn2       1.0  0.2807902811455958  0.5635268390044621  0.4075194738234038  1.0000
  C   C23       1.0  0.17416832943928728  0.5602827388979021  0.6707385431504806  1.0000
  C   C24       1.0  0.17589723313891326  0.5667769131938181  0.1443053616808332  1.0000
  C   C25       1.0  0.17689386280746588  0.8269256869711048  0.4012948738404618  1.0000
  C   C26       1.0  0.1731716152196432  0.3001322328126957  0.41374911101200174  1.0000
  O   O1        1.0  0.25601041245557155  0.5692079427812993  0.19799183282186772  1.0000
  O   O2        1.0  0.25459189685428996  0.5578474653380565  0.6170480015531019  1.0000
  O   O3        1.0  0.2567917127441215  0.7731650323210578  0.39947032949202127  1.0000
  O   O4        1.0  0.25381052480035216  0.3538903850921513  0.41556939681291527  1.0000
  O   O5        1.0  0.09625264353536653  0.7731674456780765  0.3994743699690182  1.0000
  O   O6        1.0  0.09405284001618018  0.5578516110059104  0.6170519620030106  1.0000
  O   O7        1.0  0.09547136076394902  0.5692120217266714  0.19799406074163484  1.0000
  O   O8        1.0  0.0932714726936712  0.3538944547465854  0.4155717327967774  1.0000
