data_image0
_chemical_formula_structural       NC6NCNCH5C9H10C9H8Zn2C4O8
_chemical_formula_sum              "N3 C30 H23 Zn2 O8"
_cell_length_a       14.933214217465613
_cell_length_b       10.297183801781406
_cell_length_c       9.275155815604961
_cell_angle_alpha    86.02609203372302
_cell_angle_beta     90.32327604629522
_cell_angle_gamma    90.03175022610812

_space_group_name_H-M_alt    "P 1"
_space_group_IT_number       1

loop_
  _space_group_symop_operation_xyz
  'x, y, z'

loop_
  _atom_site_type_symbol
  _atom_site_label
  _atom_site_symmetry_multiplicity
  _atom_site_fract_x
  _atom_site_fract_y
  _atom_site_fract_z
  _atom_site_occupancy
  N   N1        1.0  0.8370250956595934  0.4101211597165652  0.4086670957340639  1.0000
  C   C1        1.0  0.7595309681414999  0.41101131281263004  0.4076762954544927  1.0000
  C   C2        1.0  0.6631277051124425  0.41212110532455565  0.4064408900182972  1.0000
  C   C3        1.0  0.6156749847093477  0.3265937581668332  0.501658027988181  1.0000
  C   C4        1.0  0.5221373572122879  0.32756088837682396  0.5005813568761299  1.0000
  C   C5        1.0  0.4751503091342116  0.41400636290769066  0.40434210956711025  1.0000
  C   C6        1.0  0.3785829660380306  0.4121230320476072  0.40643881853190056  1.0000
  N   N2        1.0  0.3011041504794688  0.410551915132604  0.4081875638971773  1.0000
  C   C7        1.0  0.5226971027494316  0.5006136882337848  0.30792276679046515  1.0000
  N   N3        1.0  0.4769949685260063  0.5904637467104397  0.20789345117098024  1.0000
  C   C8        1.0  0.6167188385699105  0.49878369183025656  0.3099602092660976  1.0000
  H   H1        1.0  0.6509656101117709  0.2591611965149918  0.5767302947833195  1.0000
  H   H2        1.0  0.4863445111960753  0.26069557894701956  0.5750219759791366  1.0000
  H   H3        1.0  0.5130747664430607  0.6539244904657415  0.13724290361758862  1.0000
  H   H4        1.0  0.4072327172629005  0.5952445365549197  0.20257109542073362  1.0000
  H   H5        1.0  0.6536390440130622  0.5649762249706387  0.2362684227621435  1.0000
  C   C9        1.0  0.06907282966771927  0.028862552067172146  0.4086315517859944  1.0000
  C   C10       1.0  0.06587440177894388  0.03754292692284955  0.25697362521266287  1.0000
  C   C11       1.0  0.0642355465108253  0.9253736492178549  0.17927483469609617  1.0000
  C   C12       1.0  0.06586163248690635  0.8023672617582239  0.2563858219309154  1.0000
  C   C13       1.0  0.06906503989227675  0.7918005992136689  0.4082355726545533  1.0000
  C   C14       1.0  0.07064887723392577  0.9055166619719296  0.48336719799286154  1.0000
  C   C15       1.0  0.060775973143098794  0.9441942821375346  0.015246078567712424  1.0000
  C   C16       1.0  0.008030521941664539  0.8448059640466724  0.9350708995105257  1.0000
  C   C17       1.0  0.1100313143180709  0.8451733247585839  0.9303870793290098  1.0000
  H   H6        1.0  0.07031378940035299  0.3530561870911366  0.46707020656281145  1.0000
  H   H7        1.0  0.06463982019558691  0.1323163960436966  0.19842529815450985  1.0000
  H   H8        1.0  0.06465916252301351  0.7143248068684841  0.19946337283158577  1.0000
  H   H9        1.0  0.07311608268598335  0.8980921272070591  0.6003744735157001  1.0000
  H   H10       1.0  0.07510347913303628  0.5646266880238721  0.6950370066339364  1.0000
  H   H11       1.0  0.059664827565755  0.04449977309462993  0.9625243519646265  1.0000
  H   H12       1.0  0.9784033220183069  0.7616498172620014  0.0006902269707573804  1.0000
  H   H13       1.0  0.9760432482504215  0.8848581306998038  0.8331342357648595  1.0000
  H   H14       1.0  0.14236412121720377  0.7622411354326959  0.993161989924516  1.0000
  H   H15       1.0  0.1376590097584694  0.8854378199316305  0.825711599039034  1.0000
  C   C18       1.0  0.06742823374227801  0.40704649414869354  0.9852057416801854  1.0000
  C   C19       1.0  0.9973749501240556  0.47027908130341056  0.05306014172334585  1.0000
  C   C20       1.0  0.9333195331405917  0.5421507046537197  0.9718042236529795  1.0000
  C   C21       1.0  0.9381294901590184  0.5522948863647782  0.8212121939630144  1.0000
  C   C22       1.0  0.006380765424858435  0.4883626755588004  0.7516516532383819  1.0000
  C   C23       1.0  0.07070960192842352  0.41361661376810227  0.8316613685596308  1.0000
  C   C24       1.0  0.8722639298030099  0.6271997588905451  0.7376439526639477  1.0000
  C   C25       1.0  0.8171133885001349  0.689922363042539  0.6676403102809689  1.0000
  C   C26       1.0  0.7501981236929983  0.766025638548257  0.5826912493291991  1.0000
  H   H16       1.0  0.27527886339595903  0.30243065538012415  0.09800322970725528  1.0000
  H   H17       1.0  0.9933518729266788  0.4666743785127984  0.16985770544088608  1.0000
  H   H18       1.0  0.8804752141561054  0.5909274972376881  0.02664651318507062  1.0000
  H   H19       1.0  0.008035245289512273  0.4944727139573563  0.634500477618865  1.0000
  H   H20       1.0  0.20939572299774767  0.3385168121845279  0.5579747313435139  1.0000
  H   H21       1.0  0.768394952988082  0.7697749170246658  0.4666715230102412  1.0000
  H   H22       1.0  0.683504972334031  0.7197050103775771  0.5978104470399681  1.0000
  H   H23       1.0  0.7479308289132146  0.8663307041510252  0.6191462599499906  1.0000
  Zn  Zn1       1.0  0.970948319161107  0.4102420454401581  0.4085370464953273  1.0000
  Zn  Zn2       1.0  0.16718095830629076  0.410420464233195  0.40832945413318544  1.0000
  C   C27       1.0  0.07008742187772633  0.4071996463162381  0.67166585334936  1.0000
  C   C28       1.0  0.06804399897559565  0.41346450547459046  0.1452007856187305  1.0000
  C   C29       1.0  0.06903962631749216  0.6475444822588451  0.4025672531582378  1.0000
  C   C30       1.0  0.06909172788918538  0.17311810933494143  0.41429946352891567  1.0000
  O   O1        1.0  0.1427199193515647  0.4156804904041269  0.1988178066589421  1.0000
  O   O2        1.0  0.144347532500456  0.4051180939095089  0.6178908601389921  1.0000
  O   O3        1.0  0.14350042626258075  0.5991995992277859  0.40059183692842937  1.0000
  O   O4        1.0  0.1435669582095207  0.22159899347897324  0.4161167218730415  1.0000
  O   O5        1.0  0.9945622522932789  0.5990635161348496  0.40074977881873064  1.0000
  O   O6        1.0  0.9954093582131998  0.4049835709540845  0.6180487243734889  1.0000
  O   O7        1.0  0.9937817384070022  0.4155459087305455  0.1989739381373828  1.0000
  O   O8        1.0  0.9946287776802789  0.2214644033527384  0.41627296141120507  1.0000
