data_image0
_chemical_formula_structural       NC9NC5H8C6NH7C7NH5Zn2C4O8
_chemical_formula_sum              "N4 C31 H20 Zn2 O8"
_cell_length_a       17.807436237873137
_cell_length_b       9.274771166103582
_cell_length_c       10.302823150593486
_cell_angle_alpha    85.45577553533455
_cell_angle_beta     89.3921433004221
_cell_angle_gamma    88.98784114054227

_space_group_name_H-M_alt    "P 1"
_space_group_IT_number       1

loop_
  _space_group_symop_operation_xyz
  'x, y, z'

loop_
  _atom_site_type_symbol
  _atom_site_label
  _atom_site_symmetry_multiplicity
  _atom_site_fract_x
  _atom_site_fract_y
  _atom_site_fract_z
  _atom_site_occupancy
  N   N1        1.0  0.715802549199143  0.5409827738162256  0.5549085030085772  1.0000
  C   C1        1.0  0.6550022712068909  0.501907955260269  0.5439559263021652  1.0000
  C   C2        1.0  0.5793734079462152  0.4533031841209003  0.5303321099925375  1.0000
  C   C3        1.0  0.5608502930209796  0.3740041944884338  0.4255001149043002  1.0000
  C   C4        1.0  0.4874179019031386  0.3266889016215  0.41218987895091447  1.0000
  C   C5        1.0  0.4314576247010516  0.35825338727539147  0.5036799247376764  1.0000
  C   C6        1.0  0.3534186171537134  0.3080970203909825  0.4896164178631142  1.0000
  C   C7        1.0  0.2917365414216233  0.39887940610285  0.5153894809884023  1.0000
  C   C8        1.0  0.2181606178734091  0.3513386583437268  0.5020933133965398  1.0000
  C   C9        1.0  0.1554447239772214  0.44510953596281033  0.5282249743694346  1.0000
  N   N2        1.0  0.10503409825504648  0.5204948341170761  0.5492341148004084  1.0000
  C   C10       1.0  0.2056816654851776  0.2127290624632907  0.46299923843681295  1.0000
  C   C11       1.0  0.266506287650402  0.12193129513228215  0.4372178149742519  1.0000
  C   C12       1.0  0.3399603939650059  0.169033943446246  0.4503122689397716  1.0000
  C   C13       1.0  0.4506751328764217  0.4381013229320203  0.6087301269266463  1.0000
  C   C14       1.0  0.5241592443239578  0.48520520175972703  0.621885128388351  1.0000
  H   H1        1.0  0.6031093189422903  0.3490369683692369  0.35385334182676065  1.0000
  H   H2        1.0  0.4741808468010711  0.2670803550264078  0.3293991048070953  1.0000
  H   H3        1.0  0.3008232543832904  0.5071048131530151  0.5440694361112157  1.0000
  H   H4        1.0  0.14901086775110348  0.17493529864460575  0.4524733409173033  1.0000
  H   H5        1.0  0.256726189132402  0.014616540096996191  0.40733624553745634  1.0000
  H   H6        1.0  0.3862037495761464  0.09603038804523267  0.43139667589080655  1.0000
  H   H7        1.0  0.4091297273160015  0.4624699762191058  0.6816720296998151  1.0000
  H   H8        1.0  0.5379320292814486  0.546169101565886  0.703632250255426  1.0000
  C   C15       1.0  0.9081160915745075  0.10726345282463366  0.552812540446474  1.0000
  C   C16       1.0  0.8908334237673095  0.19148191242153456  0.43696471623000344  1.0000
  C   C17       1.0  0.8805630696060951  0.1269731291915901  0.3202780614272198  1.0000
  C   C18       1.0  0.8876147577541578  0.9768663408426524  0.31859240001485967  1.0000
  C   C19       1.0  0.9035085980293008  0.8914015566401904  0.43286559953491865  1.0000
  C   C20       1.0  0.9127276799422804  0.9542027524181115  0.5513412892385186  1.0000
  N   N3        1.0  0.8637418454814842  0.2142667978942074  0.20314750631294423  1.0000
  H   H9        1.0  0.9926409111191002  0.18247464330001945  0.8357121814292533  1.0000
  H   H10       1.0  0.8870465128834979  0.3082739513677626  0.4365212177375901  1.0000
  H   H11       1.0  0.880068227272702  0.9257763463685938  0.22880860951840298  1.0000
  H   H12       1.0  0.9068185001255329  0.7750633188039773  0.42909913946729566  1.0000
  H   H13       1.0  0.9666144553355399  0.6543000063346993  0.7438659847037818  1.0000
  H   H14       1.0  0.8585671708052212  0.3266130774082141  0.20318077660485437  1.0000
  H   H15       1.0  0.8562660201628958  0.16719028938491642  0.11549776991061012  1.0000
  C   C21       1.0  0.9104218899761856  0.5307331027204276  0.17082882295737623  1.0000
  C   C22       1.0  0.8317752489003707  0.5453279499899735  0.17012857559845523  1.0000
  C   C23       1.0  0.7926478029830916  0.5525889057026749  0.052677688393421906  1.0000
  C   C24       1.0  0.8317752337834634  0.5453278565947755  0.9348275821263918  1.0000
  C   C25       1.0  0.9104218894869454  0.5307330952522378  0.9333249895918555  1.0000
  C   C26       1.0  0.9493342891597643  0.5235118949078532  0.05187839092460679  1.0000
  C   C27       1.0  0.7120234911193051  0.5675505286947717  0.053088927803750074  1.0000
  N   N4        1.0  0.6472278885078026  0.5795749614216041  0.053419394932950455  1.0000
  H   H16       1.0  0.9402116044400951  0.5252052380122081  0.4984162878920865  1.0000
  H   H17       1.0  0.8007580148292929  0.5510839705970001  0.2607110453896053  1.0000
  H   H18       1.0  0.8007580440382112  0.5510838628514942  0.8445615086420695  1.0000
  H   H19       1.0  0.00998374600696206  0.512256898983225  0.051569053435222445  1.0000
  H   H20       1.0  0.9402115780159913  0.5252050078450512  0.6054335883534687  1.0000
  Zn  Zn1       1.0  0.8281263442476278  0.5350665491004164  0.5532785122422205  1.0000
  Zn  Zn2       1.0  0.9927102210033639  0.5263993038578081  0.5508747992162403  1.0000
  C   C28       1.0  0.9103889164243427  0.5249882653623987  0.7892068828139311  1.0000
  C   C29       1.0  0.9104494559848235  0.5364793124864076  0.31494652666127454  1.0000
  C   C30       1.0  0.9118521166896598  0.7941133699961345  0.5464458892385322  1.0000
  C   C31       1.0  0.9089861901246871  0.2673524782374003  0.5577075932833604  1.0000
  O   O1        1.0  0.9729173966258629  0.5351123272905233  0.36240155891852194  1.0000
  O   O2        1.0  0.972836324105675  0.5197759240736557  0.739927116150371  1.0000
  O   O3        1.0  0.9740170348511089  0.7370978939564558  0.5438959059561602  1.0000
  O   O4        1.0  0.9717366297752739  0.3177903706812104  0.5584326725712214  1.0000
  O   O5        1.0  0.8490998793113268  0.7436754852362893  0.5457206397006764  1.0000
  O   O6        1.0  0.8479191779963215  0.5263552479280351  0.7417517776616379  1.0000
  O   O7        1.0  0.8480002502928764  0.5416916008897534  0.36422465961040007  1.0000
  O   O8        1.0  0.8468194833830517  0.32436963396622875  0.5602558706180483  1.0000
