data_image0
_chemical_formula_structural       NC5NC4H6C6BrH5C7F3H5Zn2C4O8
_chemical_formula_sum              "N2 C26 H16 Br1 F3 Zn2 O8"
_cell_length_a       13.854160002989762
_cell_length_b       9.276564384272257
_cell_length_c       10.299327507215196
_cell_angle_alpha    85.50433020317719
_cell_angle_beta     89.98119510094074
_cell_angle_gamma    90.58592978602583

_space_group_name_H-M_alt    "P 1"
_space_group_IT_number       1

loop_
  _space_group_symop_operation_xyz
  'x, y, z'

loop_
  _atom_site_type_symbol
  _atom_site_label
  _atom_site_symmetry_multiplicity
  _atom_site_fract_x
  _atom_site_fract_y
  _atom_site_fract_z
  _atom_site_occupancy
  N   N1        1.0  0.9200668257868317  0.5784495600573243  0.5662416954170226  1.0000
  C   C1        1.0  0.8479198052000467  0.6036677248445874  0.5130265490914367  1.0000
  C   C2        1.0  0.7581678985398995  0.6350398059276199  0.4468248696850046  1.0000
  C   C3        1.0  0.6703789790936697  0.6055488683052157  0.5114640588411896  1.0000
  C   C4        1.0  0.583025486271878  0.6350398202591507  0.4468248487975144  1.0000
  C   C5        1.0  0.49281166280674343  0.6036675775242939  0.5130266317469274  1.0000
  N   N2        1.0  0.42029325475426316  0.5784494965655571  0.5662416953870013  1.0000
  C   C6        1.0  0.5834976950007772  0.6946280476004623  0.31756310346808  1.0000
  C   C7        1.0  0.6712686263926517  0.7262689497736189  0.25282909656193003  1.0000
  C   C8        1.0  0.6717123751714775  0.7860999138865583  0.11321650137054906  1.0000
  C   C9        1.0  0.7585747840473037  0.6946280462879679  0.31756302213563253  1.0000
  H   H1        1.0  0.6700380413027452  0.5593174529319027  0.6115103604141383  1.0000
  H   H2        1.0  0.5157861846985777  0.716420590011166  0.26741080369438675  1.0000
  H   H3        1.0  0.7370385894161109  0.8542583607715248  0.0917350664035539  1.0000
  H   H4        1.0  0.6073301117559179  0.8542583626390559  0.09173512503835646  1.0000
  H   H5        1.0  0.6711083973834038  0.6955929873386136  0.048820434873148244  1.0000
  H   H6        1.0  0.8266091445696088  0.7164207024976494  0.2674107266469679  1.0000
  C   C10       1.0  0.16727648453340938  0.1549685088548285  0.5665738210314282  1.0000
  C   C11       1.0  0.1549359163858417  0.23848603289426373  0.44787279299772564  1.0000
  C   C12       1.0  0.15157802149375674  0.17351522775595973  0.33028049235648105  1.0000
  C   C13       1.0  0.16053979263920823  0.02410823863234744  0.3291563845355109  1.0000
  C   C14       1.0  0.1711803710869142  0.9388976614945361  0.4460624525032986  1.0000
  C   C15       1.0  0.17309276431459497  0.0019194108839845944  0.5659207981372445  1.0000
  Br  Br1       1.0  0.156655884159593  0.9357752510974282  0.1677992023002315  1.0000
  H   H7        1.0  0.13892078004306713  0.41748847934050026  0.7777178436335612  1.0000
  H   H8        1.0  0.15017311867114833  0.355142767699661  0.4456493892553964  1.0000
  H   H9        1.0  0.14292629886903097  0.2397493581129564  0.23981576861859732  1.0000
  H   H10       1.0  0.17564704006003162  0.8226581085848504  0.4432623949544725  1.0000
  H   H11       1.0  0.22629004339742387  0.7039556702093678  0.768195541225219  1.0000
  C   C16       1.0  0.1702774572565091  0.5785025483248487  0.1848657046579132  1.0000
  C   C17       1.0  0.2644732537720891  0.6363251818314194  0.1795506587069633  1.0000
  C   C18       1.0  0.3113033114242513  0.6679421227554108  0.05957129216107315  1.0000
  C   C19       1.0  0.2642294913468204  0.6361722593605605  0.9443133189336055  1.0000
  C   C20       1.0  0.170091818325093  0.5783854234334525  0.9476289712436345  1.0000
  C   C21       1.0  0.12352205749298467  0.5504203103005076  0.06837808902899645  1.0000
  C   C22       1.0  0.41371400342614506  0.725127772113852  0.055264875055295766  1.0000
  F   F1        1.0  0.4311525426675654  0.8093406646351144  0.1580911129504488  1.0000
  F   F2        1.0  0.4766812765184272  0.6101498648931643  0.06322248208227799  1.0000
  F   F3        1.0  0.43088724267393713  0.809321098871855  0.9404477243516008  1.0000
  H   H12       1.0  0.9931571752075995  0.4669734323135555  0.402303772143185  1.0000
  H   H13       1.0  0.3016284208778115  0.6566080259927267  0.2689315538434811  1.0000
  H   H14       1.0  0.30121743180594024  0.6563463304593857  0.8519177350105941  1.0000
  H   H15       1.0  0.05092010821831992  0.5058567498774946  0.07166970966336805  1.0000
  H   H16       1.0  0.13451415620737658  0.5538021625007408  0.6216163928678786  1.0000
  Zn  Zn1       1.0  0.0644213449128217  0.5784456796709645  0.5662492063577007  1.0000
  Zn  Zn2       1.0  0.27593865316682065  0.5784415744727918  0.5662448596675353  1.0000
  C   C23       1.0  0.17008527561224152  0.5726625685833822  0.8034547992973611  1.0000
  C   C24       1.0  0.17027704469429758  0.5842265050576714  0.32903939274826977  1.0000
  C   C25       1.0  0.17198965165665878  0.8418284792872878  0.5608689243759567  1.0000
  C   C26       1.0  0.16837258455867232  0.3150588617478711  0.5716253382478867  1.0000
  O   O1        1.0  0.2505465791805155  0.5861396679524356  0.3774237548185356  1.0000
  O   O2        1.0  0.2503524765334561  0.570745202088716  0.7550667651700897  1.0000
  O   O3        1.0  0.2518892018705598  0.7881000788632597  0.5591769537019273  1.0000
  O   O4        1.0  0.2490097817614293  0.3687848015103293  0.5733134689023145  1.0000
  O   O5        1.0  0.09135014413774885  0.7881024526363996  0.5591805971175725  1.0000
  O   O6        1.0  0.08981343071138934  0.5707493084707218  0.7550703380021735  1.0000
  O   O7        1.0  0.09000753345762424  0.5861437243209685  0.37742576623663093  1.0000
  O   O8        1.0  0.08847073594005692  0.36878884754939656  0.5733155776994447  1.0000
