data_image0
_chemical_formula_structural       NC12NC2H8C7OC3FC3H8C6SCOC6H10Zn2C4O8
_chemical_formula_sum              "N2 C44 H26 O10 F1 S1 Zn2"
_cell_length_a       17.80743265337812
_cell_length_b       10.29937835083307
_cell_length_c       10.302041481415108
_cell_angle_alpha    85.53259314287666
_cell_angle_beta     91.53022125456708
_cell_angle_gamma    89.45609770286683

_space_group_name_H-M_alt    "P 1"
_space_group_IT_number       1

loop_
  _space_group_symop_operation_xyz
  'x, y, z'

loop_
  _atom_site_type_symbol
  _atom_site_label
  _atom_site_symmetry_multiplicity
  _atom_site_fract_x
  _atom_site_fract_y
  _atom_site_fract_z
  _atom_site_occupancy
  N   N1        1.0  0.707755458687168  0.40717204308387345  0.6014878345656494  1.0000
  C   C1        1.0  0.65694382023305  0.4367533079479479  0.5328015017160099  1.0000
  C   C2        1.0  0.5937291265098691  0.4735502530671678  0.44736434990210405  1.0000
  C   C3        1.0  0.6054707779229597  0.5276123249388958  0.3207675165732118  1.0000
  C   C4        1.0  0.5441630549930907  0.5629048783417088  0.23772597087722636  1.0000
  C   C5        1.0  0.47095945184654686  0.5443990393623976  0.28062147797355874  1.0000
  C   C6        1.0  0.4582409885990751  0.4902180146639086  0.407686359458682  1.0000
  C   C7        1.0  0.5204060287883691  0.45492872041129395  0.490711396906236  1.0000
  C   C8        1.0  0.38046886297969773  0.4705971181040933  0.45344162956045114  1.0000
  C   C9        1.0  0.3616850551623946  0.49774520755285256  0.5804533490662447  1.0000
  C   C10       1.0  0.2884515134607105  0.4792809309356802  0.6233894047702915  1.0000
  C   C11       1.0  0.23305873532677274  0.4334140242034853  0.5401515453712666  1.0000
  C   C12       1.0  0.15768843734628474  0.4143964675804823  0.5844882692784263  1.0000
  N   N2        1.0  0.09709605517006473  0.39910763109773056  0.6201319452328042  1.0000
  C   C13       1.0  0.251151000852495  0.4060968479440985  0.4136826895872996  1.0000
  C   C14       1.0  0.32433169728569733  0.42457598965616516  0.37049080438105664  1.0000
  H   H1        1.0  0.661940397791579  0.5424472982487945  0.28633674565565004  1.0000
  H   H2        1.0  0.5533723297913618  0.6050337603721394  0.1399645730980854  1.0000
  H   H3        1.0  0.424327898562406  0.5740559560261881  0.21504236219921102  1.0000
  H   H4        1.0  0.5118948605660075  0.411414514845017  0.5883485423375578  1.0000
  H   H5        1.0  0.40336724988903006  0.5349056652375968  0.6460068610169944  1.0000
  H   H6        1.0  0.2750099838211015  0.5010970673343902  0.721373002089402  1.0000
  H   H7        1.0  0.20875217218723222  0.37020359364616107  0.34854188609082737  1.0000
  H   H8        1.0  0.33724451450931725  0.4012241531711276  0.2728106545730675  1.0000
  C   C15       1.0  0.9023501671270142  0.021756422255926108  0.6108702520959701  1.0000
  C   C16       1.0  0.8239678921656651  0.023393254459706195  0.5910954735925218  1.0000
  C   C17       1.0  0.784338598804832  0.9069324713260289  0.5825940852373672  1.0000
  C   C18       1.0  0.824151588289998  0.7881454442320229  0.5911111438873884  1.0000
  C   C19       1.0  0.9025085205947163  0.7845131566034074  0.6107610664529011  1.0000
  C   C20       1.0  0.9411312384430299  0.9018484648941734  0.6208676708803376  1.0000
  C   C21       1.0  0.7016652084513529  0.9086217892186939  0.560344827752117  1.0000
  O   O1        1.0  0.6726500304303438  0.8245558871011646  0.4923087150924043  1.0000
  C   C22       1.0  0.6519078071883798  0.00557973712963467  0.6152887326179235  1.0000
  C   C23       1.0  0.5849890786962739  0.04698646847376087  0.5483170945183262  1.0000
  C   C24       1.0  0.5372647090640579  0.13721277605558257  0.6000810387484476  1.0000
  F   F1        1.0  0.47316661423029466  0.17725278332302663  0.5343056025324664  1.0000
  C   C25       1.0  0.5555453653910793  0.1860890322543904  0.7195360326762137  1.0000
  C   C26       1.0  0.6213855246579055  0.14445186453406533  0.7876703242030678  1.0000
  C   C27       1.0  0.6692652191127556  0.05429380480210977  0.7363184431347425  1.0000
  H   H9        1.0  0.7937405645411773  0.11553389660536428  0.5808367576817992  1.0000
  H   H10       1.0  0.7937385743304466  0.6983089359989925  0.5836037683876416  1.0000
  H   H11       1.0  0.0015581475607124862  0.8997825858356938  0.6361118136295416  1.0000
  H   H12       1.0  0.9326804212315629  0.4557448902050393  0.6172172270622218  1.0000
  H   H13       1.0  0.570024467190119  0.010327107384715097  0.455461916237281  1.0000
  H   H14       1.0  0.5185808609072661  0.2558279095476657  0.7596359240317974  1.0000
  H   H15       1.0  0.6351886963379018  0.1816223702302235  0.8806834098675118  1.0000
  H   H16       1.0  0.7193300541464852  0.021676145981399875  0.7918566101423787  1.0000
  C   C28       1.0  0.9024434632739061  0.4032637585504628  0.2295292826055528  1.0000
  C   C29       1.0  0.9369100613874072  0.5256532674714194  0.22024794001939843  1.0000
  C   C30       1.0  0.9543936317864333  0.5860197030672656  0.09869055466070042  1.0000
  C   C31       1.0  0.93698127769155  0.5252479134308701  0.9851460002031444  1.0000
  C   C32       1.0  0.9024152615824836  0.4030057733529275  0.9921020626257815  1.0000
  C   C33       1.0  0.88538070523237  0.3425914803414043  0.11487438203028265  1.0000
  S   S1        1.0  0.9990944203257632  0.741633074975051  0.08828461038732738  1.0000
  C   C34       1.0  0.09162386974621906  0.6699129786260769  0.0952945995392489  1.0000
  O   O2        1.0  0.12101979584440059  0.6461304054776077  0.9896455431570059  1.0000
  C   C35       1.0  0.13302592883588082  0.6377114625702498  0.22080649712059008  1.0000
  C   C36       1.0  0.19965535771999687  0.5626050066599246  0.22420069191025863  1.0000
  C   C37       1.0  0.23880481205303217  0.5308961029365133  0.3420322179376265  1.0000
  C   C38       1.0  0.21212219200669802  0.5737980227583648  0.4576855750129149  1.0000
  C   C39       1.0  0.1463001690973087  0.6487289376457426  0.4557103349965251  1.0000
  C   C40       1.0  0.10692655552511354  0.6808166342359268  0.3381674235228418  1.0000
  H   H17       1.0  0.8373673931907031  0.17269638593964817  0.4543259459432214  1.0000
  H   H18       1.0  0.950415931694792  0.5743032861617217  0.30720152903371534  1.0000
  H   H19       1.0  0.950805505489668  0.5735597942470015  0.8918291847823238  1.0000
  H   H20       1.0  0.8588111587385339  0.24823763691554968  0.1211091644343043  1.0000
  H   H21       1.0  0.8894783639311967  0.3563551922724628  0.6674304806697386  1.0000
  H   H22       1.0  0.22134894529952076  0.5276963672287613  0.13592614028080652  1.0000
  H   H23       1.0  0.28986020939562285  0.4728518016890102  0.34363877845427937  1.0000
  H   H24       1.0  0.24249619969240996  0.5491167343276375  0.5488058242712086  1.0000
  H   H25       1.0  0.12577284219928875  0.6822263261505832  0.5453949849168067  1.0000
  H   H26       1.0  0.056441469029047356  0.7397912178519794  0.3398152873530267  1.0000
  Zn  Zn1       1.0  0.8201107469540596  0.4048413580421204  0.606875607977569  1.0000
  Zn  Zn2       1.0  0.9847407618177098  0.40142771869679494  0.6147547640957844  1.0000
  C   C41       1.0  0.9024178224982057  0.3978807148333263  0.8479601127943556  1.0000
  C   C42       1.0  0.9024354843637225  0.40838996326722987  0.37367047252341923  1.0000
  C   C43       1.0  0.9024749246288158  0.6403377061659044  0.6056074638797775  1.0000
  C   C44       1.0  0.902378325729862  0.16593141271445175  0.6160231881964069  1.0000
  O   O3        1.0  0.9649090380564009  0.40880924010161235  0.42503567210127957  1.0000
  O   O4        1.0  0.9648946406182058  0.39486958508894343  0.8025746367740917  1.0000
  O   O5        1.0  0.9649399090513588  0.590656688883844  0.6068731175885116  1.0000
  O   O6        1.0  0.9648637134517078  0.2130221467950626  0.6207370912433143  1.0000
  O   O7        1.0  0.8399877391399175  0.5932469311101762  0.6008932781344405  1.0000
  O   O8        1.0  0.839942471029871  0.3974613877017998  0.7965947278660119  1.0000
  O   O9        1.0  0.8399568685664136  0.4114009979838349  0.419054202139322  1.0000
  O   O10       1.0  0.8399115439531166  0.21561389535525866  0.6147557186293031  1.0000
