data_image0
_chemical_formula_structural       NC9NC3NH7C9H10C6NO2H3Zn2C4O8
_chemical_formula_sum              "N4 C31 H20 O10 Zn2"
_cell_length_a       16.053384444249904
_cell_length_b       9.272676604525723
_cell_length_c       9.273395971720358
_cell_angle_alpha    85.21432368177585
_cell_angle_beta     89.67931749283619
_cell_angle_gamma    89.72820801156413

_space_group_name_H-M_alt    "P 1"
_space_group_IT_number       1

loop_
  _space_group_symop_operation_xyz
  'x, y, z'

loop_
  _atom_site_type_symbol
  _atom_site_label
  _atom_site_symmetry_multiplicity
  _atom_site_fract_x
  _atom_site_fract_y
  _atom_site_fract_z
  _atom_site_occupancy
  N   N1        1.0  0.7950096008986984  0.5753415869881107  0.41117211278610943  1.0000
  C   C1        1.0  0.7442275668943188  0.5531016277462253  0.32787528729689974  1.0000
  C   C2        1.0  0.6811193593345425  0.5254680056738975  0.22440029747155446  1.0000
  C   C3        1.0  0.6948394954616761  0.5135721949151502  0.07902661561739488  1.0000
  C   C4        1.0  0.6181297741876176  0.48605796749680813  0.020822248706134475  1.0000
  C   C5        1.0  0.5608841346558059  0.4826999300228436  0.1338250615237233  1.0000
  C   C6        1.0  0.47009842847730565  0.4563711857752428  0.12232031877058724  1.0000
  C   C7        1.0  0.4143388994703423  0.5027054041157031  0.22690804053410576  1.0000
  C   C8        1.0  0.3286640973735364  0.4777361602716214  0.215889752425118  1.0000
  C   C9        1.0  0.272132059016043  0.5259801265923094  0.32312237157141555  1.0000
  N   N2        1.0  0.2266969448690138  0.5647614896945066  0.40932060765387845  1.0000
  C   C10       1.0  0.2980220838436355  0.40630821061169853  0.10029844130566534  1.0000
  C   C11       1.0  0.3527735125888749  0.360104341951871  0.9959465757725354  1.0000
  C   C12       1.0  0.4382418634563964  0.38489418154820876  0.006523245269368209  1.0000
  N   N3        1.0  0.6000632048317842  0.506913160830949  0.25793395155492105  1.0000
  H   H1        1.0  0.7536974024859737  0.5237566347419393  0.021694964661353563  1.0000
  H   H2        1.0  0.6059216945835416  0.4719374040314623  0.9082951183252049  1.0000
  H   H3        1.0  0.4368724234834435  0.5600232626229855  0.31586054434137933  1.0000
  H   H4        1.0  0.23190025470388362  0.38645855322055545  0.09083858559808222  1.0000
  H   H5        1.0  0.3289601144121641  0.30461193219455684  0.9067420617018148  1.0000
  H   H6        1.0  0.4792415370207633  0.3463905772456517  0.9249341480013871  1.0000
  H   H7        1.0  0.5737879006578258  0.5084681345330087  0.3610511106399743  1.0000
  C   C13       1.0  0.008499252724646354  0.1466398911834208  0.40841236581802787  1.0000
  C   C14       1.0  0.9750110714504265  0.21032485498849818  0.5281093357073721  1.0000
  C   C15       1.0  0.9491398559619374  0.1255506839908731  0.6513016665353768  1.0000
  C   C16       1.0  0.955921753524783  0.97455596946214  0.6589422212592875  1.0000
  C   C17       1.0  0.9880465145080704  0.9094662424417224  0.5381389091837188  1.0000
  C   C18       1.0  0.013215197279121911  0.9934517911586536  0.4120927513960393  1.0000
  C   C19       1.0  0.9270533900165138  0.8902153594514686  0.7977353335848711  1.0000
  C   C20       1.0  0.8849714641118676  0.745300719224868  0.7835429603980164  1.0000
  C   C21       1.0  0.9728542402003357  0.7499595139571806  0.8442461700729926  1.0000
  H   H8        1.0  0.027283223083861104  0.447447965081487  0.17178128187815367  1.0000
  H   H9        1.0  0.9706160026240516  0.32695653189832985  0.5279894155096898  1.0000
  H   H10       1.0  0.924353473198762  0.17866810674704203  0.7421093427763696  1.0000
  H   H11       1.0  0.9920187317630854  0.7929547083241262  0.5394623536836438  1.0000
  H   H12       1.0  0.03525743345422305  0.9197456794635258  0.05853685572543732  1.0000
  H   H13       1.0  0.9033634044561761  0.949980432764629  0.8887262709418254  1.0000
  H   H14       1.0  0.8812389953102743  0.7072782264285296  0.6735106823323898  1.0000
  H   H15       1.0  0.8365951001254123  0.7168442080131232  0.8670301387583059  1.0000
  H   H16       1.0  0.022480385092426225  0.714638255967447  0.7711731943796869  1.0000
  H   H17       1.0  0.9758389646338059  0.7242196445550384  0.9632305331889075  1.0000
  C   C22       1.0  0.011355898145275038  0.574463689906537  0.9863330548115821  1.0000
  C   C23       1.0  0.9372976306647859  0.6091932491833572  0.05738120994605999  1.0000
  C   C24       1.0  0.8629302810597237  0.630294965580694  0.9813549890981718  1.0000
  C   C25       1.0  0.8605105232150233  0.6171060845361971  0.8320128426452  1.0000
  C   C26       1.0  0.9345380365715223  0.5848482110043136  0.7595379380203569  1.0000
  C   C27       1.0  0.01035850135627503  0.5656280042735138  0.834172068096692  1.0000
  N   N4        1.0  0.7833957600085281  0.6377945646054927  0.754288221243844  1.0000
  O   O1        1.0  0.7111800300096646  0.6705555746244674  0.8255079634341609  1.0000
  O   O2        1.0  0.7806768173135451  0.6259770951058368  0.6212524140987474  1.0000
  H   H18       1.0  0.1927252763700933  0.40846730021622585  0.10127122326697124  1.0000
  H   H19       1.0  0.807004496656072  0.6555773662746667  0.04008231972958232  1.0000
  H   H20       1.0  0.13405127311983278  0.4580470610077956  0.5617354526238434  1.0000
  Zn  Zn1       1.0  0.9195852099263361  0.572284467302755  0.41064612052580873  1.0000
  Zn  Zn2       1.0  0.1021212330839052  0.5678067396252215  0.4098583473754138  1.0000
  C   C28       1.0  0.01051320050838456  0.5615541552896969  0.6738873651783748  1.0000
  C   C29       1.0  0.01119524575439579  0.5785388205280888  0.1466172437154749  1.0000
  C   C30       1.0  0.012326240044068678  0.833446384267877  0.405644502354102  1.0000
  C   C31       1.0  0.009382134194097617  0.3066448599634912  0.4148601762434873  1.0000
  O   O3        1.0  0.08041276380720053  0.5782009069338949  0.20011109858196896  1.0000
  O   O4        1.0  0.07983629486736787  0.5584924937865714  0.6197951884338704  1.0000
  O   O5        1.0  0.0812994116431136  0.7780489144969921  0.40318718938647025  1.0000
  O   O6        1.0  0.07894958492904558  0.3586444991938118  0.41671898970393206  1.0000
  O   O7        1.0  0.9427567957906271  0.7814467092638426  0.40378547845853263  1.0000
  O   O8        1.0  0.9412936887489267  0.5618920216695167  0.620393408063435  1.0000
  O   O9        1.0  0.9418701595060694  0.5816004026579669  0.20070758238164066  1.0000
  O   O10       1.0  0.9404069804397551  0.36204398347722366  0.4173155816902836  1.0000
