data_image0
_chemical_formula_structural       NC12NC2H8C13OH12C13F3H9Zn2C4O8
_chemical_formula_sum              "N2 C44 H29 O9 F3 Zn2"
_cell_length_a       17.80743265337812
_cell_length_b       10.29915010939255
_cell_length_c       10.298532869026802
_cell_angle_alpha    85.5582241043329
_cell_angle_beta     91.53993439614001
_cell_angle_gamma    89.41750150667457

_space_group_name_H-M_alt    "P 1"
_space_group_IT_number       1

loop_
  _space_group_symop_operation_xyz
  'x, y, z'

loop_
  _atom_site_type_symbol
  _atom_site_label
  _atom_site_symmetry_multiplicity
  _atom_site_fract_x
  _atom_site_fract_y
  _atom_site_fract_z
  _atom_site_occupancy
  N   N1        1.0  0.7070713358860176  0.40631874895613  0.6007546720783579  1.0000
  C   C1        1.0  0.65624164456447  0.43585626517609916  0.5320413795559424  1.0000
  C   C2        1.0  0.5930044947271408  0.47259879256246934  0.4465706929421902  1.0000
  C   C3        1.0  0.604713053385471  0.5265802092432581  0.319924275035006  1.0000
  C   C4        1.0  0.543383689878698  0.5618198487535366  0.23685024302229674  1.0000
  C   C5        1.0  0.4701913735499901  0.543341329883318  0.27976259409915105  1.0000
  C   C6        1.0  0.45750609357982275  0.4892412623373712  0.4068772249606307  1.0000
  C   C7        1.0  0.51969277152152  0.45400487128339684  0.489934743126754  1.0000
  C   C8        1.0  0.37974596056846593  0.4696495127919984  0.4526504348301259  1.0000
  C   C9        1.0  0.36096334484761206  0.49688231020323426  0.5796932713130165  1.0000
  C   C10       1.0  0.2877410774068301  0.4784453822694714  0.6226461734017543  1.0000
  C   C11       1.0  0.23235855983948195  0.43252165483118366  0.5393943479243044  1.0000
  C   C12       1.0  0.1569998846139817  0.4135323413494613  0.5837484565507931  1.0000
  N   N2        1.0  0.09641684634470371  0.3982662104080015  0.6194061086302529  1.0000
  C   C13       1.0  0.2504497505001949  0.4051201193896608  0.4128945734271387  1.0000
  C   C14       1.0  0.3236191429188452  0.42357174503518774  0.36968576323993724  1.0000
  H   H1        1.0  0.6611736211947432  0.5413932527406278  0.2854799883823742  1.0000
  H   H2        1.0  0.5525672598440339  0.6038864644507825  0.1390504675783757  1.0000
  H   H3        1.0  0.42354202801495056  0.5729565428064917  0.2141574146097911  1.0000
  H   H4        1.0  0.5112078413594511  0.41055278593436656  0.5876105468122861  1.0000
  H   H5        1.0  0.402637050592703  0.5340875650461192  0.6452575445129554  1.0000
  H   H6        1.0  0.2743001242039186  0.5003269075175094  0.7206535762556514  1.0000
  H   H7        1.0  0.2080589510012731  0.3691823980613521  0.3477428399137119  1.0000
  H   H8        1.0  0.3365320160438612  0.4001546475757063  0.27198224861856124  1.0000
  C   C15       1.0  0.9018185025769228  0.020891351734074744  0.6102280714869384  1.0000
  C   C16       1.0  0.9004423993029692  0.009157755440332377  0.7469826017076591  1.0000
  C   C17       1.0  0.8996793022717383  0.8860752441650217  0.8160532059508311  1.0000
  C   C18       1.0  0.9002975329115959  0.7739052949537369  0.7466122411467966  1.0000
  C   C19       1.0  0.9016768736518868  0.7836834447044646  0.6099442711264289  1.0000
  C   C20       1.0  0.902431363966119  0.9076372581684394  0.5425509623122216  1.0000
  C   C21       1.0  0.8982169856461407  0.874644287921854  0.9606335502788251  1.0000
  C   C22       1.0  0.8520251877026936  0.7827403377314127  0.026447001082890657  1.0000
  C   C23       1.0  0.8506242594501904  0.7720657434071329  0.1624957682694157  1.0000
  C   C24       1.0  0.8958825529307014  0.8521275514193754  0.23521414897691606  1.0000
  C   C25       1.0  0.9413556331022479  0.9450001986966894  0.1700088856388191  1.0000
  C   C26       1.0  0.9427740003189818  0.9558502292877666  0.03396066512299267  1.0000
  C   C27       1.0  0.8927974996093422  0.8430438822499465  0.3811630139782648  1.0000
  O   O1        1.0  0.8366488061973193  0.9273929587497308  0.418716756494266  1.0000
  H   H9        1.0  0.9039278791582516  0.25034199517002587  0.35207410585825105  1.0000
  H   H10       1.0  0.8989193887458579  0.09597762485747333  0.7999219872594614  1.0000
  H   H11       1.0  0.9007291520123624  0.678788709968984  0.7994701871172254  1.0000
  H   H12       1.0  0.9034931649316594  0.9158956901911123  0.43713476576952237  1.0000
  H   H13       1.0  0.9021568509124746  0.4599700418455026  0.5573745543295561  1.0000
  H   H14       1.0  0.8160940707955586  0.720460266641292  0.9726133427441055  1.0000
  H   H15       1.0  0.814081672184486  0.7015059841503176  0.21112435626831613  1.0000
  H   H16       1.0  0.9759029647717647  0.00886206826566238  0.22452251324918823  1.0000
  H   H17       1.0  0.9793418045589946  0.026855125503471033  0.9861399857186799  1.0000
  H   H18       1.0  0.9480607448902565  0.8697413289339809  0.42398323164911583  1.0000
  H   H19       1.0  0.8805907663452707  0.7412856152765437  0.41839352597028845  1.0000
  H   H20       1.0  0.8369325214038996  0.9177368533145771  0.5153638954357038  1.0000
  C   C28       1.0  0.9017261179943127  0.4021659128640707  0.22868768848703522  1.0000
  C   C29       1.0  0.9770656405492315  0.35971309239523946  0.23452475310283427  1.0000
  C   C30       1.0  0.015240718958297933  0.338320606682897  0.12031153792013226  1.0000
  C   C31       1.0  0.9771099447444946  0.35996781330588007  0.9992261061062413  1.0000
  C   C32       1.0  0.9017692537103992  0.40240895217209416  0.9914846405424735  1.0000
  C   C33       1.0  0.86455847967971  0.4232317991996639  0.10673594716898616  1.0000
  C   C34       1.0  0.09489253285701094  0.2934500401959921  0.1274171387620211  1.0000
  C   C35       1.0  0.146756660206667  0.3469821990986206  0.038340168263703685  1.0000
  C   C36       1.0  0.2217196766763896  0.3048551096711072  0.04504893945787923  1.0000
  C   C37       1.0  0.2461829724039897  0.20694528853623972  0.13972772407844114  1.0000
  C   C38       1.0  0.19475337951063576  0.15522333307378422  0.23040217693725928  1.0000
  C   C39       1.0  0.11979524725998235  0.19738337909919793  0.22380454869358313  1.0000
  C   C40       1.0  0.32764321657411744  0.1649707444497495  0.1499281951024194  1.0000
  F   F1        1.0  0.3661564124974206  0.24349511357963396  0.23122902352808425  1.0000
  F   F2        1.0  0.359635588703038  0.17548313327510456  0.028599505736396358  1.0000
  F   F3        1.0  0.33462445469312674  0.03669500304846407  0.20019525401689606  1.0000
  H   H21       1.0  0.7595054801043472  0.4832015883953802  0.42492629073802246  1.0000
  H   H22       1.0  0.006488633929343957  0.34494388567927525  0.3280183938703316  1.0000
  H   H23       1.0  0.005965449636196495  0.34198810700996934  0.9109840494296901  1.0000
  H   H24       1.0  0.8064925757733084  0.45594578281963766  0.10150407212173396  1.0000
  H   H25       1.0  0.7592651467051266  0.48186682837693895  0.7695809928260275  1.0000
  H   H26       1.0  0.12962288806529543  0.42310687446861683  0.9647625778901796  1.0000
  H   H27       1.0  0.2606602891541576  0.349279636610512  0.9764126589576064  1.0000
  H   H28       1.0  0.21248723800185432  0.08197801325158438  0.30645034196337817  1.0000
  H   H29       1.0  0.08112504638437423  0.1539073624406777  0.2934731136256665  1.0000
  Zn  Zn1       1.0  0.8194280442844304  0.4039914950886194  0.606144562576892  1.0000
  Zn  Zn2       1.0  0.9840601380185826  0.40058287329845044  0.6140268159457316  1.0000
  C   C41       1.0  0.9017603867868184  0.3971889157689879  0.8473015204222007  1.0000
  C   C42       1.0  0.9017295929964758  0.40738705419436133  0.3728700710409582  1.0000
  C   C43       1.0  0.9016994842653215  0.6394979720332576  0.6048221390688415  1.0000
  C   C44       1.0  0.901790439634192  0.1650764386811716  0.6153495195292644  1.0000
  O   O2        1.0  0.9642077818757514  0.40784009649632313  0.4242502719314616  1.0000
  O   O3        1.0  0.9642341478851987  0.3941478284742268  0.8019033939452798  1.0000
  O   O4        1.0  0.9641841261851134  0.5898154736918658  0.6060995370937119  1.0000
  O   O5        1.0  0.9642577473908227  0.21217246170179618  0.620054028707679  1.0000
  O   O6        1.0  0.8392303787313359  0.5924019078498806  0.6001173471182861  1.0000
  O   O7        1.0  0.8392804001343472  0.39673582304576915  0.7959211341382486  1.0000
  O   O8        1.0  0.8392540340949589  0.4104280453095675  0.4182664506219662  1.0000
  O   O9        1.0  0.8393039996141898  0.21476040125653517  0.6140703047768763  1.0000
