data_image0
_chemical_formula_structural       NC10NC3NH7C6NCOC6H11C7OC3OC4H12Zn2C4O8
_chemical_formula_sum              "N4 C44 H30 O11 Zn2"
_cell_length_a       19.210446455230148
_cell_length_b       10.29965916528486
_cell_length_c       10.299374482448638
_cell_angle_alpha    85.5657401976444
_cell_angle_beta     89.97251480092041
_cell_angle_gamma    89.96405462056512

_space_group_name_H-M_alt    "P 1"
_space_group_IT_number       1

loop_
  _space_group_symop_operation_xyz
  'x, y, z'

loop_
  _atom_site_type_symbol
  _atom_site_label
  _atom_site_symmetry_multiplicity
  _atom_site_fract_x
  _atom_site_fract_y
  _atom_site_fract_z
  _atom_site_occupancy
  N   N1        1.0  0.6559351248727885  0.42049505655212843  0.56779228317686  1.0000
  C   C1        1.0  0.5957067115300277  0.42270242917914036  0.5680242442421795  1.0000
  C   C2        1.0  0.5209024406103707  0.42543916707904256  0.5683116158171342  1.0000
  C   C3        1.0  0.48529821305890064  0.5416614039772962  0.5834662893453326  1.0000
  C   C4        1.0  0.4126327527530438  0.541812948752705  0.5834137456523363  1.0000
  C   C5        1.0  0.375735727270727  0.4261480849219264  0.568398360403626  1.0000
  C   C6        1.0  0.2984135185467665  0.42479169908358466  0.5682472686726658  1.0000
  C   C7        1.0  0.260676507664201  0.5283744366257459  0.5049213373917762  1.0000
  C   C8        1.0  0.1878980632235321  0.5269722868257378  0.5048117479900376  1.0000
  C   C9        1.0  0.1518552455366218  0.4222449124233332  0.567977185467168  1.0000
  C   C10       1.0  0.0769256481079735  0.42094291504739506  0.5678398773009536  1.0000
  N   N2        1.0  0.016687733572881003  0.4198960649411816  0.5677295163961478  1.0000
  C   C11       1.0  0.1888686120698235  0.31878786897318845  0.6312781533887355  1.0000
  C   C12       1.0  0.2616488774111921  0.3199157484089974  0.6314378900912898  1.0000
  C   C13       1.0  0.41394991062385933  0.31174596119389797  0.5535325246280026  1.0000
  N   N3        1.0  0.4847200163008909  0.3141908005383407  0.5536989847709681  1.0000
  H   H1        1.0  0.5134040780073409  0.63108852389907  0.5955477234944919  1.0000
  H   H2        1.0  0.3853686386207031  0.6318215547266286  0.5968901581890069  1.0000
  H   H3        1.0  0.2874171726698224  0.6096377379106948  0.45395880103026065  1.0000
  H   H4        1.0  0.1597647810638825  0.6074075741957892  0.45517934369900126  1.0000
  H   H5        1.0  0.16148850553084723  0.23738924697367245  0.6808107184150194  1.0000
  H   H6        1.0  0.2891370869565016  0.2395992742848747  0.6825081081009194  1.0000
  H   H7        1.0  0.38767977362401956  0.22087447918236935  0.5400095487491681  1.0000
  C   C14       1.0  0.8362535447905488  0.03883501343035901  0.5676454304561832  1.0000
  C   C15       1.0  0.836749900302098  0.04814742883861122  0.4308264766434559  1.0000
  C   C16       1.0  0.8380263923356841  0.9360009965364559  0.3619892130282272  1.0000
  C   C17       1.0  0.8368810036328542  0.8129568484042426  0.4311228443626216  1.0000
  C   C18       1.0  0.8363759481418466  0.8015461018430745  0.5678875749464166  1.0000
  C   C19       1.0  0.8363100153045933  0.9150928155879389  0.6353768704396736  1.0000
  N   N4        1.0  0.8374645138612138  0.949107787468902  0.22192023682868497  1.0000
  C   C20       1.0  0.8701074921152354  0.8579435477114323  0.14218677234622157  1.0000
  O   O1        1.0  0.9181196484638409  0.7850340865558483  0.18915744633063603  1.0000
  C   C21       1.0  0.8498979307793217  0.8518131841602584  0.003821160022675847  1.0000
  C   C22       1.0  0.7855391047492066  0.9017882908902974  0.9574856202924478  1.0000
  C   C23       1.0  0.7669084553376236  0.8948367116173108  0.8269635057990244  1.0000
  C   C24       1.0  0.811988454860206  0.837695091064343  0.7414972636268695  1.0000
  C   C25       1.0  0.8757347429017476  0.7869338055741455  0.7864566620716115  1.0000
  C   C26       1.0  0.8946311499873882  0.7935286357904126  0.9168742535773462  1.0000
  H   H8        1.0  0.8346528582148594  0.22853376609895032  0.8257299510577201  1.0000
  H   H9        1.0  0.8366789576491217  0.14276957669309853  0.3770023887860561  1.0000
  H   H10       1.0  0.8351612835915477  0.7261815907807498  0.37831672494638524  1.0000
  H   H11       1.0  0.8359366890428392  0.9070485907378266  0.7408488426743972  1.0000
  H   H12       1.0  0.8352561215798069  0.4697213955197509  0.6203503320915  1.0000
  H   H13       1.0  0.8176108055520545  0.03528455758348126  0.17598232697459745  1.0000
  H   H14       1.0  0.7490512336720843  0.9445304305361496  0.02197563462917662  1.0000
  H   H15       1.0  0.7173056337414324  0.9333606177073138  0.7921856861341263  1.0000
  H   H16       1.0  0.7974281521372438  0.832385859988193  0.6405402509553944  1.0000
  H   H17       1.0  0.9105759214676844  0.742399043308309  0.7202031791794273  1.0000
  H   H18       1.0  0.9444086622873269  0.7538188451018014  0.9494332896666218  1.0000
  C   C27       1.0  0.8363792506237411  0.42027795633064735  0.18638399466542577  1.0000
  C   C28       1.0  0.9090910743031245  0.4348212215625145  0.18400462651611083  1.0000
  C   C29       1.0  0.94567721138056  0.44362794157404806  0.06551723382456975  1.0000
  C   C30       1.0  0.908924677586496  0.4347576285064024  0.9487657844359005  1.0000
  C   C31       1.0  0.8362502440633766  0.42010318144184455  0.9491489889564342  1.0000
  C   C32       1.0  0.8003783988056902  0.41328919404264974  0.06846436528707645  1.0000
  C   C33       1.0  0.022537352513248406  0.45762600503257045  0.06296933383188641  1.0000
  O   O2        1.0  0.05667982152015739  0.4040285187496373  0.9770992611938477  1.0000
  C   C34       1.0  0.06066163999460561  0.5324423621907124  0.15775430069760787  1.0000
  C   C35       1.0  0.12856952462368576  0.49561262156080715  0.19589510884739766  1.0000
  C   C36       1.0  0.16576213705710607  0.5658133035607749  0.2841142874693876  1.0000
  O   O3        1.0  0.23310383664163425  0.5238102664055042  0.31938250651390065  1.0000
  C   C37       1.0  0.276727219173164  0.5856070997303906  0.40778688894559667  1.0000
  C   C38       1.0  0.13466221647609955  0.6752490166461222  0.3340690872728398  1.0000
  C   C39       1.0  0.06756727370961979  0.7134105895795988  0.2954180067454051  1.0000
  C   C40       1.0  0.0307763894905857  0.6429762367752507  0.20743971679168258  1.0000
  H   H19       1.0  0.6992817684869003  0.39084534690625117  0.3983494295112937  1.0000
  H   H20       1.0  0.9374424069987372  0.4378660631082576  0.27459195594518304  1.0000
  H   H21       1.0  0.937115877149959  0.44056626616100325  0.8573691266615704  1.0000
  H   H22       1.0  0.7443228950257368  0.40207654768915546  0.06949496858052351  1.0000
  H   H23       1.0  0.8083974372699528  0.4133900186911994  0.6219229090848777  1.0000
  H   H24       1.0  0.15269650692622982  0.41126243376422605  0.15798563017143663  1.0000
  H   H25       1.0  0.3268250194609841  0.532167962825425  0.4177199162151015  1.0000
  H   H26       1.0  0.25159086601859504  0.5838479383331722  0.5050253953204984  1.0000
  H   H27       1.0  0.2874453821671925  0.687592672414445  0.3701558732155816  1.0000
  H   H28       1.0  0.1619491031928393  0.7316401246309459  0.4022732114562899  1.0000
  H   H29       1.0  0.04409412152540872  0.7982487301512797  0.33335645797332747  1.0000
  H   H30       1.0  0.979307098118687  0.6757877062093667  0.17723489381254498  1.0000
  Zn  Zn1       1.0  0.7600405323945609  0.4203187348163892  0.5677816682746739  1.0000
  Zn  Zn2       1.0  0.9125823066138996  0.42006180192450104  0.5677507640949959  1.0000
  C   C41       1.0  0.8362722523309195  0.41496266502176243  0.8049684660101502  1.0000
  C   C42       1.0  0.8363522526704059  0.42541950746787793  0.3305640940133103  1.0000
  C   C43       1.0  0.8363501125520868  0.657378690693647  0.5626664675256526  1.0000
  C   C44       1.0  0.8362743401352614  0.18300192159943407  0.5728661612540538  1.0000
  O   O4        1.0  0.8942319993394122  0.4270418886875378  0.3789405226819196  1.0000
  O   O5        1.0  0.8941681826239829  0.4131442980668189  0.7565682076138041  1.0000
  O   O6        1.0  0.8942302751400448  0.6088983055709445  0.560907630097575  1.0000
  O   O7        1.0  0.894169854789135  0.23128789058341548  0.5746010028335021  1.0000
  O   O8        1.0  0.7784529321643058  0.6090926462465689  0.5609314295398824  1.0000
  O   O9        1.0  0.7783908399072011  0.41334019902809715  0.7565919383035806  1.0000
  O   O10       1.0  0.7784546569257342  0.42723774475152076  0.37896269190093124  1.0000
  O   O11       1.0  0.7783925123546523  0.23148373733648953  0.5746232694208756  1.0000
