data_image0
_chemical_formula_structural       NC12NC2H8C6BrH5C6BrH4Zn2C4O8
_chemical_formula_sum              "N2 C30 H17 Br2 Zn2 O8"
_cell_length_a       19.240039667572717
_cell_length_b       9.276564384272257
_cell_length_c       9.27656775626242
_cell_angle_alpha    86.06955747846486
_cell_angle_beta     90.18620512450872
_cell_angle_gamma    90.58593109150864

_space_group_name_H-M_alt    "P 1"
_space_group_IT_number       1

loop_
  _space_group_symop_operation_xyz
  'x, y, z'

loop_
  _atom_site_type_symbol
  _atom_site_label
  _atom_site_symmetry_multiplicity
  _atom_site_fract_x
  _atom_site_fract_y
  _atom_site_fract_z
  _atom_site_occupancy
  N   N1        1.0  0.6596893952466398  0.562649700896878  0.4093190636571098  1.0000
  C   C1        1.0  0.5995410267422027  0.5626497932612691  0.40931897267314876  1.0000
  C   C2        1.0  0.5247229899969572  0.5626499220062808  0.4093188202293172  1.0000
  C   C3        1.0  0.48808173769469315  0.49218942763173795  0.5241112941893027  1.0000
  C   C4        1.0  0.41541053776439024  0.49206724306825467  0.5242074119676482  1.0000
  C   C5        1.0  0.3783907551582774  0.5626500223201756  0.4093185675360609  1.0000
  C   C6        1.0  0.4157466523114791  0.6332330113162254  0.29442993877493673  1.0000
  C   C7        1.0  0.4884168878754015  0.6331105665807863  0.29452619267914204  1.0000
  C   C8        1.0  0.3011856641171073  0.5626499339379134  0.4093184617451979  1.0000
  C   C9        1.0  0.2634529482119906  0.4373381527296298  0.45587580384767024  1.0000
  C   C10       1.0  0.1907826812962566  0.4374558647897675  0.45577438301957063  1.0000
  C   C11       1.0  0.15485337659602666  0.5626497911638129  0.4093185294410191  1.0000
  C   C12       1.0  0.0800353392640994  0.5626496675615626  0.4093188054291914  1.0000
  N   N2        1.0  0.019887022562040405  0.5626496244930572  0.4093190367041597  1.0000
  C   C13       1.0  0.1918715830726757  0.6878438011637149  0.3628626171124274  1.0000
  C   C14       1.0  0.2645427014534878  0.6879617114675467  0.3627610157252936  1.0000
  H   H1        1.0  0.5156681055479782  0.43764473310540253  0.6137376150262219  1.0000
  H   H2        1.0  0.3881951002622172  0.4384208623509911  0.6150706488929678  1.0000
  H   H3        1.0  0.3887755590824759  0.6868794215208913  0.20356664540960923  1.0000
  H   H4        1.0  0.5162602914306347  0.6876551527681538  0.20490017792364523  1.0000
  H   H5        1.0  0.29011407820878815  0.33867713258722176  0.4905363925681774  1.0000
  H   H6        1.0  0.1626424669419978  0.33980451968298353  0.4915802195148007  1.0000
  H   H7        1.0  0.16458197387091517  0.7854951191823893  0.32705679678286237  1.0000
  H   H8        1.0  0.29206805062704694  0.7866228190427367  0.3281003772598794  1.0000
  C   C15       1.0  0.8376981106361739  0.13917232152981218  0.40968748988070014  1.0000
  C   C16       1.0  0.8285783816161212  0.22138176902948012  0.2779948355784694  1.0000
  C   C17       1.0  0.8259289815128628  0.15511510586978572  0.14753225520913027  1.0000
  C   C18       1.0  0.8323798640715484  0.005695729595942333  0.1462851138574004  1.0000
  C   C19       1.0  0.8402719494416023  0.9217734485984126  0.27598635306372815  1.0000
  C   C20       1.0  0.8418849490822333  0.986116027576785  0.40896299354818755  1.0000
  Br  Br1       1.0  0.8292655455111767  0.9155845984777001  0.9672676589904304  1.0000
  H   H9        1.0  0.8176956834774668  0.4040190811015932  0.6439408779474189  1.0000
  H   H10       1.0  0.8251444608421646  0.338014001873274  0.2755280849824273  1.0000
  H   H11       1.0  0.8195210604202268  0.22035232170568178  0.04716632068279458  1.0000
  H   H12       1.0  0.8434827482188137  0.8055030394896894  0.27287983300152363  1.0000
  H   H13       1.0  0.8805888542896012  0.6903813411339953  0.6333763578196103  1.0000
  C   C21       1.0  0.839107616615375  0.5584999678647171  0.9862020587006365  1.0000
  C   C22       1.0  0.7775162123067999  0.5932162376787111  0.056783210550633186  1.0000
  C   C23       1.0  0.7190720572694913  0.6398111648515248  0.9780423736488051  1.0000
  C   C24       1.0  0.7211218864929595  0.6526335687875104  0.8275355617321174  1.0000
  C   C25       1.0  0.7813430081576053  0.6163595041771484  0.7552286802311904  1.0000
  C   C26       1.0  0.8404754634415559  0.5667884571623438  0.8324484915904327  1.0000
  Br  Br2       1.0  0.6411361645822049  0.7175657789589054  0.7202298063157153  1.0000
  H   H14       1.0  0.9340746939762551  0.427517202652417  0.2771482709499986  1.0000
  H   H15       1.0  0.6723503044885266  0.6673059427157573  0.03433625010865083  1.0000
  H   H16       1.0  0.7812700358162934  0.6237258157222882  0.6381719161794916  1.0000
  H   H17       1.0  0.9547614000263986  0.5518974820359255  0.5530664787330797  1.0000
  Zn  Zn1       1.0  0.7636346533609311  0.562645910192773  0.4093273674707014  1.0000
  Zn  Zn2       1.0  0.9159417440752113  0.5626417672227282  0.4093225022759981  1.0000
  C   C27       1.0  0.8401869407653101  0.5594767910543681  0.6724946940131771  1.0000
  C   C28       1.0  0.839391129082974  0.5658127072472756  0.14615531554616834  1.0000
  C   C29       1.0  0.8410806868904983  0.8259694246776301  0.40335820088569174  1.0000
  C   C30       1.0  0.8384973225452319  0.2993183417958811  0.4152918869765508  1.0000
  O   O1        1.0  0.8972859945271076  0.5682590658322214  0.19983524879992975  1.0000
  O   O2        1.0  0.897889626978725  0.5570261960908949  0.6188106543430787  1.0000
  O   O3        1.0  0.898610561531186  0.7722223826963941  0.40148103069959906  1.0000
  O   O4        1.0  0.8965650078789277  0.35306288848598766  0.41716476440048256  1.0000
  O   O5        1.0  0.7830113375822751  0.7722247889324227  0.401485105340297  1.0000
  O   O6        1.0  0.7822904114674284  0.557030334157965  0.6188146506749599  1.0000
  O   O7        1.0  0.7816867760135422  0.5682631366791595  0.19983751282367557  1.0000
  O   O8        1.0  0.7809657894861413  0.3530669500765695  0.41716713646123615  1.0000
