data_image0
_chemical_formula_structural       NC8NC6H8C6SCH8C7F3H5Zn2C4O8
_chemical_formula_sum              "N2 C32 H21 S1 F3 Zn2 O8"
_cell_length_a       17.457602349358154
_cell_length_b       10.302809429070853
_cell_length_c       9.272291681409872
_cell_angle_alpha    86.06047360622541
_cell_angle_beta     93.27365386630078
_cell_angle_gamma    91.68806441137123

_space_group_name_H-M_alt    "P 1"
_space_group_IT_number       1

loop_
  _space_group_symop_operation_xyz
  'x, y, z'

loop_
  _atom_site_type_symbol
  _atom_site_label
  _atom_site_symmetry_multiplicity
  _atom_site_fract_x
  _atom_site_fract_y
  _atom_site_fract_z
  _atom_site_occupancy
  N   N1        1.0  0.7166069621249925  0.4401262193078286  0.47474392363531304  1.0000
  C   C1        1.0  0.6554840651124856  0.39412044921095396  0.462955237911645  1.0000
  C   C2        1.0  0.5794446386139183  0.33689506898107324  0.44830070915278925  1.0000
  C   C3        1.0  0.5212332639143363  0.37771292938177625  0.531474070600283  1.0000
  C   C4        1.0  0.4466345227152058  0.32261064106471515  0.5175018709512351  1.0000
  C   C5        1.0  0.3848509817139298  0.36571041900695317  0.6055856152139244  1.0000
  C   C6        1.0  0.31006811022346953  0.38367546638841704  0.5436606134640476  1.0000
  C   C7        1.0  0.2518571899691843  0.4243104215352737  0.6269538567613073  1.0000
  C   C8        1.0  0.1756267787292814  0.44286136341096677  0.5625686005519657  1.0000
  N   N2        1.0  0.11435044523989904  0.45776994430036305  0.5108030222977866  1.0000
  C   C9        1.0  0.26793913249931045  0.4472279338462253  0.7727368071376599  1.0000
  C   C10       1.0  0.3419389417692464  0.4296552120482844  0.8350922339360218  1.0000
  C   C11       1.0  0.40014019593870037  0.38920434044895713  0.7523072870393732  1.0000
  C   C12       1.0  0.43152973243689313  0.22600049433752928  0.41876506229737087  1.0000
  C   C13       1.0  0.48973108333312537  0.18546479760511647  0.3360359018008152  1.0000
  C   C14       1.0  0.5635473883796656  0.24068433473187634  0.3506188169679094  1.0000
  H   H1        1.0  0.5338595381891246  0.45347867237634576  0.6054670176804182  1.0000
  H   H2        1.0  0.2972909481833455  0.3677993187549169  0.4303631203982208  1.0000
  H   H3        1.0  0.2233273794180641  0.4786262336837841  0.8380736019560551  1.0000
  H   H4        1.0  0.354200811611073  0.44708520797912543  0.94797522357207  1.0000
  H   H5        1.0  0.45682111183689916  0.3746286268815393  0.8035081917183466  1.0000
  H   H6        1.0  0.374999960427844  0.18058388796175073  0.4069362689597882  1.0000
  H   H7        1.0  0.4776135428613296  0.1108044772335932  0.26071222701265473  1.0000
  H   H8        1.0  0.6081613504777267  0.20842116694902524  0.28584962303032885  1.0000
  C   C15       1.0  0.9154824124071825  0.06769486195172325  0.4927800728199865  1.0000
  C   C16       1.0  0.959272342522415  0.07630284431835754  0.3698953949653503  1.0000
  C   C17       1.0  0.9808495358187337  0.9635962116413187  0.30856942314479197  1.0000
  C   C18       1.0  0.9592722454551498  0.8411516814820066  0.36989530868615883  1.0000
  C   C19       1.0  0.9154823817880302  0.8301917219029783  0.4927800624757106  1.0000
  C   C20       1.0  0.8937814383896835  0.9440999803616376  0.5535927493230495  1.0000
  S   S1        1.0  0.036939872085972596  0.9760924284109577  0.15174742763168148  1.0000
  C   C21       1.0  0.953317369407818  0.9797443707290515  0.025189156519874075  1.0000
  H   H9        1.0  0.8989547474186489  0.3917648790208074  0.5390560646927474  1.0000
  H   H10       1.0  0.9766652192286872  0.17028871861464756  0.32108359521203056  1.0000
  H   H11       1.0  0.9766650494377598  0.7549383167104474  0.3210834674743374  1.0000
  H   H12       1.0  0.8599917380527321  0.936553557535138  0.6483632190463114  1.0000
  H   H13       1.0  0.8989534877405928  0.49874904268441284  0.5390543651675996  1.0000
  H   H14       1.0  0.9181710962989916  0.8888814636815423  0.04122705611177557  1.0000
  H   H15       1.0  0.9181718130422766  0.06511645301624314  0.04122659702185527  1.0000
  H   H16       1.0  0.9726994809586843  0.9876485795619934  0.9129938317610762  1.0000
  C   C22       1.0  0.9138669781681471  0.4455390167439919  0.06927287963159556  1.0000
  C   C23       1.0  0.9654829739280112  0.3661201350058132  0.15417172568735094  1.0000
  C   C24       1.0  0.02126935777320016  0.2985198195587788  0.09043225980176905  1.0000
  C   C25       1.0  0.027672621462866642  0.3101227304207179  0.9401204337330409  1.0000
  C   C26       1.0  0.9745274032390182  0.38517262761233423  0.8539127524982008  1.0000
  C   C27       1.0  0.917097798822927  0.452347587410284  0.9162871632997511  1.0000
  C   C28       1.0  0.08659377331312146  0.23410832778299095  0.8708768526480704  1.0000
  F   F1        1.0  0.15085538341190974  0.21503744885841589  0.9636219030935357  1.0000
  F   F2        1.0  0.10956491600895778  0.30009882577606795  0.7448869648580988  1.0000
  F   F3        1.0  0.05497359582126827  0.11439769195384963  0.8380511455344666  1.0000
  H   H17       1.0  0.8057905909121732  0.7030954963123983  0.13956537849883643  1.0000
  H   H18       1.0  0.9637116329895493  0.3582903926706504  0.2710578254709257  1.0000
  H   H19       1.0  0.05993113053509581  0.23790544737233588  0.1591506510171543  1.0000
  H   H20       1.0  0.9767155390039051  0.38873273688122434  0.7371233336722888  1.0000
  H   H21       1.0  0.7431713659533115  0.5690044545583219  0.7871768033103419  1.0000
  Zn  Zn1       1.0  0.8313871714145632  0.445214402502184  0.48515812758013976  1.0000
  Zn  Zn2       1.0  0.9995702667385518  0.4526712114215798  0.5004006256914363  1.0000
  C   C29       1.0  0.9164854013195847  0.4458884060269448  0.7561832038291342  1.0000
  C   C30       1.0  0.9144738739275526  0.4519989285860706  0.2293758574403972  1.0000
  C   C31       1.0  0.9154565118911175  0.6860172018728403  0.4870326762790407  1.0000
  C   C32       1.0  0.9155027062602401  0.21186857098371847  0.49852645667837064  1.0000
  O   O1        1.0  0.9785021618706207  0.4569910901102387  0.288892327948554  1.0000
  O   O2        1.0  0.9801041896519904  0.44655480717088686  0.7082350215470707  1.0000
  O   O3        1.0  0.9792724937601659  0.6404618205663217  0.4908939882873586  1.0000
  O   O4        1.0  0.9793337999604836  0.26308408258849925  0.506233247873235  1.0000
  O   O5        1.0  0.8516235807999659  0.6348015287919737  0.47932550018923864  1.0000
  O   O6        1.0  0.8524552763949043  0.4408960746097048  0.6966664565519678  1.0000
  O   O7        1.0  0.8508532420507421  0.45133229837130595  0.27732202903497627  1.0000
  O   O8        1.0  0.8516848805499017  0.25742528243258045  0.4946630570855861  1.0000
