data_image0
_chemical_formula_structural       NC10NC4H8C7ONC2H11C7OIH4Zn2C4O8
_chemical_formula_sum              "N3 C34 H23 O10 I1 Zn2"
_cell_length_a       19.240039092071726
_cell_length_b       10.299288639353465
_cell_length_c       10.297413674417344
_cell_angle_alpha    85.56151677804391
_cell_angle_beta     90.01513813472472
_cell_angle_gamma    89.979570775042

_space_group_name_H-M_alt    "P 1"
_space_group_IT_number       1

loop_
  _space_group_symop_operation_xyz
  'x, y, z'

loop_
  _atom_site_type_symbol
  _atom_site_label
  _atom_site_symmetry_multiplicity
  _atom_site_fract_x
  _atom_site_fract_y
  _atom_site_fract_z
  _atom_site_occupancy
  N   N1        1.0  0.6540037450529004  0.4215214469781859  0.5674085082084099  1.0000
  C   C1        1.0  0.5938553738661291  0.4215248107019942  0.5674088165379334  1.0000
  C   C2        1.0  0.5190373338178288  0.4215288635272145  0.567409359541259  1.0000
  C   C3        1.0  0.482580366259199  0.4231370839181823  0.6848468149378533  1.0000
  C   C4        1.0  0.4099096947725431  0.42309101626945883  0.6849776861504908  1.0000
  C   C5        1.0  0.37270504182632275  0.42153359905764054  0.5674107293879485  1.0000
  C   C6        1.0  0.295500001245429  0.42153305720565354  0.5674116216722278  1.0000
  C   C7        1.0  0.2583407274790733  0.3460800681567313  0.663761117638809  1.0000
  C   C8        1.0  0.18567001097718233  0.34611983535670054  0.6636287864570805  1.0000
  C   C9        1.0  0.1491677627187196  0.4215280908160475  0.5674108629509282  1.0000
  C   C10       1.0  0.0743497238691337  0.4215243433310582  0.5674097023864626  1.0000
  N   N2        1.0  0.014201405662975801  0.4215213143424341  0.5674088206832649  1.0000
  C   C11       1.0  0.1856129231135859  0.49693932745761216  0.47119379283128265  1.0000
  C   C12       1.0  0.25828364674293497  0.49698400610805465  0.4710622133188478  1.0000
  C   C13       1.0  0.40987622562214077  0.41997459404412735  0.4498430333435379  1.0000
  C   C14       1.0  0.4825468917725053  0.4199239298156081  0.44997253118678193  1.0000
  H   H1        1.0  0.5103082229908396  0.4247591319101096  0.776301626165173  1.0000
  H   H2        1.0  0.38282915954359037  0.4260358481627403  0.7768637229010878  1.0000
  H   H3        1.0  0.28545646587240037  0.2856843888697902  0.7381950513945025  1.0000
  H   H4        1.0  0.15797733670255318  0.2870854539277603  0.7383713368948834  1.0000
  H   H5        1.0  0.15787577262899383  0.5559713359463467  0.3964505734142583  1.0000
  H   H6        1.0  0.2853544924754045  0.5573811121763199  0.3966282158906352  1.0000
  H   H7        1.0  0.3827701763442912  0.4170308093192787  0.3579575932951687  1.0000
  H   H8        1.0  0.5102488605152722  0.4182995100485001  0.35851722903697714  1.0000
  C   C15       1.0  0.8341726310257879  0.040142067593068154  0.5673564573497094  1.0000
  C   C16       1.0  0.8115982555628379  0.04926551758758846  0.43724460933739584  1.0000
  C   C17       1.0  0.8006185706754341  0.9367148622719766  0.3710619604636234  1.0000
  C   C18       1.0  0.81145275615393  0.8139890749612569  0.43740581926828287  1.0000
  C   C19       1.0  0.8340391730206999  0.802890678406812  0.567472090110086  1.0000
  C   C20       1.0  0.8454273192559084  0.9165413784108014  0.6316224756862631  1.0000
  C   C21       1.0  0.7765499769885763  0.9459164119395735  0.23379024733324671  1.0000
  O   O1        1.0  0.7430030112286136  0.8524450116917067  0.19205658532354722  1.0000
  N   N3        1.0  0.7915930746148635  0.05846958687399395  0.14720195546202786  1.0000
  C   C22       1.0  0.761021213945117  0.07471410466360484  0.016862040233629246  1.0000
  C   C23       1.0  0.7851644466405814  0.20143809089105844  0.9443523230966046  1.0000
  H   H9        1.0  0.8422313100599157  0.3641051144888548  0.6174646014408791  1.0000
  H   H10       1.0  0.8013013714345906  0.1441874861325565  0.38853851769791303  1.0000
  H   H11       1.0  0.8028414037479105  0.7269110913718362  0.3869742050200174  1.0000
  H   H12       1.0  0.8628563671810229  0.9087700185831294  0.7319585850171668  1.0000
  H   H13       1.0  0.8420706867161689  0.4711717316869799  0.6174361089386784  1.0000
  H   H14       1.0  0.8268164792630599  0.12786467584215022  0.17610859441616378  1.0000
  H   H15       1.0  0.7034341229544211  0.07609555354783026  0.025085994159965933  1.0000
  H   H16       1.0  0.7765216708689884  0.9916583897375613  0.960422988489098  1.0000
  H   H17       1.0  0.7694596159035442  0.28580189921718846  0.9986400266477911  1.0000
  H   H18       1.0  0.8425913177070307  0.20109263949662212  0.9333272899610583  1.0000
  H   H19       1.0  0.7610909753700452  0.21166959304936084  0.8460773205504722  1.0000
  C   C24       1.0  0.8340515839557936  0.4215687659552067  0.18596185170429383  1.0000
  C   C25       1.0  0.7690898762833845  0.48412436114787843  0.1799002018044893  1.0000
  C   C26       1.0  0.7360968543545168  0.5158952646601642  0.05970627929827099  1.0000
  C   C27       1.0  0.7692151181550951  0.4840036187218326  0.9447123502359434  1.0000
  C   C28       1.0  0.8341602355996023  0.4214639522517165  0.9488667408742506  1.0000
  C   C29       1.0  0.8661806359315426  0.3906296359574526  0.06995209988233153  1.0000
  C   C30       1.0  0.6674020161848325  0.5820455909716324  0.055835077753162876  1.0000
  O   O2        1.0  0.6386515262664171  0.6097305432520281  0.1601032185682718  1.0000
  I   I1        1.0  0.6131574677099059  0.6342819853934993  0.880392322875459  1.0000
  H   H20       1.0  0.9567045626340897  0.3034576958739619  0.4046208303287604  1.0000
  H   H21       1.0  0.744125970977637  0.5081636989522516  0.26921581610032996  1.0000
  H   H22       1.0  0.7447500193945343  0.5075622973658747  0.8514092564149136  1.0000
  H   H23       1.0  0.9162559417650604  0.34240910199809704  0.07381773012517612  1.0000
  Zn  Zn1       1.0  0.7579490136981782  0.4215179226622787  0.5674160936368785  1.0000
  Zn  Zn2       1.0  0.9102561371342957  0.4215141820476449  0.5674118546735969  1.0000
  C   C31       1.0  0.8341390404602304  0.4163099538529566  0.8046605583584793  1.0000
  C   C32       1.0  0.8340677732927371  0.4267237894627609  0.330167517648486  1.0000
  C   C33       1.0  0.8340600860760181  0.6587156522464754  0.5622739266799  1.0000
  C   C34       1.0  0.8341466759880456  0.18431653071598328  0.5725542183457577  1.0000
  O   O3        1.0  0.891872967162218  0.42844677700432515  0.37856264695097264  1.0000
  O   O4        1.0  0.891931429249996  0.41458314757365283  0.7562618377045227  1.0000
  O   O5        1.0  0.8918668936101604  0.6103288144984773  0.5605329179248393  1.0000
  O   O6        1.0  0.8919374508144546  0.23270111938463175  0.5742914693375222  1.0000
  O   O7        1.0  0.7762676480430715  0.6103309853279834  0.5605364789675674  1.0000
  O   O8        1.0  0.7763321833968634  0.41458687875910916  0.7562653297231723  1.0000
  O   O9        1.0  0.7762737211408375  0.4284504631471253  0.37856457722018316  1.0000
  O   O10       1.0  0.7763382048057255  0.2327047962249924  0.5742934969944808  1.0000
