data_image0
_chemical_formula_structural       NC10NC5H10C7OC4NC3H8C7OC6H10Zn2C4O8
_chemical_formula_sum              "N3 C46 H28 O10 Zn2"
_cell_length_a       19.4436361288709
_cell_length_b       10.299371701877257
_cell_length_c       10.299382801718286
_cell_angle_alpha    85.59153606020502
_cell_angle_beta     89.6852200800954
_cell_angle_gamma    89.42830201241743

_space_group_name_H-M_alt    "P 1"
_space_group_IT_number       1

loop_
  _space_group_symop_operation_xyz
  'x, y, z'

loop_
  _atom_site_type_symbol
  _atom_site_label
  _atom_site_symmetry_multiplicity
  _atom_site_fract_x
  _atom_site_fract_y
  _atom_site_fract_z
  _atom_site_occupancy
  N   N1        1.0  0.6480346975839069  0.40904207900500134  0.5626144253561565  1.0000
  C   C1        1.0  0.5891979336513634  0.4189440731274836  0.5770022010652576  1.0000
  C   C2        1.0  0.5158676099522567  0.43129318761904434  0.5949992587668707  1.0000
  C   C3        1.0  0.4736923391651355  0.3992955808454936  0.5003129574815479  1.0000
  C   C4        1.0  0.3977879629907694  0.4097338875165273  0.5056449861237859  1.0000
  C   C5        1.0  0.35803335471377284  0.38498691802314816  0.6127087494873988  1.0000
  C   C6        1.0  0.2819147470881374  0.38890342234852576  0.599750765579941  1.0000
  C   C7        1.0  0.241345519868178  0.44656535906626593  0.6935436479960251  1.0000
  C   C8        1.0  0.1696837413481872  0.45020301812940094  0.6830010518283098  1.0000
  C   C9        1.0  0.1375963636227314  0.3957827323517394  0.578951952812919  1.0000
  C   C10       1.0  0.06380536497888692  0.39948163327107544  0.5682540967395273  1.0000
  N   N2        1.0  0.004482407033224297  0.402455355516663  0.5596537297310102  1.0000
  C   C11       1.0  0.17744058926642683  0.3374137099776333  0.48554204196598216  1.0000
  C   C12       1.0  0.24911882289793133  0.3337218250609999  0.49583283886151897  1.0000
  C   C13       1.0  0.3861463970724098  0.3445272953016416  0.7437889480988165  1.0000
  C   C14       1.0  0.4448080402275221  0.3876494262150292  0.7910479229653401  1.0000
  C   C15       1.0  0.48903339754721237  0.4855067657775564  0.716716824149976  1.0000
  H   H1        1.0  0.4957998722482001  0.3701778564205244  0.4099946711961239  1.0000
  H   H2        1.0  0.37310303749207924  0.4322277576878193  0.4124945417761974  1.0000
  H   H3        1.0  0.2652098894625893  0.48985675779357485  0.7744087130183177  1.0000
  H   H4        1.0  0.1393340034163031  0.4955180756278712  0.7559393653593527  1.0000
  H   H5        1.0  0.1531043134651557  0.2943179707982484  0.40501153538317153  1.0000
  H   H6        1.0  0.2788026572680983  0.28616339011089775  0.42359001946289854  1.0000
  H   H7        1.0  0.3551672410908225  0.28031091162454835  0.8080121037009372  1.0000
  H   H8        1.0  0.4599428389953134  0.3535830593839999  0.8889701327081604  1.0000
  H   H9        1.0  0.45893565499195393  0.576220569468616  0.6914988535278397  1.0000
  H   H10       1.0  0.5323130088561683  0.5110931747251299  0.7798117872258453  1.0000
  C   C16       1.0  0.8262258887862919  0.024378867078469257  0.5610073804430449  1.0000
  C   C17       1.0  0.8295923414299164  0.03363239935308849  0.4243170975022567  1.0000
  C   C18       1.0  0.830509325647211  0.921145131957239  0.35531839713346103  1.0000
  C   C19       1.0  0.829600792193898  0.7983639858530129  0.42463441720972367  1.0000
  C   C20       1.0  0.8262977919834973  0.7871084451822646  0.5612719902767991  1.0000
  C   C21       1.0  0.8244484955815411  0.9007203311244474  0.6286535607287538  1.0000
  C   C22       1.0  0.8347863890169589  0.9307591291467336  0.21103559980906006  1.0000
  O   O1        1.0  0.8678993742523207  0.8443903085211154  0.15581572972597768  1.0000
  C   C23       1.0  0.8014872547429376  0.038272659108181  0.1294015389094756  1.0000
  C   C24       1.0  0.8309657760825052  0.08235014275032702  0.009188677641654536  1.0000
  C   C25       1.0  0.7994800399091625  0.18282067776355415  0.93066089963258  1.0000
  C   C26       1.0  0.8302932686109796  0.2280571464596608  0.8082508443162846  1.0000
  N   N3        1.0  0.8550657303264413  0.26441766649144216  0.709850885257564  1.0000
  C   C27       1.0  0.7380024702516673  0.23914253035698138  0.9713426163561384  1.0000
  C   C28       1.0  0.7079436567838469  0.19486482281261971  0.08982078043183761  1.0000
  C   C29       1.0  0.7392319164588761  0.0946954092619523  0.16833880128004797  1.0000
  H   H11       1.0  0.8322755420871413  0.12849681666065105  0.3714091818293712  1.0000
  H   H12       1.0  0.8308174497655051  0.711494223490093  0.37161304867266143  1.0000
  H   H13       1.0  0.8218535828390503  0.892782635326241  0.7340320228016628  1.0000
  H   H14       1.0  0.8256078166583632  0.45531347715160514  0.6138020029746933  1.0000
  H   H15       1.0  0.8786691166235132  0.039371684050279125  0.977216158463075  1.0000
  H   H16       1.0  0.7132189977016381  0.3168056425206025  0.9113101119786563  1.0000
  H   H17       1.0  0.6601230838917707  0.23786142092542503  0.12064128886128422  1.0000
  H   H18       1.0  0.714367308235747  0.06046158266501678  0.2586999629348774  1.0000
  C   C30       1.0  0.8263304426126199  0.4056691741436118  0.1797693042895232  1.0000
  C   C31       1.0  0.8985875783014095  0.4051974187436387  0.17786578492941096  1.0000
  C   C32       1.0  0.935031888214967  0.4034713995049348  0.059847071931569136  1.0000
  C   C33       1.0  0.8984199782437595  0.40522855261045393  0.9426216180696714  1.0000
  C   C34       1.0  0.8261932091490577  0.4058181660216955  0.9425100292275722  1.0000
  C   C35       1.0  0.7905673750158798  0.40569033448816527  0.06164609819574918  1.0000
  C   C36       1.0  0.011326161664240162  0.40435724164386405  0.05758568151271204  1.0000
  O   O2        1.0  0.041636365959014654  0.46450620203802595  0.9628281818166236  1.0000
  C   C37       1.0  0.05323519390496556  0.3369994205712463  0.1627205978312709  1.0000
  C   C38       1.0  0.11788695973126684  0.3862646768739907  0.19330256756566455  1.0000
  C   C39       1.0  0.1581188853223272  0.32258717273832915  0.29120092805636566  1.0000
  C   C40       1.0  0.13454125027687547  0.20871894333454752  0.35872095414862337  1.0000
  C   C41       1.0  0.07080138257101698  0.15798986902773482  0.32810788812905933  1.0000
  C   C42       1.0  0.030373489677912868  0.22129228091348382  0.23031308435118847  1.0000
  H   H19       1.0  0.6899706007715847  0.40857114387039806  0.39052677171412425  1.0000
  H   H20       1.0  0.9266077021126901  0.4076301243871906  0.2682329214423864  1.0000
  H   H21       1.0  0.926446900618757  0.40488199974380823  0.8514374047424189  1.0000
  H   H22       1.0  0.7348625677009253  0.406054821066526  0.06230933317881138  1.0000
  H   H23       1.0  0.7984469742634077  0.4071496486054742  0.614925734342886  1.0000
  H   H24       1.0  0.13699041003400203  0.47458497603514205  0.14223925212721844  1.0000
  H   H25       1.0  0.20763154580178902  0.36155610442662045  0.3146762392962823  1.0000
  H   H26       1.0  0.16578104869601057  0.159514261451942  0.43438796283450737  1.0000
  H   H27       1.0  0.0528174226745699  0.0691929729999512  0.37979050858817875  1.0000
  H   H28       1.0  0.9816863913896452  0.17902591511738575  0.20664355349541094  1.0000
  Zn  Zn1       1.0  0.7508978064250326  0.4071378229772195  0.5617675435171254  1.0000
  Zn  Zn2       1.0  0.9016192867858869  0.40434900592333856  0.5605112891108601  1.0000
  C   C43       1.0  0.8262171478888124  0.40061633452919  0.798333951355978  1.0000
  C   C44       1.0  0.8263015913275262  0.41087210256581547  0.32394499558917933  1.0000
  C   C45       1.0  0.8262815897357577  0.6429353896275736  0.5560468148153579  1.0000
  C   C46       1.0  0.8262370978903324  0.16855148812642295  0.5662322012560492  1.0000
  O   O3        1.0  0.883489924343937  0.4115542455813159  0.37185493068477093  1.0000
  O   O4        1.0  0.8834229309835229  0.3978165641008542  0.7494701740464078  1.0000
  O   O5        1.0  0.8834741972903748  0.5934922801662308  0.5538216039634531  1.0000
  O   O6        1.0  0.8834386066244455  0.21587853973879745  0.5675034038245808  1.0000
  O   O7        1.0  0.7690784351526312  0.5956082901148594  0.5547754292252722  1.0000
  O   O8        1.0  0.7690271690021852  0.39993413434359104  0.750423930603844  1.0000
  O   O9        1.0  0.769094162684953  0.41367177026215285  0.37280712581942677  1.0000
  O   O10       1.0  0.7690428449442582  0.21799605514987525  0.5684556963242493  1.0000
