data_image0
_chemical_formula_structural       NC5NC3H4C6NH7C6SCH6Zn2C4O8
_chemical_formula_sum              "N3 C25 H17 S1 Zn2 O8"
_cell_length_a       13.859018345313864
_cell_length_b       9.274771166103582
_cell_length_c       9.275274088470228
_cell_angle_alpha    86.00109441054587
_cell_angle_beta     89.72578063474123
_cell_angle_gamma    90.59704768766964

_space_group_name_H-M_alt    "P 1"
_space_group_IT_number       1

loop_
  _space_group_symop_operation_xyz
  'x, y, z'

loop_
  _atom_site_type_symbol
  _atom_site_label
  _atom_site_symmetry_multiplicity
  _atom_site_fract_x
  _atom_site_fract_y
  _atom_site_fract_z
  _atom_site_occupancy
  N   N1        1.0  0.9245942310039744  0.5635347827015813  0.4075158291972798  1.0000
  C   C1        1.0  0.85180292969147  0.5244701096278501  0.4588289797515721  1.0000
  C   C2        1.0  0.7612548577450466  0.4758788891707098  0.5226557134814576  1.0000
  C   C3        1.0  0.6741693390961303  0.5232496413500634  0.46043246414271  1.0000
  C   C4        1.0  0.5860245516408747  0.4758785974646409  0.5226555884942576  1.0000
  C   C5        1.0  0.4965630495850017  0.5244699959900512  0.4588288826703904  1.0000
  N   N2        1.0  0.42464532842630043  0.5635347481396766  0.4075157602507169  1.0000
  C   C6        1.0  0.5851476050961544  0.3811227931959001  0.6471205788144041  1.0000
  C   C7        1.0  0.6720526210811916  0.3339343932108003  0.7091043780507835  1.0000
  C   C8        1.0  0.7600129500711503  0.38112309036158076  0.6471207818790348  1.0000
  H   H1        1.0  0.6749893261171637  0.59659321870704  0.36409321375121073  1.0000
  H   H2        1.0  0.5174352523667107  0.34383716110085816  0.6960961041846985  1.0000
  H   H3        1.0  0.671234235394654  0.2607397184019409  0.8052482338542764  1.0000
  H   H4        1.0  0.8268915163994407  0.3438376952226203  0.6960965284112763  1.0000
  C   C9        1.0  0.17165960739493882  0.1399456538108479  0.4083013097253556  1.0000
  C   C10       1.0  0.14986037897279522  0.22203038679359932  0.27942929444151  1.0000
  C   C11       1.0  0.13707252936601688  0.15574921540191822  0.1497396414771015  1.0000
  C   C12       1.0  0.14613743829267212  0.005996916063665262  0.14798264951428441  1.0000
  C   C13       1.0  0.16615797146676267  0.9225759407784395  0.2750843401965817  1.0000
  C   C14       1.0  0.17758906435591104  0.9871128893163003  0.40674282967879605  1.0000
  N   N3        1.0  0.11587056471516077  0.24091999356629734  0.01945124801556308  1.0000
  H   H5        1.0  0.2792609615265067  0.2226015110654167  0.7236907752024078  1.0000
  H   H6        1.0  0.14499701834556777  0.33861783782837906  0.2788757264121138  1.0000
  H   H7        1.0  0.13675515647603942  0.9535619584945124  0.04819954594995446  1.0000
  H   H8        1.0  0.1704231881109623  0.8063727243401374  0.2709570893997919  1.0000
  H   H9        1.0  0.2461453820223462  0.6920846065103184  0.6213193357170796  1.0000
  H   H10       1.0  0.10922273611069033  0.35299345121686  0.0194044417071284  1.0000
  H   H11       1.0  0.10657168824921849  0.19252475357915452  0.9220381118939912  1.0000
  C   C15       1.0  0.17595116396080535  0.5595098200272925  0.9843325349151799  1.0000
  C   C16       1.0  0.25847566022597523  0.6102832241547538  0.05358746700814932  1.0000
  C   C17       1.0  0.33572145066046755  0.6725486838254542  0.9734088487822987  1.0000
  C   C18       1.0  0.33172515351250675  0.6841790798536111  0.8228273269700219  1.0000
  C   C19       1.0  0.251254886922462  0.6323137992069099  0.7520714914080648  1.0000
  C   C20       1.0  0.17329749775638836  0.5675487121858396  0.8307115701099432  1.0000
  S   S1        1.0  0.4398091031637239  0.7379492337660645  0.06397687912977434  1.0000
  C   C21       1.0  0.391477502023798  0.9184984375943648  0.0753768962450232  1.0000
  H   H12       1.0  0.9418817812881354  0.5001581451622146  0.09314644875186473  1.0000
  H   H13       1.0  0.3913530765085199  0.7325095447716745  0.7602405380532846  1.0000
  H   H14       1.0  0.016817130299197066  0.5217038936692306  0.5538811186796604  1.0000
  H   H15       1.0  0.3780373987713299  0.968907407568413  0.9653220699234097  1.0000
  H   H16       1.0  0.3232245154064186  0.9130799574812897  0.13875243611133126  1.0000
  H   H17       1.0  0.44466056323838177  0.9858018197020609  0.13025239703519764  1.0000
  Zn  Zn1       1.0  0.06889812122314833  0.5635309800197208  0.4075241477143521  1.0000
  Zn  Zn2       1.0  0.2803412947085857  0.5635268249383756  0.40751929984075885  1.0000
  C   C22       1.0  0.1737567197773109  0.5602827260027752  0.6707383836513698  1.0000
  C   C23       1.0  0.17548501740245048  0.5667769002797036  0.14430520194686758  1.0000
  C   C24       1.0  0.17648129769826748  0.8269256740460451  0.4012947139711147  1.0000
  C   C25       1.0  0.1727603549600421  0.3001322199285148  0.4137489516482842  1.0000
  O   O1        1.0  0.25557011270608254  0.569207928987354  0.1979916622053226  1.0000
  O   O2        1.0  0.25415209437143016  0.5578474515596894  0.6170478311292475  1.0000
  O   O3        1.0  0.2563511391065201  0.7731650185185323  0.3994701587693439  1.0000
  O   O4        1.0  0.25337099623076287  0.3538903713223658  0.41556922649520245  1.0000
  O   O5        1.0  0.09586834754582818  0.773167433638647  0.39947422105397945  1.0000
  O   O6        1.0  0.09366931517704713  0.5578515989906396  0.6170518133867939  1.0000
  O   O7        1.0  0.09508733865638264  0.5692120096958222  0.19799391193272564  1.0000
  O   O8        1.0  0.09288822176614996  0.3538944427398958  0.4155715842867014  1.0000
