data_image0
_chemical_formula_structural       NC8NH4C10H6C6H6Zn2C4O8
_chemical_formula_sum              "N2 C28 H16 Zn2 O8"
_cell_length_a       13.859017124695912
_cell_length_b       9.275150299802176
_cell_length_c       10.68112160042829
_cell_angle_alpha    85.23622488855405
_cell_angle_beta     89.99985505477505
_cell_angle_gamma    89.4839206584006

_space_group_name_H-M_alt    "P 1"
_space_group_IT_number       1

loop_
  _space_group_symop_operation_xyz
  'x, y, z'

loop_
  _atom_site_type_symbol
  _atom_site_label
  _atom_site_symmetry_multiplicity
  _atom_site_fract_x
  _atom_site_fract_y
  _atom_site_fract_z
  _atom_site_occupancy
  N   N1        1.0  0.8990734297625403  0.5790670295854016  0.6108858815543194  1.0000
  C   C1        1.0  0.8268568799984262  0.5561965905940687  0.5622026355642871  1.0000
  C   C2        1.0  0.7370237678214921  0.5277491112651622  0.5016469323505381  1.0000
  C   C3        1.0  0.6492412829611337  0.5554825259976788  0.5606811207067912  1.0000
  C   C4        1.0  0.5617934405694931  0.5277503376963815  0.5016464230007713  1.0000
  C   C5        1.0  0.562310537246206  0.4722772311544363  0.3835594109882396  1.0000
  C   C6        1.0  0.6499098188712311  0.4446504083313052  0.32475246181913464  1.0000
  C   C7        1.0  0.7371759102890136  0.4722748805319779  0.38356044634473146  1.0000
  C   C8        1.0  0.4716170356928274  0.5561975176068008  0.5622021983095649  1.0000
  N   N2        1.0  0.3991245534054593  0.5790673523553371  0.6108856922905026  1.0000
  H   H1        1.0  0.648982235739298  0.5984208777162532  0.6520832929982042  1.0000
  H   H2        1.0  0.4951467813481064  0.4504500127471758  0.3370930324010859  1.0000
  H   H3        1.0  0.6501684029792782  0.4017997653041503  0.233535390663393  1.0000
  H   H4        1.0  0.8046030248048691  0.4504455603553932  0.3370949462628916  1.0000
  C   C9        1.0  0.1516495010008332  0.15536165802627422  0.612982310926903  1.0000
  C   C10       1.0  0.2023918452358353  0.23741449887670907  0.5182383746785517  1.0000
  C   C11       1.0  0.2448592276054642  0.1712657493899048  0.41867967895377073  1.0000
  C   C12       1.0  0.23701519437682528  0.022098278436725856  0.412582558187182  1.0000
  C   C13       1.0  0.1883793958688944  0.938601602804048  0.5067636666651996  1.0000
  C   C14       1.0  0.14655774972000724  0.0027616208141674195  0.608800168998751  1.0000
  C   C15       1.0  0.295613291730608  0.2570607443968578  0.3217695194304182  1.0000
  C   C16       1.0  0.3381072700742984  0.3289163808002292  0.24063551712474116  1.0000
  C   C17       1.0  0.38786574679278796  0.4130642727221409  0.14563113885324452  1.0000
  C   C18       1.0  0.4303515317483558  0.48491442684839925  0.06451268936553722  1.0000
  H   H5        1.0  0.10589569596573689  0.4176838552104347  0.8118461809037043  1.0000
  H   H6        1.0  0.20702786520914596  0.35386285136144013  0.5201730097266843  1.0000
  H   H7        1.0  0.269359902543175  0.9699537555560421  0.33554504577798644  1.0000
  H   H8        1.0  0.1854285376381377  0.822601582949737  0.5013569884675646  1.0000
  H   H9        1.0  0.08385990593935432  0.8722884099920257  0.9063434261613735  1.0000
  H   H10       1.0  0.467657595032845  0.5480049616495013  0.9932839907583526  1.0000
  C   C19       1.0  0.1491036617423669  0.579061633691826  0.2431460099479268  1.0000
  C   C20       1.0  0.08052320430562832  0.4988154193018679  0.18211957785858446  1.0000
  C   C21       1.0  0.08052314350704193  0.4988155118188036  0.05123743744911446  1.0000
  C   C22       1.0  0.14910358546455948  0.5790617044202475  0.9786364452752325  1.0000
  C   C23       1.0  0.2176274401792775  0.6592414187304089  0.039662625229598396  1.0000
  C   C24       1.0  0.21762742796875292  0.6592413963569561  0.17055492400306682  1.0000
  H   H11       1.0  0.21845667903613086  0.6602126056205455  0.5360032313747036  1.0000
  H   H12       1.0  0.02676660420461152  0.43591464385715667  0.2354668600020908  1.0000
  H   H13       1.0  0.0267665836449289  0.43591471177466806  0.006962830441374244  1.0000
  H   H14       1.0  0.2713910597643163  0.722150482877862  0.9863596375448522  1.0000
  H   H15       1.0  0.27139101145345745  0.7221504322977588  0.21478400527890007  1.0000
  H   H16       1.0  0.21845698320125617  0.6602121029249188  0.6740742081421089  1.0000
  Zn  Zn1       1.0  0.04337740850232817  0.5790632704821138  0.610893081551094  1.0000
  Zn  Zn2       1.0  0.2548206377510811  0.579059341473838  0.61088882154816  1.0000
  C   C25       1.0  0.1491360108283779  0.5733136445087594  0.839641388386668  1.0000
  C   C26       1.0  0.14906433343962555  0.5848107879307425  0.38214062859423215  1.0000
  C   C27       1.0  0.14751525718403857  0.8425850113874059  0.6046003807650686  1.0000
  C   C28       1.0  0.15068502534923536  0.3155376875381429  0.6171817115378588  1.0000
  O   O1        1.0  0.22929277587884256  0.5867324708661474  0.42878690676061665  1.0000
  O   O2        1.0  0.22938809346600242  0.5713878910632526  0.7929915218574974  1.0000
  O   O3        1.0  0.22807823270569783  0.7888279252391477  0.6031942378665316  1.0000
  O   O4        1.0  0.23060256442588267  0.3692924470131397  0.6185840968059556  1.0000
  O   O5        1.0  0.06759540967232036  0.7888301649457234  0.6031978062881576  1.0000
  O   O6        1.0  0.06890526001214892  0.5713918642866935  0.7929950149519553  1.0000
  O   O7        1.0  0.06880994279136421  0.5867363938095755  0.4287888944806342  1.0000
  O   O8        1.0  0.07011973139646253  0.36929635963659285  0.6185861784664595  1.0000
