data_image0
_chemical_formula_structural       NC9NC5H8C6SCOC6H10C7OC4NC3H9Zn2C4O8
_chemical_formula_sum              "N3 C45 H27 S1 O10 Zn2"
_cell_length_a       17.807436237873137
_cell_length_b       10.30203810924657
_cell_length_c       10.299375074045738
_cell_angle_alpha    85.54623755187913
_cell_angle_beta     89.38493469783968
_cell_angle_gamma    88.40854036149848

_space_group_name_H-M_alt    "P 1"
_space_group_IT_number       1

loop_
  _space_group_symop_operation_xyz
  'x, y, z'

loop_
  _atom_site_type_symbol
  _atom_site_label
  _atom_site_symmetry_multiplicity
  _atom_site_fract_x
  _atom_site_fract_y
  _atom_site_fract_z
  _atom_site_occupancy
  N   N1        1.0  0.7077674980006459  0.3879546433653924  0.5572221811989411  1.0000
  C   C1        1.0  0.6471741556438579  0.3527777852798554  0.5461935782021323  1.0000
  C   C2        1.0  0.5718026975258975  0.30902164770612395  0.5324751935534866  1.0000
  C   C3        1.0  0.553705077479714  0.23766380477278012  0.42745878377811386  1.0000
  C   C4        1.0  0.48052326578732335  0.1950685295633583  0.4140564709178034  1.0000
  C   C5        1.0  0.4243902874739822  0.22345367338778385  0.5056380701304378  1.0000
  C   C6        1.0  0.3466169024581514  0.1783007233349754  0.49147697429590886  1.0000
  C   C7        1.0  0.2844540319902106  0.26002687046563744  0.5174267882785044  1.0000
  C   C8        1.0  0.211129876671272  0.21722860232287355  0.5040381332989591  1.0000
  C   C9        1.0  0.14791739344891844  0.3016452976729484  0.5303521850005889  1.0000
  N   N2        1.0  0.0971075441913252  0.3695104800389191  0.5515079553575126  1.0000
  C   C10       1.0  0.1993850006026393  0.09244628055720903  0.4646742829586865  1.0000
  C   C11       1.0  0.2606904992343445  0.010706287719702163  0.43871607723479256  1.0000
  C   C12       1.0  0.3338951627322106  0.05311018881509619  0.45190213741527885  1.0000
  C   C13       1.0  0.4431793893043672  0.29530567769418536  0.6108737785328984  1.0000
  C   C14       1.0  0.51641404738329  0.33771066427184804  0.6241204105595625  1.0000
  H   H1        1.0  0.596100660107811  0.21521114278995235  0.3557398557198531  1.0000
  H   H2        1.0  0.467606319869474  0.14143076882452418  0.33112561855685985  1.0000
  H   H3        1.0  0.2929677069013653  0.3574567207841097  0.5463167094787391  1.0000
  H   H4        1.0  0.14291434965784167  0.058422658872036674  0.45407487629968113  1.0000
  H   H5        1.0  0.2514787137110622  0.9140967852754627  0.40862578222079826  1.0000
  H   H6        1.0  0.3805250328720636  0.9873886275679961  0.43284506854369686  1.0000
  H   H7        1.0  0.4015004989535034  0.3172189368763702  0.6838872051892879  1.0000
  H   H8        1.0  0.5298596407827182  0.39256909999339473  0.7060097285304339  1.0000
  C   C15       1.0  0.9023699587418905  0.9974573543599584  0.5543259207898547  1.0000
  C   C16       1.0  0.8381520771387182  0.0052991288361861014  0.4757454993553163  1.0000
  C   C17       1.0  0.8065533344432675  0.8922258005207895  0.4361580179710383  1.0000
  C   C18       1.0  0.8383937160301468  0.7701551037735488  0.47568794449320917  1.0000
  C   C19       1.0  0.9025122816526001  0.7599974750756039  0.5544154102171809  1.0000
  C   C20       1.0  0.934208407404602  0.874315799462869  0.593240539884158  1.0000
  S   S1        1.0  0.7250400646128616  0.9036610018053791  0.33474094729056403  1.0000
  C   C21       1.0  0.7802820614529282  0.9095937947995875  0.1875020410909212  1.0000
  O   O1        1.0  0.7983993850703451  0.8034852896655611  0.14088414100869273  1.0000
  C   C22       1.0  0.8050628244529272  0.034610766470679837  0.12163803063669489  1.0000
  C   C23       1.0  0.8581845777033498  0.0344718244516169  0.0193475747974079  1.0000
  C   C24       1.0  0.8823333064137153  0.1516873091391506  0.9572674582504744  1.0000
  C   C25       1.0  0.8537667613201019  0.27026296275696193  0.9961896082400772  1.0000
  C   C26       1.0  0.8008710305493455  0.2718642914760683  0.09712364577053867  1.0000
  C   C27       1.0  0.7764718750114427  0.15496418700338443  0.15952762380275165  1.0000
  H   H9        1.0  0.023326127681006167  0.18998461383947626  0.7026108503429949  1.0000
  H   H10       1.0  0.8125950060189203  0.09904372256756266  0.44484347379731  1.0000
  H   H11       1.0  0.8130787033916664  0.6836148815102268  0.4442938147027613  1.0000
  H   H12       1.0  0.9837161935577305  0.8673500152751715  0.6538174774987147  1.0000
  H   H13       1.0  0.9270211837799185  0.42881493603203014  0.584023543695047  1.0000
  H   H14       1.0  0.8814259527054136  0.9438181531807956  0.9877075767873041  1.0000
  H   H15       1.0  0.9233188126142877  0.15052858839089645  0.8789650535977699  1.0000
  H   H16       1.0  0.872548002376852  0.3608957915325087  0.948037659727464  1.0000
  H   H17       1.0  0.7786143575083746  0.363854868865498  0.12698846352911186  1.0000
  H   H18       1.0  0.7350463682091108  0.1595318889243047  0.23670410048051463  1.0000
  C   C28       1.0  0.9024666711033588  0.3788685198775741  0.17298353300694735  1.0000
  C   C29       1.0  0.960311185077201  0.46921689117202514  0.16370224517647913  1.0000
  C   C30       1.0  0.9889029198664836  0.5158937158502797  0.041772281770121385  1.0000
  C   C31       1.0  0.9601895063072727  0.4689849767253227  0.9284786862613706  1.0000
  C   C32       1.0  0.902415519003813  0.37858632694162786  0.9357578056422957  1.0000
  C   C33       1.0  0.873753750332706  0.3343088039736736  0.05848535861771032  1.0000
  C   C34       1.0  0.05052198367554305  0.6102701961799017  0.031902056741634384  1.0000
  O   O2        1.0  0.09852972765819422  0.6033120376711533  0.9415619685187315  1.0000
  C   C35       1.0  0.05766810344553241  0.7125525751370313  0.12443599595118071  1.0000
  C   C36       1.0  0.1291171631592167  0.7557176984069537  0.1551495136639751  1.0000
  C   C37       1.0  0.13641531679815055  0.8533603008642973  0.24127089937283852  1.0000
  C   C38       1.0  0.20978795400553163  0.8962250207439989  0.2729872693849276  1.0000
  N   N3        1.0  0.2687712871891921  0.9306778107242949  0.2984798957080832  1.0000
  C   C39       1.0  0.07227160342273842  0.9092373838685237  0.29641208441467803  1.0000
  C   C40       1.0  0.001073187264939215  0.8680715553055319  0.26519417630829634  1.0000
  C   C41       1.0  0.9936256729919197  0.7707059483528004  0.17935057389061937  1.0000
  H   H19       1.0  0.7940970702984049  0.2068698590675322  0.3979215311229532  1.0000
  H   H20       1.0  0.9837717102884893  0.5022986189622731  0.2515452799485667  1.0000
  H   H21       1.0  0.9825578768958164  0.5041525031116127  0.834409583670618  1.0000
  H   H22       1.0  0.8291601061752597  0.2646561303321431  0.06483673081846009  1.0000
  H   H23       1.0  0.8806544291674365  0.3430392265665967  0.6111526791048211  1.0000
  H   H24       1.0  0.17905321718647005  0.7126417199204714  0.1130310721206651  1.0000
  H   H25       1.0  0.07729729032471684  0.9848591228893842  0.36302662502478805  1.0000
  H   H26       1.0  0.9515115985831359  0.9121082578187224  0.30715842077606476  1.0000
  H   H27       1.0  0.9378190550944037  0.741963642968956  0.154862541257202  1.0000
  Zn  Zn1       1.0  0.8201226227804828  0.3826285890330101  0.5555806897995932  1.0000
  Zn  Zn2       1.0  0.984752398523639  0.3748259468524723  0.5531601226367661  1.0000
  C   C42       1.0  0.9024225653610302  0.3734673194071115  0.7915765245870938  1.0000
  C   C43       1.0  0.9024542539922856  0.38398876944285365  0.31716438908148126  1.0000
  C   C44       1.0  0.9024818386199783  0.6158632503565005  0.5492231109649339  1.0000
  C   C45       1.0  0.902394924260965  0.1415912812118123  0.5595178725885337  1.0000
  O   O3        1.0  0.9649262275585986  0.38274044558045256  0.36463420820052816  1.0000
  O   O4        1.0  0.9649007821523424  0.3687926390523064  0.7422691770207774  1.0000
  O   O5        1.0  0.9649478037597607  0.5645304582257592  0.5465670933719083  1.0000
  O   O6        1.0  0.96487914978245  0.1870026383934777  0.5603361952971472  1.0000
  O   O7        1.0  0.8399958153416096  0.5704519001560792  0.5484046179584018  1.0000
  O   O8        1.0  0.8399487940265015  0.3747156409283531  0.7441066325415676  1.0000
  O   O9        1.0  0.8399742395789436  0.38866340278703854  0.3664701022400576  1.0000
  O   O10       1.0  0.8399271617914633  0.19292558627766082  0.5621721867081168  1.0000
