data_image0
_chemical_formula_structural       NC9NC3NH7C12H10C8NH7Zn2C4O8
_chemical_formula_sum              "N4 C36 H24 Zn2 O8"
_cell_length_a       16.053384444249904
_cell_length_b       10.299137764757564
_cell_length_c       9.274266800404106
_cell_angle_alpha    85.96615715637442
_cell_angle_beta     89.35588104550887
_cell_angle_gamma    89.19348198390439

_space_group_name_H-M_alt    "P 1"
_space_group_IT_number       1

loop_
  _space_group_symop_operation_xyz
  'x, y, z'

loop_
  _atom_site_type_symbol
  _atom_site_label
  _atom_site_symmetry_multiplicity
  _atom_site_fract_x
  _atom_site_fract_y
  _atom_site_fract_z
  _atom_site_occupancy
  N   N1        1.0  0.791959490090971  0.3931965396648689  0.406106472088238  1.0000
  C   C1        1.0  0.7415797792540292  0.37181678960770287  0.3230364552983069  1.0000
  C   C2        1.0  0.678971388333417  0.34525236939184234  0.219843246192988  1.0000
  C   C3        1.0  0.6932493075916011  0.3321848717056668  0.07473896658175261  1.0000
  C   C4        1.0  0.6168849321213393  0.306460711607768  0.01674932516434713  1.0000
  C   C5        1.0  0.559273316809132  0.30526511360358777  0.1296019297277966  1.0000
  C   C6        1.0  0.4686679121049799  0.2813645698798142  0.11823775090173494  1.0000
  C   C7        1.0  0.4123044890531408  0.32479065226988824  0.22245422125981595  1.0000
  C   C8        1.0  0.32680104408221017  0.3021224858301308  0.2115693970202781  1.0000
  C   C9        1.0  0.2696458817738741  0.34731148940287593  0.3184179098374056  1.0000
  N   N2        1.0  0.2237098694163178  0.38363706453102125  0.40430738096513646  1.0000
  C   C10       1.0  0.2969348994361645  0.23591634886835533  0.09648336430075921  1.0000
  C   C11       1.0  0.3522887216817068  0.19261149002822897  0.9925017914930016  1.0000
  C   C12       1.0  0.4375881782454673  0.21511091906586288  0.002946488436716079  1.0000
  N   N3        1.0  0.5979008004138131  0.32908274984812014  0.2534147970384668  1.0000
  H   H1        1.0  0.7522474068362373  0.34043007711856177  0.01744368946097463  1.0000
  H   H2        1.0  0.6051349543501512  0.2919210093276472  0.9044538009422345  1.0000
  H   H3        1.0  0.4342283395952906  0.37785665254689005  0.31100684908313037  1.0000
  H   H4        1.0  0.23095167412045678  0.21788462461722832  0.08713063682186915  1.0000
  H   H5        1.0  0.3290760629400049  0.14118559501943317  0.9036889494722837  1.0000
  H   H6        1.0  0.4790715983786642  0.17911012221921085  0.921658081497691  1.0000
  H   H7        1.0  0.5712667623118285  0.33215230478343694  0.3563731918197177  1.0000
  C   C13       1.0  0.007757761922351895  0.007019678169956973  0.4053643809521963  1.0000
  C   C14       1.0  0.00840766067052745  0.01583974823718859  0.2535770611497241  1.0000
  C   C15       1.0  0.008820237193641885  0.9031772609204964  0.1764590485496433  1.0000
  C   C16       1.0  0.00857408065714038  0.7805782133853852  0.25317997141301096  1.0000
  C   C17       1.0  0.007919485120770892  0.7698038759892246  0.40506190464463215  1.0000
  C   C18       1.0  0.007516752392628715  0.8835357266809677  0.48021905473444293  1.0000
  C   C19       1.0  0.009506779237962386  0.9135529590386595  0.015883064695334296  1.0000
  C   C20       1.0  0.060102390696270984  0.8295976510509753  0.9381252371856186  1.0000
  C   C21       1.0  0.06064508764880072  0.839616901490901  0.7869767044832157  1.0000
  C   C22       1.0  0.010808897966382068  0.9332023186881245  0.7118764113997753  1.0000
  C   C23       1.0  0.960326035457456  0.017028303426588343  0.7877722195047596  1.0000
  C   C24       1.0  0.9595738599721522  0.0075085944462607275  0.9389225991668622  1.0000
  H   H8        1.0  0.007465251497077442  0.331103774369244  0.4637519986358571  1.0000
  H   H9        1.0  0.009747392806446434  0.11054343718903746  0.19496469784263493  1.0000
  H   H10       1.0  0.00774210313775891  0.6934325907215255  0.19430307787329282  1.0000
  H   H11       1.0  0.007013189877601352  0.8760171252393086  0.5972961070284641  1.0000
  H   H12       1.0  0.0061542358204200774  0.5421880421278805  0.6917332941482504  1.0000
  H   H13       1.0  0.10000228635709513  0.7574270213054586  0.9941466264086452  1.0000
  H   H14       1.0  0.09991577353721826  0.7749441691555526  0.7280371097897875  1.0000
  H   H15       1.0  0.0113101231219972  0.9407646568926715  0.5948767619820186  1.0000
  H   H16       1.0  0.9215577109431573  0.08928023941799343  0.7294499908731442  1.0000
  H   H17       1.0  0.9191916564112007  0.07239801559591429  0.9955720686541683  1.0000
  C   C25       1.0  0.009754107423388227  0.3855296447707377  0.9818955500177967  1.0000
  C   C26       1.0  0.9613220257719293  0.29362631444125675  0.06328363771015444  1.0000
  C   C27       1.0  0.9078508936933981  0.21193552928495363  0.9956422230235331  1.0000
  C   C28       1.0  0.9010298586719725  0.22091418912985603  0.8449692908307345  1.0000
  C   C29       1.0  0.9506049655383372  0.30968714509772455  0.7622714176016431  1.0000
  C   C30       1.0  0.0059231227212610486  0.39129390874611025  0.8285306814454687  1.0000
  C   C31       1.0  0.8442670091122425  0.13145745669675413  0.7721599179268708  1.0000
  C   C32       1.0  0.8893548153708124  0.011720661423531231  0.7408039307859289  1.0000
  N   N4        1.0  0.9249456194089213  0.9172205527042756  0.7160539800277181  1.0000
  H   H18       1.0  0.10158730095905733  0.6693423041608639  0.06083505879969752  1.0000
  H   H19       1.0  0.9634475675418159  0.28685276372737767  0.18029146513126992  1.0000
  H   H20       1.0  0.8710709157146344  0.14233944959897804  0.06106732058816666  1.0000
  H   H21       1.0  0.9473612336799798  0.3127223935070953  0.6453927658494196  1.0000
  H   H22       1.0  0.07077793138655841  0.5797863745029544  0.5318452931301687  1.0000
  H   H23       1.0  0.8205143844896859  0.17953965504095207  0.6694710415456631  1.0000
  H   H24       1.0  0.7896222339387484  0.10598167263594416  0.8425597495813957  1.0000
  Zn  Zn1       1.0  0.9165532826048318  0.390434474480013  0.40559561163895985  1.0000
  Zn  Zn2       1.0  0.09911599788755798  0.3863886287487617  0.4048300273727059  1.0000
  C   C33       1.0  0.006644323673094198  0.38503032153417155  0.6685006021134079  1.0000
  C   C34       1.0  0.009026950105707419  0.3917943772180494  0.14192516937535604  1.0000
  C   C35       1.0  0.007910626821934223  0.6255824113715998  0.3993746682764669  1.0000
  C   C36       1.0  0.007760583982361792  0.15124072886658554  0.41105118094687665  1.0000
  O   O1        1.0  0.07806450728206094  0.39235583512647837  0.19534203852821294  1.0000
  O   O2        1.0  0.07616764485259786  0.38139717771005355  0.614502257638205  1.0000
  O   O3        1.0  0.07718925992830039  0.5756460633530689  0.3971811653353108  1.0000
  O   O4        1.0  0.07704283040111859  0.1981069594190514  0.41266302300327196  1.0000
  O   O5        1.0  0.9386263877916107  0.5787161451917342  0.3977626162620673  1.0000
  O   O6        1.0  0.9376047733907534  0.38446881944476474  0.6150836310840551  1.0000
  O   O7        1.0  0.9395016437083882  0.3954274198006224  0.1959216788448428  1.0000
  O   O8        1.0  0.9384799663330254  0.20117853553961781  0.41324277140141064  1.0000
