data_image0
_chemical_formula_structural       NC8NH4C9H8C6NCH7Zn2C4O8
_chemical_formula_sum              "N3 C28 H19 Zn2 O8"
_cell_length_a       13.859017124695912
_cell_length_b       9.275152443626249
_cell_length_c       9.273390368590327
_cell_angle_alpha    85.97038560770253
_cell_angle_beta     89.99082906418701
_cell_angle_gamma    90.57357307376715

_space_group_name_H-M_alt    "P 1"
_space_group_IT_number       1

loop_
  _space_group_symop_operation_xyz
  'x, y, z'

loop_
  _atom_site_type_symbol
  _atom_site_label
  _atom_site_symmetry_multiplicity
  _atom_site_fract_x
  _atom_site_fract_y
  _atom_site_fract_z
  _atom_site_occupancy
  N   N1        1.0  0.9192239203873404  0.5618390144428107  0.4048063728325484  1.0000
  C   C1        1.0  0.8467182287236341  0.5383764724686345  0.34872703875633704  1.0000
  C   C2        1.0  0.7565254663697908  0.5091924930411911  0.27897155311628397  1.0000
  C   C3        1.0  0.6690936041103095  0.5376439025599677  0.3469743729039596  1.0000
  C   C4        1.0  0.5812951547458759  0.5091937130587323  0.2789709696413545  1.0000
  C   C5        1.0  0.5811109270698005  0.4522843899253073  0.1429438691461633  1.0000
  C   C6        1.0  0.668360933679772  0.42394233610384835  0.07520281096985082  1.0000
  C   C7        1.0  0.7559762701569289  0.4522820523187001  0.14294505549332648  1.0000
  C   C8        1.0  0.49147839623276696  0.5383773939942835  0.34872653758880534  1.0000
  N   N2        1.0  0.4192750481454032  0.5618393348494011  0.40480615572996914  1.0000
  H   H1        1.0  0.6693774094076675  0.5816939201535231  0.4522626047281473  1.0000
  H   H2        1.0  0.5136712184457538  0.4298920306007652  0.08941819881295165  1.0000
  H   H3        1.0  0.6680777741978502  0.37998227835545473  0.9701278030080646  1.0000
  H   H4        1.0  0.8231274051643331  0.4298876022848603  0.08942039154348613  1.0000
  C   C9        1.0  0.16640767107413804  0.1382225332600426  0.4062776960839394  1.0000
  C   C10       1.0  0.13160422099100177  0.2196604809500957  0.28383515103533674  1.0000
  C   C11       1.0  0.10576993009381241  0.15289332312901438  0.15910017228897644  1.0000
  C   C12       1.0  0.11433345996500144  0.0035007736400660726  0.15433802278386244  1.0000
  C   C13       1.0  0.14725011848235559  0.9203636790500819  0.2757457703256301  1.0000
  C   C14       1.0  0.1721004613192401  0.9854449092761406  0.403347318073193  1.0000
  C   C15       1.0  0.08819621938696365  0.9349783034240461  0.025167107269793654  1.0000
  C   C16       1.0  0.06631238840587561  0.8775733093487027  0.9170067180894069  1.0000
  C   C17       1.0  0.03976068525568978  0.8079105012819495  0.7857730550124615  1.0000
  H   H5        1.0  0.30504416364410086  0.22293346958028978  0.6941151248811064  1.0000
  H   H6        1.0  0.1265214962532806  0.33617314472990834  0.283381799418011  1.0000
  H   H7        1.0  0.0799754063867586  0.21814093069488272  0.06575653706919926  1.0000
  H   H8        1.0  0.151312764961268  0.8040109174958333  0.2717251719028959  1.0000
  H   H9        1.0  0.26234702128794596  0.692238093939061  0.600218457278535  1.0000
  H   H10       1.0  0.05739943409143545  0.6913317973251059  0.7992375672587211  1.0000
  H   H11       1.0  0.9612278702144191  0.8202832950512442  0.766042272979572  1.0000
  H   H12       1.0  0.08051188002920151  0.8592674837151992  0.6924820212378218  1.0000
  C   C18       1.0  0.16926855762564874  0.5573352488429548  0.981582312324405  1.0000
  C   C19       1.0  0.25786963626756343  0.554469049123932  0.05519467945848122  1.0000
  C   C20       1.0  0.34501508297665806  0.5650128377986028  0.9797433909609756  1.0000
  C   C21       1.0  0.34577443694965515  0.5788136302675353  0.828067668293393  1.0000
  C   C22       1.0  0.25774512978159386  0.579247047083852  0.7536541133995507  1.0000
  C   C23       1.0  0.16923959022102153  0.5663321864722244  0.8280427285105834  1.0000
  N   N3        1.0  0.43456186106989647  0.5910183798223908  0.747237151218668  1.0000
  C   C24       1.0  0.529830486114923  0.5911884659025277  0.8142247260725184  1.0000
  H   H13       1.0  0.01650675016864556  0.4880415524661139  0.26766203423326096  1.0000
  H   H14       1.0  0.41148658861885123  0.5636854866508942  0.04086896220791614  1.0000
  H   H15       1.0  0.9436216884374311  0.45426094085687707  0.7329393549432899  1.0000
  H   H16       1.0  0.431495389370657  0.6005787903914739  0.6343282516641069  1.0000
  H   H17       1.0  0.536714371420979  0.6837264282852795  0.8833731905900576  1.0000
  H   H18       1.0  0.5409072421479655  0.4880725240447629  0.8801353153003105  1.0000
  H   H19       1.0  0.586449408908291  0.6020939884251209  0.7292964190010438  1.0000
  Zn  Zn1       1.0  0.06352785100394365  0.5618353439744528  0.40481465080452006  1.0000
  Zn  Zn2       1.0  0.27497103041829174  0.5618313634422545  0.40480973932745323  1.0000
  C   C25       1.0  0.16920427803258087  0.5588847352570552  0.6680634692318865  1.0000
  C   C26       1.0  0.16929692456794193  0.5647837937645164  0.14156105600892221  1.0000
  C   C27       1.0  0.1710196267110522  0.8252407740617662  0.3981580222188408  1.0000
  C   C28       1.0  0.1674814920904082  0.2984260226259865  0.4114665858568765  1.0000
  O   O1        1.0  0.24954798712779147  0.5672757895036987  0.19524954170071007  1.0000
  O   O2        1.0  0.24943368888792586  0.5563886257207944  0.61437084472509  1.0000
  O   O3        1.0  0.25089852415774083  0.7714745115363066  0.39642028147340214  1.0000
  O   O4        1.0  0.24808307977978283  0.35218991286034473  0.41319999685529685  1.0000
  O   O5        1.0  0.0904157294872836  0.7714767945592105  0.39642439327076606  1.0000
  O   O6        1.0  0.08895090586136156  0.5563926410803655  0.6143748736816352  1.0000
  O   O7        1.0  0.08906520388696948  0.5672797361763003  0.19525183804190327  1.0000
  O   O8        1.0  0.08760029646198553  0.3521938503636366  0.41320240128768115  1.0000
