data_image0
_chemical_formula_structural       NC9NC5H8C8H6C6NO2H3Zn2C4O8
_chemical_formula_sum              "N3 C32 H17 O10 Zn2"
_cell_length_a       17.807436237873137
_cell_length_b       9.275140704573507
_cell_length_c       9.273395971720355
_cell_angle_alpha    85.10192813467344
_cell_angle_beta     89.26497821809997
_cell_angle_gamma    88.98377242316299

_space_group_name_H-M_alt    "P 1"
_space_group_IT_number       1

loop_
  _space_group_symop_operation_xyz
  'x, y, z'

loop_
  _atom_site_type_symbol
  _atom_site_label
  _atom_site_symmetry_multiplicity
  _atom_site_fract_x
  _atom_site_fract_y
  _atom_site_fract_z
  _atom_site_occupancy
  N   N1        1.0  0.7174175993932805  0.5570533287986339  0.39964938306070746  1.0000
  C   C1        1.0  0.6566327042922732  0.5181210589682497  0.3873047788021662  1.0000
  C   C2        1.0  0.5810229756744312  0.4696936029422218  0.3719494316070837  1.0000
  C   C3        1.0  0.5626288522809919  0.391638540878791  0.25504382327272657  1.0000
  C   C4        1.0  0.4892151448121694  0.34449641205538994  0.24004263546129745  1.0000
  C   C5        1.0  0.4331446232173298  0.3749906720517453  0.34191001368370744  1.0000
  C   C6        1.0  0.3551253668018984  0.32501733591701454  0.3260591654267053  1.0000
  C   C7        1.0  0.2934071650297119  0.4154647598667438  0.3551029307205087  1.0000
  C   C8        1.0  0.21984992243662274  0.3680971057295465  0.34011643003988623  1.0000
  C   C9        1.0  0.15709729303726058  0.4615276557350394  0.3695716195194869  1.0000
  N   N2        1.0  0.1066571332184531  0.5366393414028758  0.3932527692986387  1.0000
  C   C10       1.0  0.2074258241847474  0.2299959694515417  0.2960573230583716  1.0000
  C   C11       1.0  0.2682865832378736  0.1395332667882927  0.26700419613712234  1.0000
  C   C12       1.0  0.3417222744739628  0.18646533171103008  0.2817645404886877  1.0000
  C   C13       1.0  0.4522328475996749  0.45359193398635633  0.4590605886695905  1.0000
  C   C14       1.0  0.5256984722267588  0.5005245291908287  0.47388826477601675  1.0000
  H   H1        1.0  0.6049742270933852  0.36750952090227407  0.17526940179690895  1.0000
  H   H2        1.0  0.4760797735916809  0.28586902022221317  0.14772955950837163  1.0000
  H   H3        1.0  0.30245323137977187  0.5233144806745826  0.38745304199027353  1.0000
  H   H4        1.0  0.1507698250025734  0.1923392996832407  0.2841926040913385  1.0000
  H   H5        1.0  0.2585484972186125  0.03260771242719042  0.23332179790639837  1.0000
  H   H6        1.0  0.38799253874612316  0.11371022068986393  0.2604214396583251  1.0000
  H   H7        1.0  0.4105995972528479  0.4771076583973666  0.5402726064973122  1.0000
  H   H8        1.0  0.5393707246901185  0.5605187813613519  0.5650465879819  1.0000
  C   C15       1.0  0.9097604740027598  0.12353552737082785  0.3954789572787354  1.0000
  C   C16       1.0  0.9206255087155204  0.20777769681296657  0.26361643126982104  1.0000
  C   C17       1.0  0.9380349038177461  0.14286632527320633  0.1368203085855897  1.0000
  C   C18       1.0  0.9449951013071063  0.9925428228124453  0.13945028218957756  1.0000
  C   C19       1.0  0.9331706731143272  0.9067947467342112  0.26896266713541106  1.0000
  C   C20       1.0  0.9143213402576614  0.9701455802987706  0.39743561994931653  1.0000
  C   C21       1.0  0.963433485965792  0.9258685719606244  0.008602178761021758  1.0000
  C   C22       1.0  0.9788716462360965  0.8700301779159398  0.899054233944013  1.0000
  H   H9        1.0  0.9216672749853052  0.19572579769002574  0.7499912429020816  1.0000
  H   H10       1.0  0.9174006382858797  0.32481770645303537  0.2592477783004157  1.0000
  H   H11       1.0  0.9468029567569795  0.21018574844495874  0.03687928859418377  1.0000
  H   H12       1.0  0.9369569957506438  0.7899907941132627  0.26872211605641816  1.0000
  H   H13       1.0  0.9194552592838199  0.6688635035696481  0.6363391234638767  1.0000
  H   H14       1.0  0.9924230380720733  0.8210141035789861  0.8028941449455105  1.0000
  C   C23       1.0  0.9124921824722071  0.5512465396167177  0.9725237676986507  1.0000
  C   C24       1.0  0.8457280593821949  0.5876594864484534  0.0442865877460814  1.0000
  C   C25       1.0  0.7786802764266257  0.6104531517326098  0.9690052386349768  1.0000
  C   C26       1.0  0.7764936246760006  0.5973208703288742  0.8197147559225115  1.0000
  C   C27       1.0  0.8432309182892525  0.5633800343075053  0.7465206259787793  1.0000
  C   C28       1.0  0.9115896303851182  0.5424345627577181  0.8203907956208663  1.0000
  N   N3        1.0  0.706968406082841  0.6197639393346249  0.7427648824543831  1.0000
  O   O1        1.0  0.6418649427738442  0.6541665781133057  0.8146836922167897  1.0000
  O   O2        1.0  0.7045124854955905  0.608009732848553  0.609781192705356  1.0000
  H   H15       1.0  0.07596863209380955  0.3811365437987255  0.08587171306611396  1.0000
  H   H16       1.0  0.7282623884542682  0.6370068833333742  0.028274120938504455  1.0000
  H   H17       1.0  0.023081588825212048  0.43204753857225353  0.5468585342644774  1.0000
  Zn  Zn1       1.0  0.8297436900168322  0.551158359843386  0.3978117986858847  1.0000
  Zn  Zn2       1.0  0.9943309484621392  0.542522436605029  0.3951021947454463  1.0000
  C   C29       1.0  0.9117276345355134  0.5383576435317226  0.6601125090813718  1.0000
  C   C30       1.0  0.9123488108788296  0.5553248759694185  0.13280160065770197  1.0000
  C   C31       1.0  0.9134615122610393  0.810178249302089  0.3913130301991121  1.0000
  C   C32       1.0  0.9106148675791038  0.2835025404466398  0.4016011534282699  1.0000
  O   O3        1.0  0.9747606670092215  0.5534100262026718  0.18556401044633986  1.0000
  O   O4        1.0  0.9742336938590997  0.5337169442322547  0.605293154513632  1.0000
  O   O5        1.0  0.9756329784616923  0.7532155496109181  0.38823569084128096  1.0000
  O   O6        1.0  0.9733613264149206  0.33391143520777034  0.40262136682447247  1.0000
  O   O7        1.0  0.8507132558985134  0.7597693641893097  0.39029262752392335  1.0000
  O   O8        1.0  0.8493139807045833  0.540272491511723  0.607350018225032  1.0000
  O   O9        1.0  0.8498409554816141  0.5599655412854487  0.18761913837219257  1.0000
  O   O10       1.0  0.8484416147134843  0.34046693885545  0.40467660296160934  1.0000
