data_image0
_chemical_formula_structural       NC8NH4C6H6C12H9Zn2C4O8
_chemical_formula_sum              "N2 C30 H19 Zn2 O8"
_cell_length_a       14.927258825633057
_cell_length_b       10.302888698854447
_cell_length_c       13.024585202197207
_cell_angle_alpha    85.80961696087208
_cell_angle_beta     93.99279185103242
_cell_angle_gamma    90.01755857324392

_space_group_name_H-M_alt    "P 1"
_space_group_IT_number       1

loop_
  _space_group_symop_operation_xyz
  'x, y, z'

loop_
  _atom_site_type_symbol
  _atom_site_label
  _atom_site_symmetry_multiplicity
  _atom_site_fract_x
  _atom_site_fract_y
  _atom_site_fract_z
  _atom_site_occupancy
  N   N1        1.0  0.7749062376004568  0.41498048135845433  0.8649340716241336  1.0000
  C   C1        1.0  0.6973798136664334  0.4149804575808644  0.8649340785133157  1.0000
  C   C2        1.0  0.6009471743100044  0.4149804575227811  0.8649341178405796  1.0000
  C   C3        1.0  0.5499847708355279  0.335144616320006  0.8008543504682839  1.0000
  C   C4        1.0  0.4562734580272441  0.3351445353441116  0.8008543301372812  1.0000
  C   C5        1.0  0.4131311731021468  0.41498050495166683  0.864934055144644  1.0000
  C   C6        1.0  0.46409357189435274  0.4948163550424727  0.9290137453577982  1.0000
  C   C7        1.0  0.5578049516944293  0.49481643601571856  0.9290137656930304  1.0000
  C   C8        1.0  0.3166985289563106  0.4149804168668783  0.8649340159113114  1.0000
  N   N2        1.0  0.23917210512942408  0.41498049000402415  0.8649340242019483  1.0000
  H   H1        1.0  0.5826386344082061  0.2730276498883181  0.7509967085899413  1.0000
  H   H2        1.0  0.4175349827385376  0.27302762893357757  0.750996778009043  1.0000
  H   H3        1.0  0.4314397083216745  0.5569333214741603  0.9788713872361405  1.0000
  H   H4        1.0  0.5965433646736136  0.5569333335408699  0.978871394976181  1.0000
  C   C9        1.0  0.0069532818229065645  0.033733109207114025  0.8649047103448061  1.0000
  C   C10       1.0  0.09833347234996048  0.029561758953935206  0.8990561334684359  1.0000
  C   C11       1.0  0.14367318272950835  0.9106128438272078  0.916000754471989  1.0000
  C   C12       1.0  0.09857020225491975  0.7945466638096367  0.899144502376242  1.0000
  C   C13       1.0  0.007134186236961828  0.7962178824997435  0.86497230240996  1.0000
  C   C14       1.0  0.9618046930317542  0.9163861307459491  0.848031402653443  1.0000
  H   H5        1.0  0.972331198383725  0.3626086809025557  0.8519642359182036  1.0000
  H   H6        1.0  0.13488713959546783  0.11814975880093283  0.9127173046374812  1.0000
  H   H7        1.0  0.21409507878478728  0.9083696615109715  0.9423192176011916  1.0000
  H   H8        1.0  0.13528542871281357  0.7035940833689773  0.9128658584850253  1.0000
  H   H9        1.0  0.8913444153486827  0.9186733994509545  0.8216985035586086  1.0000
  H   H10       1.0  0.8349111575566827  0.5922018414755594  0.8006068552933663  1.0000
  C   C15       1.0  0.9886813105115607  0.41341732863444824  0.5627194889778879  1.0000
  C   C16       1.0  0.9689014908206667  0.51716154478773  0.4882988967923388  1.0000
  C   C17       1.0  0.9995087396466129  0.5151738608428877  0.38941861989397847  1.0000
  C   C18       1.0  0.04982239324540294  0.40909399973662725  0.3629619713709569  1.0000
  C   C19       1.0  0.07045335686092846  0.3060884828389967  0.43730944304063724  1.0000
  C   C20       1.0  0.03989118180486994  0.3079672143645189  0.5362329739650542  1.0000
  C   C21       1.0  0.0835116309636259  0.40789578596975495  0.2587617923839658  1.0000
  C   C22       1.0  0.17694100553575431  0.4036630692749677  0.2510792009537781  1.0000
  C   C23       1.0  0.2129545102859578  0.410547562802142  0.15485548105570102  1.0000
  C   C24       1.0  0.15629552977203987  0.4220214256436639  0.06500791426596386  1.0000
  C   C25       1.0  0.0633261570079311  0.4250402770552453  0.07094777306525302  1.0000
  C   C26       1.0  0.02540612721254032  0.4165336639452266  0.16715749826573867  1.0000
  H   H11       1.0  0.9546734541771952  0.3120445186693453  0.8126529257197297  1.0000
  H   H12       1.0  0.9299388055724521  0.6000374956770749  0.5064890316834947  1.0000
  H   H13       1.0  0.9841058641963538  0.596449637770718  0.3334284158511769  1.0000
  H   H14       1.0  0.10979178859352046  0.22388335707072862  0.41843800626158006  1.0000
  H   H15       1.0  0.05645208411347768  0.2268292960765053  0.5919050437318076  1.0000
  H   H16       1.0  0.22219709959991407  0.39732802050718335  0.3200254868642065  1.0000
  H   H17       1.0  0.28501473150840484  0.40797215857738767  0.14997405224432625  1.0000
  H   H18       1.0  0.18444131145655063  0.4277464853124236  0.9904414744310044  1.0000
  H   H19       1.0  0.8048737361903056  0.461780940652347  0.08262699282195651  1.0000
  Zn  Zn1       1.0  0.9088837075312354  0.4149770288039276  0.8649400068333797  1.0000
  Zn  Zn2       1.0  0.10519515923223333  0.41497332802018133  0.8649365389959425  1.0000
  C   C27       1.0  0.018461152199228174  0.41077257281228136  0.05290533897445549  1.0000
  C   C28       1.0  0.9956198648051957  0.4191794225895611  0.6769713079740911  1.0000
  C   C29       1.0  0.006846206562384432  0.6520708789717342  0.8608584226062801  1.0000
  C   C30       1.0  0.007234746418329326  0.17787955690894905  0.8690182790739025  1.0000
  O   O1        1.0  0.07244767850157242  0.4211061655943864  0.7153139456040997  1.0000
  O   O2        1.0  0.0906291697735313  0.40884204006053126  0.014559772991791786  1.0000
  O   O3        1.0  0.08124901501536684  0.6036934794540705  0.8594805293981138  1.0000
  O   O4        1.0  0.08182776158567373  0.22625473509152672  0.8703931120344051  1.0000
  O   O5        1.0  0.9322510381860021  0.6036956217352305  0.8594834337906874  1.0000
  O   O6        1.0  0.9416311899760837  0.4088457418654982  0.0145626226484995  1.0000
  O   O7        1.0  0.923449623573524  0.42110981577837764  0.7153155579116216  1.0000
  O   O8        1.0  0.9328297113398959  0.2262583763874873  0.8703948015010701  1.0000
