data_image0
_chemical_formula_structural       NC8NH4C10H6C6F3H5Zn2C4O8
_chemical_formula_sum              "N2 C28 H15 F3 Zn2 O8"
_cell_length_a       14.927258825633057
_cell_length_b       9.275150299802176
_cell_length_c       9.272721663655245
_cell_angle_alpha    85.5566990303468
_cell_angle_beta     90.5161791453222
_cell_angle_gamma    89.48389196497259

_space_group_name_H-M_alt    "P 1"
_space_group_IT_number       1

loop_
  _space_group_symop_operation_xyz
  'x, y, z'

loop_
  _atom_site_type_symbol
  _atom_site_label
  _atom_site_symmetry_multiplicity
  _atom_site_fract_x
  _atom_site_fract_y
  _atom_site_fract_z
  _atom_site_occupancy
  N   N1        1.0  0.8258290446550484  0.5702267707969013  0.4005438141250519  1.0000
  C   C1        1.0  0.7483026205101939  0.5702267443859905  0.4005438239306245  1.0000
  C   C2        1.0  0.6518699790727093  0.5702267444006255  0.4005438790325443  1.0000
  C   C3        1.0  0.6048154053814162  0.4813736453962924  0.31127564235731664  1.0000
  C   C4        1.0  0.5111040941728923  0.48137355536430393  0.31127561439294454  1.0000
  C   C5        1.0  0.4640539808763379  0.5702267969835972  0.40054379088365866  1.0000
  C   C6        1.0  0.5111085539115937  0.6590799057101193  0.48981191939374935  1.0000
  C   C7        1.0  0.6048199321117035  0.6590799957391733  0.4898119473640646  1.0000
  C   C8        1.0  0.3676213393766627  0.570226699013212  0.400543736480955  1.0000
  N   N2        1.0  0.2900949146379617  0.5702267803095105  0.4005437476260141  1.0000
  H   H1        1.0  0.6405097804330322  0.4122407239301238  0.24181996441475562  1.0000
  H   H2        1.0  0.4754061252248224  0.41224070078223685  0.2418200618130051  1.0000
  H   H3        1.0  0.4754141788599776  0.7282128271762875  0.5592675973363099  1.0000
  H   H4        1.0  0.6405178347242249  0.7282128406019859  0.5592676081031984  1.0000
  C   C9        1.0  0.06034341510124386  0.14653454426738155  0.40295777264783306  1.0000
  C   C10       1.0  0.10684719344043958  0.22798444722399336  0.29386754185556124  1.0000
  C   C11       1.0  0.1456373308606922  0.16120212775113063  0.17923348858570276  1.0000
  C   C12       1.0  0.1383155603657069  0.011995864125927019  0.17221312731652283  1.0000
  C   C13       1.0  0.09376396913313134  0.9290985432282908  0.2806553065595607  1.0000
  C   C14       1.0  0.055589239116387246  0.9939078981313985  0.3981423609551369  1.0000
  C   C15       1.0  0.19213810544780374  0.2463804001944483  0.06764902077472446  1.0000
  C   C16       1.0  0.23107103306225385  0.3177197112681047  0.9742295638972451  1.0000
  C   C17       1.0  0.27665968317415346  0.4012630087470715  0.8648394541172433  1.0000
  C   C18       1.0  0.3155851034346484  0.47259693651958834  0.7714379050930087  1.0000
  H   H5        1.0  0.01913856220282839  0.41012223782444485  0.6319339819884262  1.0000
  H   H6        1.0  0.11116384574719418  0.3444451070801806  0.29609512464777543  1.0000
  H   H7        1.0  0.16785178894929542  0.9593610915936713  0.08351045545006741  1.0000
  H   H8        1.0  0.0909896281953313  0.8130641205135746  0.27442993764007584  1.0000
  H   H9        1.0  0.9992854255056534  0.8653281384735801  0.7407401768761943  1.0000
  H   H10       1.0  0.3497648699453939  0.5352341819444992  0.6894236305733914  1.0000
  C   C19       1.0  0.055609209230725196  0.5678810858576901  0.9771201377771561  1.0000
  C   C20       1.0  0.09439845082432874  0.44986742057896234  0.060513116027880905  1.0000
  C   C21       1.0  0.14099132918306467  0.3404359065538529  0.9952299801960122  1.0000
  C   C22       1.0  0.14606110497019476  0.3470799006941753  0.8440424048294703  1.0000
  C   C23       1.0  0.10675779297826304  0.46208960759935613  0.75969819540109  1.0000
  C   C24       1.0  0.06032349360158884  0.5725614055561663  0.8239799683615212  1.0000
  F   F1        1.0  0.20997995167472294  0.2548137545112496  0.21829684995548093  1.0000
  F   F2        1.0  0.251789590370165  0.15320145242673777  0.017521419527359857  1.0000
  F   F3        1.0  0.11485937759290965  0.1090264764676039  0.10992808791074117  1.0000
  H   H11       1.0  0.9968964147579576  0.9114552740147699  0.05138708583382458  1.0000
  H   H12       1.0  0.08995410521208669  0.4447415493857323  0.17738787891322197  1.0000
  H   H13       1.0  0.17964813391289858  0.26232415393717123  0.7906161887199419  1.0000
  H   H14       1.0  0.11059397414164063  0.4625510602188085  0.6430409553712373  1.0000
  H   H15       1.0  0.8981960566444895  0.8159139132302737  0.7013062183361298  1.0000
  Zn  Zn1       1.0  0.9598062227893709  0.5702229458151711  0.4005521521974368  1.0000
  Zn  Zn2       1.0  0.15611788196417198  0.5702188260356356  0.4005473172319052  1.0000
  C   C25       1.0  0.05946262416224334  0.5659288671595397  0.663938008261495  1.0000
  C   C26       1.0  0.05646361488269047  0.574514725897719  0.13716159229443517  1.0000
  C   C27       1.0  0.05645130477901561  0.8337045628070248  0.3933066329243404  1.0000
  C   C28       1.0  0.059474877431914264  0.30673729721563725  0.40779305435900476  1.0000
  O   O1        1.0  0.13124964810966167  0.5767331781488141  0.1908711673531267  1.0000
  O   O2        1.0  0.13367260170241457  0.5637061973475819  0.6102243546838815  1.0000
  O   O3        1.0  0.13123992727789657  0.7799384663760578  0.3916875958366288  1.0000
  O   O4        1.0  0.13368225488655638  0.3605009188454622  0.4094078180292988  1.0000
  O   O5        1.0  0.9822417828754006  0.7799408530082799  0.39169165139409956  1.0000
  O   O6        1.0  0.9846744471423369  0.563710317017335  0.6102283235079939  1.0000
  O   O7        1.0  0.9822514842406801  0.5767372379591742  0.19087340285606946  1.0000
  O   O8        1.0  0.984684091673612  0.36050496893363326  0.40941016169737887  1.0000
