data_image0
_chemical_formula_structural       NC6NCNCH5C6NCH9C7OH5Zn2C4O8
_chemical_formula_sum              "N4 C26 H19 O9 Zn2"
_cell_length_a       14.933214217465613
_cell_length_b       9.273386996610927
_cell_length_c       9.274074313596556
_cell_angle_alpha    86.02935137670892
_cell_angle_beta     90.19933690330467
_cell_angle_gamma    89.43266693644959

_space_group_name_H-M_alt    "P 1"
_space_group_IT_number       1

loop_
  _space_group_symop_operation_xyz
  'x, y, z'

loop_
  _atom_site_type_symbol
  _atom_site_label
  _atom_site_symmetry_multiplicity
  _atom_site_fract_x
  _atom_site_fract_y
  _atom_site_fract_z
  _atom_site_occupancy
  N   N1        1.0  0.8290032297546769  0.564094923583256  0.40677808432676565  1.0000
  C   C1        1.0  0.7515040197829527  0.565082290653002  0.40578609190456905  1.0000
  C   C2        1.0  0.6550944204162503  0.5663132838885185  0.40454920016938845  1.0000
  C   C3        1.0  0.6081300040916758  0.4714454844661647  0.49988088157347765  1.0000
  C   C4        1.0  0.5145868548862678  0.4725182351229062  0.4988029152224076  1.0000
  C   C5        1.0  0.4671062607851233  0.5684044307678362  0.4024478948679113  1.0000
  C   C6        1.0  0.3705496702421955  0.5663154211174677  0.4045471261042901  1.0000
  N   N2        1.0  0.2930798252136327  0.5645727218831144  0.4062979755965738  1.0000
  C   C7        1.0  0.5141585841927252  0.6644701530641466  0.30591256228745456  1.0000
  N   N3        1.0  0.4679434657239165  0.7641327479769315  0.20576291400166502  1.0000
  C   C8        1.0  0.6081907679130361  0.6624403026655712  0.3079524556084509  1.0000
  H   H1        1.0  0.6438056244808057  0.39664860428270327  0.5750434581626276  1.0000
  H   H2        1.0  0.4791757653991721  0.39835055669289465  0.5733330844177391  1.0000
  H   H3        1.0  0.5036609451979922  0.8345240474340812  0.13502737595284664  1.0000
  H   H4        1.0  0.3981539192438101  0.769435648563809  0.20043415552803023  1.0000
  H   H5        1.0  0.6447330581545331  0.7358617306247885  0.2341720200313759  1.0000
  C   C9        1.0  0.06380122989899673  0.14068960910228667  0.4072434248852932  1.0000
  C   C10       1.0  0.07920270584296256  0.22290171872185582  0.2769126012983443  1.0000
  C   C11       1.0  0.0861727693992973  0.15712658067851093  0.1465824442394612  1.0000
  C   C12       1.0  0.07784343478264842  0.006784550216100805  0.14325095016769748  1.0000
  C   C13       1.0  0.06401890319887538  0.9236067054916064  0.27312745771998465  1.0000
  C   C14       1.0  0.058290469259465266  0.9879670092604552  0.40584517142963183  1.0000
  N   N4        1.0  0.08404985869588044  0.9359457863820775  0.010230936927108301  1.0000
  C   C15       1.0  0.09862005460295388  0.012476526979520857  0.869571202404931  1.0000
  H   H6        1.0  0.08268029943760064  0.40517674940482085  0.643844548516942  1.0000
  H   H7        1.0  0.08376569647105786  0.33953495042727067  0.2751396660866121  1.0000
  H   H8        1.0  0.09722380674636869  0.22477896839485756  0.04867200495102608  1.0000
  H   H9        1.0  0.0597865976885741  0.8071789576525116  0.2708581865178088  1.0000
  H   H10       1.0  0.09212809133921024  0.860086130741229  0.7568459777252583  1.0000
  H   H11       1.0  0.07772636644263486  0.8236014946430654  0.013226147323804229  1.0000
  H   H12       1.0  0.04304531363381803  0.09074703529401873  0.8445872634148515  1.0000
  H   H13       1.0  0.1634351172116767  0.0700972845121004  0.869736723394169  1.0000
  H   H14       1.0  0.10066674766714767  0.9342043882837028  0.7842453697611681  1.0000
  C   C16       1.0  0.060000692836983865  0.5601721918348583  0.9833110729454302  1.0000
  C   C17       1.0  0.9816463255210064  0.602682951599582  0.05321040477722838  1.0000
  C   C18       1.0  0.9076261497466993  0.6567922334308444  0.9740149565439382  1.0000
  C   C19       1.0  0.9102277422666137  0.6698302320645761  0.8227106635375563  1.0000
  C   C20       1.0  0.9873843693397449  0.6255765203653891  0.7516755708930498  1.0000
  C   C21       1.0  0.06209099459883839  0.5684843997600084  0.8297775464479087  1.0000
  C   C22       1.0  0.8328219053117034  0.7279033161031284  0.7373036681908219  1.0000
  O   O1        1.0  0.7623886093325385  0.7680267722822378  0.7980161996552136  1.0000
  H   H15       1.0  0.27903726710264976  0.5236422918638672  0.08993396269437537  1.0000
  H   H16       1.0  0.84865656043656  0.6897571630473356  0.03142288646047153  1.0000
  H   H17       1.0  0.9883765335712228  0.6325688546232449  0.6345062966508199  1.0000
  H   H18       1.0  0.20935892156220803  0.5386514534490752  0.5522090639135127  1.0000
  H   H19       1.0  0.835944746629879  0.736663289315562  0.6204164100447214  1.0000
  Zn  Zn1       1.0  0.9629257569558585  0.5642290166906642  0.40664787329428465  1.0000
  Zn  Zn2       1.0  0.15915738955436345  0.5644269098703352  0.40644004177765924  1.0000
  C   C23       1.0  0.06173128829270083  0.5611660592154104  0.669786702468373  1.0000
  C   C24       1.0  0.0603539895710781  0.5674916911588133  0.14330134878895537  1.0000
  C   C25       1.0  0.059313343180828405  0.8277571558590728  0.40036618293235365  1.0000
  C   C26       1.0  0.06277187918581828  0.3008988619376278  0.4127219480955546  1.0000
  O   O2        1.0  0.13494148201906064  0.5700169876290557  0.19691668630062908  1.0000
  O   O3        1.0  0.1360790705500705  0.5587898666891906  0.6160132125560489  1.0000
  O   O4        1.0  0.13412554911780084  0.7740655624374819  0.3984542354235134  1.0000
  O   O5        1.0  0.13689493615678328  0.3547413010721139  0.41447555542320136  1.0000
  O   O6        1.0  0.9851881433891844  0.7739146254228506  0.3986123597120814  1.0000
  O   O7        1.0  0.9871416533543323  0.5586406621860469  0.616171257137376  1.0000
  O   O8        1.0  0.986004060930737  0.5698677158373004  0.19707299816336363  1.0000
  O   O9        1.0  0.9879575153987522  0.35459202002297396  0.41463197535923857  1.0000
