data_image0
_chemical_formula_structural       NC11NC3H8C12NCOCH13C15H11Zn2C4O8
_chemical_formula_sum              "N3 C47 H32 O9 Zn2"
_cell_length_a       17.807433833752565
_cell_length_b       10.299155265289649
_cell_length_c       10.299157797200026
_cell_angle_alpha    85.52785804654131
_cell_angle_beta     88.54730741847368
_cell_angle_gamma    90.66237101144993

_space_group_name_H-M_alt    "P 1"
_space_group_IT_number       1

loop_
  _space_group_symop_operation_xyz
  'x, y, z'

loop_
  _atom_site_type_symbol
  _atom_site_label
  _atom_site_symmetry_multiplicity
  _atom_site_fract_x
  _atom_site_fract_y
  _atom_site_fract_z
  _atom_site_occupancy
  N   N1        1.0  0.7067597921972967  0.4389765663048475  0.5341987660873007  1.0000
  C   C1        1.0  0.6559632537721224  0.4042291799806413  0.6007734711364368  1.0000
  C   C2        1.0  0.5927672317645102  0.3610062963966772  0.6835839087811889  1.0000
  C   C3        1.0  0.6045365352303869  0.2974180230569883  0.80632497804736  1.0000
  C   C4        1.0  0.5432470120314491  0.25587565614458563  0.8868509296084879  1.0000
  C   C5        1.0  0.4700340539257393  0.27760809652398377  0.8452767207645371  1.0000
  C   C6        1.0  0.45728781737689267  0.34135105840851593  0.7220753923386325  1.0000
  C   C7        1.0  0.3795057085630795  0.36441447311506436  0.6777200496648257  1.0000
  C   C8        1.0  0.3606960618250032  0.3475767908105239  0.5481386723297437  1.0000
  C   C9        1.0  0.28745315958387646  0.3692705127468729  0.5065204006102423  1.0000
  C   C10       1.0  0.23207657176226298  0.4081206916304405  0.5936631097549808  1.0000
  C   C11       1.0  0.15669649054361237  0.4304732974272294  0.5506833052875924  1.0000
  N   N2        1.0  0.09609627976961858  0.448443131890377  0.5161306705666723  1.0000
  C   C12       1.0  0.2501944866691098  0.42516911119744116  0.7227132726198155  1.0000
  C   C13       1.0  0.32338469356500804  0.4034403866191354  0.7645869942412111  1.0000
  C   C14       1.0  0.5194346572367811  0.3828888555659238  0.641565858560995  1.0000
  H   H1        1.0  0.6610138205207442  0.2799932027411176  0.8396967101157775  1.0000
  H   H2        1.0  0.5524777474089597  0.20639401206171293  0.9816046532538405  1.0000
  H   H3        1.0  0.4234169636738729  0.2430323087240196  0.9087279600991137  1.0000
  H   H4        1.0  0.4023655783569447  0.3159517933124907  0.4794278082331241  1.0000
  H   H5        1.0  0.2739917411797108  0.3554164112765412  0.40648532902642454  1.0000
  H   H6        1.0  0.2078083372259739  0.45557114350831696  0.7909096792987867  1.0000
  H   H7        1.0  0.3363172978090402  0.4188400488917736  0.8644388823201196  1.0000
  H   H8        1.0  0.5109021536792031  0.43373287699603763  0.5470460897601344  1.0000
  C   C15       1.0  0.9015155601934361  0.062314454601465334  0.5252793451127382  1.0000
  C   C16       1.0  0.8886518066912432  0.07175206545291136  0.3909436205270733  1.0000
  C   C17       1.0  0.8820568276790994  0.9593977239104402  0.32271822559874397  1.0000
  C   C18       1.0  0.8884721092805359  0.8364880413436819  0.39064415788672996  1.0000
  C   C19       1.0  0.9013477205044442  0.825095454580699  0.5250609272938738  1.0000
  C   C20       1.0  0.9077935211427627  0.9385243622919691  0.5915508399563685  1.0000
  C   C21       1.0  0.8684494571371405  0.970355268483701  0.1806072069021565  1.0000
  C   C22       1.0  0.9065300630556482  0.06542243914306733  0.09741784968335687  1.0000
  C   C23       1.0  0.8937308123392755  0.07560348357623001  0.9636816241801683  1.0000
  C   C24       1.0  0.843062119171385  0.9900499497370441  0.9102793675918256  1.0000
  C   C25       1.0  0.8040638501776851  0.8967767774378899  0.9934431480376468  1.0000
  C   C26       1.0  0.8168904540677181  0.8863403925813896  0.12714076660312593  1.0000
  N   N3        1.0  0.8278445337419266  0.9999722069264804  0.7734168625532214  1.0000
  C   C27       1.0  0.8826760723350943  0.03827853189390627  0.6726490694588528  1.0000
  O   O1        1.0  0.9516012113395099  0.04247835078184425  0.6973103912244611  1.0000
  C   C28       1.0  0.8586780764872561  0.06419340436619511  0.5352151543865409  1.0000
  H   H9        1.0  0.9064868274321548  0.3861611017406302  0.5769438342136352  1.0000
  H   H10       1.0  0.8826962342470062  0.16667165833559827  0.3394074814627186  1.0000
  H   H11       1.0  0.8844188867759308  0.7496100156666587  0.33820087879041005  1.0000
  H   H12       1.0  0.9177181319679596  0.9305301323715682  0.6951662287824992  1.0000
  H   H13       1.0  0.9260995784419773  0.5963202117010776  0.7786138478647782  1.0000
  H   H14       1.0  0.9466546978961006  0.13143148107579883  0.1356503163052145  1.0000
  H   H15       1.0  0.9225375041970645  0.15178174036862122  0.90276102538322  1.0000
  H   H16       1.0  0.7638669214512959  0.8314703510494978  0.9543469521902277  1.0000
  H   H17       1.0  0.7856699808585976  0.8137194834784323  0.18900637682869698  1.0000
  H   H18       1.0  0.7749245875296491  0.9698284787557118  0.7447975732389547  1.0000
  H   H19       1.0  0.8044479385809343  0.11632214847121358  0.5332779532860261  1.0000
  H   H20       1.0  0.8517160464372873  0.9704313415701328  0.49031165866262816  1.0000
  H   H21       1.0  0.901432454127202  0.12534487043922105  0.4778326561531441  1.0000
  C   C29       1.0  0.901344502195297  0.4438090769913017  0.1437821293089894  1.0000
  C   C30       1.0  0.8230998834340353  0.4239258822960057  0.1475937613661662  1.0000
  C   C31       1.0  0.7835884319879274  0.4137394352872681  0.03237661570135608  1.0000
  C   C32       1.0  0.8233231408701412  0.42372256336643366  0.912316167811499  1.0000
  C   C33       1.0  0.9015187261038247  0.4436007708297638  0.9065581291773093  1.0000
  C   C34       1.0  0.9400727959869208  0.45352218933792443  0.02284262038855834  1.0000
  C   C35       1.0  0.7008663463312733  0.3927238021794511  0.03745266128622072  1.0000
  C   C36       1.0  0.6670821934726291  0.30491685423320014  0.9579392518615372  1.0000
  C   C37       1.0  0.5892372246292148  0.2852333182832307  0.9627482558984269  1.0000
  C   C38       1.0  0.5437900590489164  0.35231386760998373  0.047667210902886406  1.0000
  C   C39       1.0  0.577171978529708  0.44095664545628077  0.12622232091917532  1.0000
  C   C40       1.0  0.6550161889902858  0.4606443616353361  0.12156130155921986  1.0000
  C   C41       1.0  0.4599284984241571  0.3334583969950209  0.05050104704356073  1.0000
  C   C42       1.0  0.4261215522252242  0.42641080905543083  0.9546312315205459  1.0000
  C   C43       1.0  0.3983372726563165  0.5028458829560254  0.8757990656218293  1.0000
  H   H22       1.0  0.7928845826537446  0.414565708382419  0.24053627011739542  1.0000
  H   H23       1.0  0.7929989857943218  0.4177468215937976  0.8230926856495683  1.0000
  H   H24       1.0  0.00038741828952270995  0.4688510708621847  0.019117005817271607  1.0000
  H   H25       1.0  0.9315984630136763  0.45120523099357346  0.5768708988618991  1.0000
  H   H26       1.0  0.7009518788514144  0.2503706620766266  0.8930117690958413  1.0000
  H   H27       1.0  0.5643796337230671  0.21746821842312314  0.900362618836779  1.0000
  H   H28       1.0  0.5428636445992042  0.4951829704558739  0.19082525269334874  1.0000
  H   H29       1.0  0.6792605727612891  0.5305019362049819  0.1823335302535758  1.0000
  H   H30       1.0  0.4449571618557615  0.23284671846184835  0.02778030202939785  1.0000
  H   H31       1.0  0.4360112643205015  0.34832294312357726  0.14882772404439515  1.0000
  H   H32       1.0  0.3739661068994432  0.5699538243221165  0.806590648295415  1.0000
  Zn  Zn1       1.0  0.8191138946530158  0.4417049357191724  0.5289921899010329  1.0000
  Zn  Zn2       1.0  0.9837421673089553  0.44570413925388225  0.5213478363375225  1.0000
  C   C44       1.0  0.9014852773388704  0.438466086932577  0.7623787162245577  1.0000
  C   C45       1.0  0.901372582027202  0.44894467041054953  0.2879613535415242  1.0000
  C   C46       1.0  0.9013743758213733  0.6809148995890537  0.5199269752103244  1.0000
  C   C47       1.0  0.9014834277277949  0.20649429595927393  0.5304131668531187  1.0000
  O   O2        1.0  0.9638575786277251  0.45218023323967815  0.33344822757131115  1.0000
  O   O3        1.0  0.9639493305754913  0.43826484736237536  0.7110895811341444  1.0000
  O   O4        1.0  0.9638589343054843  0.6340453089384466  0.5153081235995264  1.0000
  O   O5        1.0  0.9639479186969641  0.2563997796164088  0.5292295903322244  1.0000
  O   O6        1.0  0.8389080870854551  0.6310092939933298  0.5211104385081413  1.0000
  O   O7        1.0  0.8389984829928152  0.4352303928487406  0.7168918263472093  1.0000
  O   O8        1.0  0.8389067307482658  0.4491457338945095  0.3392489113161275  1.0000
  O   O9        1.0  0.8389970708387209  0.25336527095512174  0.5350303714525566  1.0000
