data_image0
_chemical_formula_structural       NC6NCNCH5C6NCH9C6SCH6Zn2C4O8
_chemical_formula_sum              "N4 C26 H20 S1 Zn2 O8"
_cell_length_a       14.933214217465613
_cell_length_b       9.273386996610927
_cell_length_c       10.302812801239593
_cell_angle_alpha    85.46621381537472
_cell_angle_beta     89.96595459003231
_cell_angle_gamma    89.43266693644959

_space_group_name_H-M_alt    "P 1"
_space_group_IT_number       1

loop_
  _space_group_symop_operation_xyz
  'x, y, z'

loop_
  _atom_site_type_symbol
  _atom_site_label
  _atom_site_symmetry_multiplicity
  _atom_site_fract_x
  _atom_site_fract_y
  _atom_site_fract_z
  _atom_site_occupancy
  N   N1        1.0  0.8329377602165666  0.5797403039534285  0.564825758959346  1.0000
  C   C1        1.0  0.7554410000130541  0.5807374123521236  0.5639321722231614  1.0000
  C   C2        1.0  0.6590344552040134  0.5819805518187984  0.5628179801951554  1.0000
  C   C3        1.0  0.6118346131670652  0.48617659880589725  0.6486927551780426  1.0000
  C   C4        1.0  0.5182941260462062  0.4872599350523945  0.647721723129999  1.0000
  C   C5        1.0  0.4710514848372555  0.5840923334385697  0.5609251244595075  1.0000
  C   C6        1.0  0.3744897101519525  0.5819827094149901  0.5628161118773942  1.0000
  N   N2        1.0  0.2970155413248069  0.5802228169032857  0.5643932770334499  1.0000
  C   C7        1.0  0.5183422064258956  0.6811060291355248  0.47396610054272914  1.0000
  N   N3        1.0  0.4723744118471561  0.7817520898956944  0.3837513011760565  1.0000
  C   C8        1.0  0.6123693525413807  0.6790561470598755  0.47580363636869616  1.0000
  H   H1        1.0  0.6473246163209087  0.41064162489627604  0.7163992013107592  1.0000
  H   H2        1.0  0.482698981081249  0.41236037311347346  0.7148584967064173  1.0000
  H   H3        1.0  0.5082665757932776  0.8528380097240403  0.32003273119208964  1.0000
  H   H4        1.0  0.4025980249666839  0.787107318693979  0.3789511557456846  1.0000
  H   H5        1.0  0.6490938467611272  0.7532020961715611  0.4093422228070873  1.0000
  C   C9        1.0  0.06773461118224126  0.15633041984536056  0.5652449377167683  1.0000
  C   C10       1.0  0.08345794473466772  0.23982237333910517  0.44784293678674475  1.0000
  C   C11       1.0  0.09074986425344367  0.17532707262465386  0.3304415362651778  1.0000
  C   C12       1.0  0.08242875690556377  0.025017757310987532  0.3274405265320457  1.0000
  C   C13       1.0  0.06828348966643666  0.9405645300790003  0.4444332795953254  1.0000
  C   C14       1.0  0.06222730359012307  0.0036215508008226056  0.5639853910570907  1.0000
  N   N4        1.0  0.08896367949747153  0.9554852450942196  0.20761610366430516  1.0000
  C   C15       1.0  0.10388124070550786  0.033397259089749116  0.08090982015668646  1.0000
  H   H6        1.0  0.08602938400794652  0.41849414585211336  0.7783752208850931  1.0000
  H   H7        1.0  0.08802531370298589  0.35647301520281993  0.44624587681544986  1.0000
  H   H8        1.0  0.1020426956670713  0.24394093723873111  0.24224381627815417  1.0000
  H   H9        1.0  0.06405678821956373  0.8241590663993001  0.44238912018271687  1.0000
  H   H10       1.0  0.09519811399038236  0.872293857327126  0.8801669040179638  1.0000
  H   H11       1.0  0.0826327904425439  0.8431115404997328  0.2103141890757274  1.0000
  H   H12       1.0  0.0483681986548015  0.11191310876240879  0.05840428886468008  1.0000
  H   H13       1.0  0.1686958945529855  0.0910163912123272  0.0810589214574966  1.0000
  H   H14       1.0  0.10613864960559433  0.9559630169191924  0.004048313356531443  1.0000
  C   C16       1.0  0.06498099340754117  0.5799760026170815  0.1833666912135008  1.0000
  C   C17       1.0  0.033846464258262765  0.7238136996971254  0.17198367833414663  1.0000
  C   C18       1.0  0.018125428193599632  0.7951697719928772  0.04934479672261926  1.0000
  C   C19       1.0  0.033846384513593224  0.723813548171448  0.9368325089452592  1.0000
  C   C20       1.0  0.0649809353872153  0.579975992834437  0.9458635949116178  1.0000
  C   C21       1.0  0.08036855036739343  0.5087474155341337  0.06966974823274286  1.0000
  S   S1        1.0  0.9785296794743165  0.979050708237049  0.036295838940145764  1.0000
  C   C22       1.0  0.8610682734483389  0.9285233892817513  0.03999266884733865  1.0000
  H   H15       1.0  0.02147860384934353  0.7809464422091222  0.25802895686751226  1.0000
  H   H16       1.0  0.021478425918054714  0.7809462342048132  0.8426786443614209  1.0000
  H   H17       1.0  0.10436781666083017  0.39778944342538547  0.07754358105589376  1.0000
  H   H18       1.0  0.8456065196496003  0.8643276643695454  0.9564565516635929  1.0000
  H   H19       1.0  0.8456068936982606  0.8643291227612064  0.1326912411722576  1.0000
  H   H20       1.0  0.8189765820910305  0.028057649798651326  0.03294675375548661  1.0000
  Zn  Zn1       1.0  0.9668606089795272  0.5798756757283667  0.5647084648662395  1.0000
  Zn  Zn2       1.0  0.16309275482695562  0.5800756098058552  0.5645212502439685  1.0000
  C   C23       1.0  0.06501630759130705  0.57422870466901  0.8017439121778389  1.0000
  C   C24       1.0  0.06493918723241748  0.5857244033411009  0.3274859256081579  1.0000
  C   C25       1.0  0.063263708110664  0.8434655008641306  0.5590499184271349  1.0000
  C   C26       1.0  0.06669173101893039  0.31648587378511306  0.5701799912161978  1.0000
  O   O1        1.0  0.13939427428439766  0.5877231991771297  0.3757826195994274  1.0000
  O   O2        1.0  0.13949688580887573  0.5723805658277372  0.753304754510079  1.0000
  O   O3        1.0  0.1380806356847426  0.7897926826964636  0.5573276361838917  1.0000
  O   O4        1.0  0.14081045738071873  0.37031109256040673  0.5717596406302439  1.0000
  O   O5        1.0  0.9891428394613531  0.7896401929071579  0.5574700745370196  1.0000
  O   O6        1.0  0.9905590783152053  0.5722298093326418  0.753447121062927  1.0000
  O   O7        1.0  0.9904564671771651  0.5875723924086553  0.3759234253194339  1.0000
  O   O8        1.0  0.9918726503368872  0.37016027547327224  0.5719005437026767  1.0000
