data_image0
_chemical_formula_structural       NC9NC5H8C8NH7C7NC2NH8Zn2C4O8
_chemical_formula_sum              "N5 C35 H23 Zn2 O8"
_cell_length_a       17.807436237873137
_cell_length_b       9.27426342843186
_cell_length_c       9.27399911348925
_cell_angle_alpha    85.02669958396683
_cell_angle_beta     89.04204372891122
_cell_angle_gamma    89.00683889979415

_space_group_name_H-M_alt    "P 1"
_space_group_IT_number       1

loop_
  _space_group_symop_operation_xyz
  'x, y, z'

loop_
  _atom_site_type_symbol
  _atom_site_label
  _atom_site_symmetry_multiplicity
  _atom_site_fract_x
  _atom_site_fract_y
  _atom_site_fract_z
  _atom_site_occupancy
  N   N1        1.0  0.72105026978108  0.5546374699718846  0.3950748207399839  1.0000
  C   C1        1.0  0.660281453275801  0.5156686494466696  0.38285346211246457  1.0000
  C   C2        1.0  0.5846917246991297  0.4671957283464121  0.3676514189124509  1.0000
  C   C3        1.0  0.5665180041609315  0.3888967366560061  0.25100850639924155  1.0000
  C   C4        1.0  0.4931238749225039  0.3417102505929799  0.2361565627357598  1.0000
  C   C5        1.0  0.43685250618618127  0.3724038671454599  0.3379117984514637  1.0000
  C   C6        1.0  0.35885389913639176  0.3223836047423527  0.3222191487958068  1.0000
  C   C7        1.0  0.29709759874407426  0.4129166187381206  0.35097652816332414  1.0000
  C   C8        1.0  0.2235598515221939  0.3655045552457322  0.33613997097054593  1.0000
  C   C9        1.0  0.1607689827866968  0.45902250625086083  0.36529942149567685  1.0000
  N   N2        1.0  0.11029807870285759  0.5342044585215708  0.3887428174494296  1.0000
  C   C10       1.0  0.2111933390886894  0.22727326555982622  0.29251808848814775  1.0000
  C   C11       1.0  0.2720922122949777  0.13672495014200095  0.2637513966248337  1.0000
  C   C12       1.0  0.34550876781649836  0.18370085244881157  0.2783631913127427  1.0000
  C   C13       1.0  0.4557199555799129  0.4512497044094588  0.4547979363913179  1.0000
  C   C14       1.0  0.5291663071366614  0.4982262618657178  0.4694770497850251  1.0000
  H   H1        1.0  0.609020608246338  0.36461150915761653  0.1713226788418276  1.0000
  H   H2        1.0  0.4801632472399285  0.282891300517802  0.14404156105919874  1.0000
  H   H3        1.0  0.3061028951435724  0.520864172112857  0.38298553846656036  1.0000
  H   H4        1.0  0.1545527377000173  0.1895813823227642  0.2807725642909018  1.0000
  H   H5        1.0  0.26239783318643234  0.02969942116799285  0.23040744893710596  1.0000
  H   H6        1.0  0.3918055549107687  0.1108806330510681  0.2572501149185924  1.0000
  H   H7        1.0  0.4139263968542602  0.4749240827210393  0.5359230254773995  1.0000
  H   H8        1.0  0.542666494309346  0.558410414666165  0.5604332405887569  1.0000
  C   C15       1.0  0.913300028879769  0.1209594871301296  0.3922541921581544  1.0000
  C   C16       1.0  0.9040034635244244  0.20595720598908066  0.26049493892755504  1.0000
  C   C17       1.0  0.9020699370954025  0.14228695218985687  0.12980999251786107  1.0000
  C   C18       1.0  0.9099956996140404  0.9921068484681255  0.12764190388123797  1.0000
  C   C19       1.0  0.9172793164068325  0.9057179067475772  0.2585491305436822  1.0000
  C   C20       1.0  0.918055396898299  0.9678709395487821  0.3915758888076497  1.0000
  C   C21       1.0  0.9067901703021578  0.9235150271651773  0.9868658428843942  1.0000
  C   C22       1.0  0.8289610080870516  0.8889438648841592  0.9560532319065848  1.0000
  N   N3        1.0  0.7675320801708234  0.8616561560344387  0.9317430402684569  1.0000
  H   H9        1.0  0.9770784700637336  0.19297722314287416  0.7239852274582108  1.0000
  H   H10       1.0  0.8998588425111713  0.3228142802859537  0.2581983898238329  1.0000
  H   H11       1.0  0.8950928349450611  0.21045310842069337  0.029897140452187932  1.0000
  H   H12       1.0  0.9205283142478665  0.7890743667990381  0.2565950561622228  1.0000
  H   H13       1.0  0.9580661539441637  0.6663054697528941  0.6169239788060179  1.0000
  H   H14       1.0  0.9414738692390094  0.8225303809492063  0.9918873120338829  1.0000
  H   H15       1.0  0.92925125280081  0.9979320182814905  0.8966781060808112  1.0000
  C   C23       1.0  0.9169956099942987  0.5480377110495716  0.9680395855874431  1.0000
  C   C24       1.0  0.975566888843933  0.4758927437673706  0.04562032294260421  1.0000
  C   C25       1.0  0.02910876188786936  0.3937426554181473  0.976153465476365  1.0000
  C   C26       1.0  0.025514988097919727  0.38092284499925033  0.8269247594372429  1.0000
  C   C27       1.0  0.9680877716439247  0.455443697648829  0.7477650394063868  1.0000
  C   C28       1.0  0.9143598101787045  0.5407926757537413  0.8157904315054205  1.0000
  C   C29       1.0  0.08267221627247531  0.29165333629875123  0.7553606213187711  1.0000
  N   N4        1.0  0.14528533238150843  0.23796693561657434  0.8224166554639623  1.0000
  C   C30       1.0  0.18123957350714992  0.16390530582072205  0.7225599837776504  1.0000
  C   C31       1.0  0.1402533367801575  0.173245604514759  0.5976795359489429  1.0000
  N   N5        1.0  0.07826115403382006  0.2535221741207905  0.618466395352391  1.0000
  H   H16       1.0  0.8380666880796346  0.7342482419271503  0.2357715582173574  1.0000
  H   H17       1.0  0.9789933093976596  0.480005370398477  0.16171269174033398  1.0000
  H   H18       1.0  0.07285695680734894  0.33830772848751334  0.040207228573595266  1.0000
  H   H19       1.0  0.9662079796794751  0.4516394429327142  0.6316933908699673  1.0000
  H   H20       1.0  0.7976286404091398  0.6283318088607361  0.5318694196574016  1.0000
  H   H21       1.0  0.23406301366858037  0.10623245326521925  0.7401080859522748  1.0000
  H   H22       1.0  0.1543997356866919  0.12433791382511664  0.4987909057224908  1.0000
  H   H23       1.0  0.03589303264419064  0.27761003284229324  0.5434346911117829  1.0000
  Zn  Zn1       1.0  0.8333787304674527  0.5487370251461159  0.39325589237948066  1.0000
  Zn  Zn2       1.0  0.9979694969226534  0.5400930473451451  0.39057362182797295  1.0000
  C   C32       1.0  0.9148241002857499  0.5364175210636704  0.6555520322530743  1.0000
  C   C33       1.0  0.9165259342061876  0.5524142753016494  0.12827759288035723  1.0000
  C   C34       1.0  0.9171705448729407  0.8078359722465058  0.38595216389176557  1.0000
  C   C35       1.0  0.9141794234884187  0.2809940938949078  0.3978775405003898  1.0000
  O   O1        1.0  0.9788296094948399  0.5505964546391806  0.18103702926337384  1.0000
  O   O2        1.0  0.9774410035491468  0.5316736782781646  0.6007563999422041  1.0000
  O   O3        1.0  0.9793349405529096  0.7508475415568251  0.38305261129780654  1.0000
  O   O4        1.0  0.9769356167218176  0.3314226055506597  0.39874071058695537  1.0000
  O   O5        1.0  0.85441255450157  0.757407469892001  0.38508880452823235  1.0000
  O   O6        1.0  0.852518627461667  0.5382353397886476  0.6027925148216402  1.0000
  O   O7        1.0  0.8539072385709024  0.5571580807274179  0.18307140875131522  1.0000
  O   O8        1.0  0.8520132454004212  0.3379842204001584  0.40077519830344666  1.0000
