data_image0
_chemical_formula_structural       NC9NC5H8C6SCNH5C8H6Zn2C4O8
_chemical_formula_sum              "N3 C33 H19 S1 Zn2 O8"
_cell_length_a       17.807436237873137
_cell_length_b       10.302215558581764
_cell_length_c       9.275144076552241
_cell_angle_alpha    85.96516146856106
_cell_angle_beta     89.86257050345318
_cell_angle_gamma    88.40943486361951

_space_group_name_H-M_alt    "P 1"
_space_group_IT_number       1

loop_
  _space_group_symop_operation_xyz
  'x, y, z'

loop_
  _atom_site_type_symbol
  _atom_site_label
  _atom_site_symmetry_multiplicity
  _atom_site_fract_x
  _atom_site_fract_y
  _atom_site_fract_z
  _atom_site_occupancy
  N   N1        1.0  0.7009875405771794  0.3776645559915186  0.39881152613903303  1.0000
  C   C1        1.0  0.6403419583451456  0.3424098113051683  0.38657262481099663  1.0000
  C   C2        1.0  0.5649055194950469  0.2985567912559919  0.37134876045109655  1.0000
  C   C3        1.0  0.5463128441897539  0.22645285940583595  0.25480424645905614  1.0000
  C   C4        1.0  0.47306755030262  0.18376293132334573  0.23993113818222336  1.0000
  C   C5        1.0  0.4173659886452991  0.2127992862944412  0.34156648339000717  1.0000
  C   C6        1.0  0.339525526017428  0.16754632697823268  0.3258513237405001  1.0000
  C   C7        1.0  0.277485564229227  0.2494557553962431  0.354648929578129  1.0000
  C   C8        1.0  0.2040979891812065  0.20656293498679545  0.3397909812192268  1.0000
  C   C9        1.0  0.1410101537639442  0.29116545821748474  0.3689927770405204  1.0000
  N   N2        1.0  0.0903005178651916  0.35918004112301727  0.3924702139098786  1.0000
  C   C10       1.0  0.1921666628788383  0.08150260339706937  0.2961072625420207  1.0000
  C   C11       1.0  0.2533492131978985  0.9995792697902123  0.26730034387106194  1.0000
  C   C12       1.0  0.3266163390575044  0.04207628813994591  0.28193346105493045  1.0000
  C   C13       1.0  0.4366511826446339  0.28539893171320674  0.4583543648894395  1.0000
  C   C14       1.0  0.5099485882633447  0.32789746655248564  0.4730547036719235  1.0000
  H   H1        1.0  0.5883705759214123  0.20349022794605554  0.17521208157022738  1.0000
  H   H2        1.0  0.4597596866277364  0.12953594279531333  0.14789657330998618  1.0000
  H   H3        1.0  0.2861361315867385  0.34708954422601956  0.38670921314896983  1.0000
  H   H4        1.0  0.1356458031101443  0.04740412982923381  0.2843446611118787  1.0000
  H   H5        1.0  0.2439948913625554  0.9027572732360233  0.23390789506093837  1.0000
  H   H6        1.0  0.3731558957609621  0.9762202244931248  0.26078509987905485  1.0000
  H   H7        1.0  0.3953162327284594  0.3078313810270006  0.539383149471615  1.0000
  H   H8        1.0  0.523780206977908  0.3833376980160055  0.5639333754254405  1.0000
  C   C15       1.0  0.8955728364368606  0.9871532320769163  0.39560236905191437  1.0000
  C   C16       1.0  0.9710496608456068  0.9797846032394294  0.439729020898085  1.0000
  C   C17       1.0  0.008612079734745749  0.8590797380970313  0.46214412822529766  1.0000
  C   C18       1.0  0.9712454271394719  0.7446008708943953  0.4398478822265546  1.0000
  C   C19       1.0  0.8957224220901833  0.7496811123184122  0.3956917275616143  1.0000
  C   C20       1.0  0.8582926635928196  0.8714580183809705  0.373867396273599  1.0000
  S   S1        1.0  0.10503882909722193  0.8511850941684633  0.517878712912615  1.0000
  C   C21       1.0  0.08102754629844267  0.8406594857986697  0.70297865299085  1.0000
  N   N3        1.0  0.06526316495816298  0.8337605307633135  0.8243278702663137  1.0000
  H   H9        1.0  0.866852799076401  0.31729668677945444  0.3787390622622042  1.0000
  H   H10       1.0  0.0009499504368120055  0.06745127905791093  0.4571277677482162  1.0000
  H   H11       1.0  0.0012799066585571508  0.6519799515991156  0.45732817631699296  1.0000
  H   H12       1.0  0.8000819417424151  0.8762914650770984  0.3398553780175144  1.0000
  H   H13       1.0  0.7533932125417068  0.5520474951360763  0.31231380763472516  1.0000
  C   C22       1.0  0.8938776614671917  0.3658443667589133  0.9723900765216444  1.0000
  C   C23       1.0  0.8449148005179943  0.45284359223276915  0.039171524024691935  1.0000
  C   C24       1.0  0.8019810033530153  0.5459895045725185  0.9569466522736532  1.0000
  C   C25       1.0  0.8072335407599373  0.5540370016779728  0.8064316171707222  1.0000
  C   C26       1.0  0.8546368343094635  0.46701661045824167  0.7379197282475372  1.0000
  C   C27       1.0  0.8974176224736691  0.37099004068908  0.8189041017909919  1.0000
  C   C28       1.0  0.7632093695663745  0.6508037818225878  0.7218550211702587  1.0000
  C   C29       1.0  0.7263524389269049  0.7318202408382479  0.6510284033070635  1.0000
  H   H14       1.0  0.050012092864139636  0.18799308581020702  0.08843041350282956  1.0000
  H   H15       1.0  0.8411567720060319  0.4508394393886917  0.1559025968579424  1.0000
  H   H16       1.0  0.7651888681713839  0.6126546858439552  0.01099214335493137  1.0000
  H   H17       1.0  0.8567915605538079  0.4723093862280483  0.6208006700553215  1.0000
  H   H18       1.0  0.0009136750635003715  0.24719793984047508  0.5473898465806438  1.0000
  H   H19       1.0  0.6939997046191172  0.8029354184037834  0.5888558597823584  1.0000
  Zn  Zn1       1.0  0.8133348891851759  0.3723269105801225  0.396989895751948  1.0000
  Zn  Zn2       1.0  0.9779531985349864  0.364507175162752  0.394303692345614  1.0000
  C   C30       1.0  0.8967458017107501  0.3648451271301003  0.6588942093896741  1.0000
  C   C31       1.0  0.8945440845492368  0.3719905122714724  0.13239949103355375  1.0000
  C   C32       1.0  0.8956662820383287  0.6055124048491365  0.38993133754112863  1.0000
  C   C33       1.0  0.8956235480642241  0.13132167779429982  0.401362440459369  1.0000
  O   O1        1.0  0.9572395315947998  0.37108000175699773  0.185080711390313  1.0000
  O   O2        1.0  0.958991840526058  0.3598196574114021  0.6041738077793686  1.0000
  O   O3        1.0  0.9581192788558551  0.5541615769366801  0.3869843997051965  1.0000
  O   O4        1.0  0.9581120366418199  0.17673809353093617  0.4022700123122711  1.0000
  O   O5        1.0  0.8331759949021609  0.5600959948817978  0.3890235766943788  1.0000
  O   O6        1.0  0.8340485565536171  0.36575563478451495  0.60621290810037  1.0000
  O   O7        1.0  0.8322962404167907  0.37701592334999695  0.1871180788063418  1.0000
  O   O8        1.0  0.8331687459108128  0.182674006494578  0.4043074877896018  1.0000
