data_image0
_chemical_formula_structural       NC12NC2H8C7NH5C6BrH4Zn2C4O8
_chemical_formula_sum              "N3 C31 H17 Br1 Zn2 O8"
_cell_length_a       19.240039667572717
_cell_length_b       9.275154477615127
_cell_length_c       9.27656775626242
_cell_angle_alpha    86.34818767424132
_cell_angle_beta     90.18620512450872
_cell_angle_gamma    89.43370810513201

_space_group_name_H-M_alt    "P 1"
_space_group_IT_number       1

loop_
  _space_group_symop_operation_xyz
  'x, y, z'

loop_
  _atom_site_type_symbol
  _atom_site_label
  _atom_site_symmetry_multiplicity
  _atom_site_fract_x
  _atom_site_fract_y
  _atom_site_fract_z
  _atom_site_occupancy
  N   N1        1.0  0.6445522766993647  0.5623850066181404  0.4168315653466075  1.0000
  C   C1        1.0  0.5844039073002096  0.5623850989668864  0.41683147480669214  1.0000
  C   C2        1.0  0.5095858693078331  0.5623852276900898  0.41683132298180725  1.0000
  C   C3        1.0  0.4736271556805102  0.49193666848548784  0.5312850552630095  1.0000
  C   C4        1.0  0.4009571393310322  0.4918145046186175  0.5313805856341207  1.0000
  C   C5        1.0  0.3632536334974298  0.5623853279869928  0.41683107077081427  1.0000
  C   C6        1.0  0.3999258053913871  0.6329563610639695  0.3022817725863245  1.0000
  C   C7        1.0  0.47259722705637547  0.6328339370692128  0.3023774378325079  1.0000
  C   C8        1.0  0.2860485433124034  0.5623852396197013  0.4168309645550501  1.0000
  C   C9        1.0  0.24952970105179667  0.43709468473714214  0.4627858651970332  1.0000
  C   C10       1.0  0.17685829387960758  0.43721237685825676  0.4626850102744273  1.0000
  C   C11       1.0  0.1397162571743511  0.5623850968697853  0.4168310315644792  1.0000
  C   C12       1.0  0.0648982210397375  0.5623849732884721  0.4168313069584284  1.0000
  N   N2        1.0  0.004749904754875697  0.5623849302272617  0.416831538026343  1.0000
  C   C13       1.0  0.17552173083590417  0.6875579004930055  0.37097699450652466  1.0000
  C   C14       1.0  0.24819170703990856  0.6876757908242337  0.37087595997794987  1.0000
  H   H1        1.0  0.5017418885964807  0.4374012131818446  0.6206491502731513  1.0000
  H   H2        1.0  0.3742613650803757  0.4381772109603677  0.6219859154126612  1.0000
  H   H3        1.0  0.3724350486252279  0.6865936842046263  0.21167638650953813  1.0000
  H   H4        1.0  0.4999122665983838  0.687369284052239  0.213013648382945  1.0000
  H   H5        1.0  0.2771465433602108  0.33845037659842303  0.4969721370696362  1.0000
  H   H6        1.0  0.149664011288772  0.3395775727282162  0.4980213839753566  1.0000
  H   H7        1.0  0.1472861901331183  0.7851926775395252  0.33564063684103407  1.0000
  H   H8        1.0  0.2747613430549052  0.7863201863809244  0.33668963878077585  1.0000
  C   C15       1.0  0.8266631445354063  0.13897935928380667  0.4151641069275085  1.0000
  C   C16       1.0  0.8073921419202498  0.22091436977463608  0.2881171789547772  1.0000
  C   C17       1.0  0.7824780613483959  0.1536977718448216  0.1678001173336836  1.0000
  C   C18       1.0  0.7764256199316507  0.00362927278713898  0.1731129894152421  1.0000
  C   C19       1.0  0.7963363903888586  0.9204582294509608  0.2972639836510127  1.0000
  C   C20       1.0  0.8226457856576129  0.9857796555948097  0.41851141890611543  1.0000
  C   C21       1.0  0.7622800540667222  0.23919960039444876  0.03922194270276535  1.0000
  N   N3        1.0  0.7460464546345662  0.3079274870155424  0.9358780253026845  1.0000
  H   H9        1.0  0.8406776429585634  0.21911390547486567  0.7688608110369601  1.0000
  H   H10       1.0  0.8102240871056978  0.33783190364311044  0.28384175055324534  1.0000
  H   H11       1.0  0.7569072436387652  0.9505971971790492  0.08064177111242654  1.0000
  H   H12       1.0  0.7926865370479003  0.8039893920839359  0.297137174336777  1.0000
  H   H13       1.0  0.8350297625981568  0.689330045770385  0.655498270922648  1.0000
  C   C22       1.0  0.8240106958173532  0.5582359765014129  0.993694610380611  1.0000
  C   C23       1.0  0.7620830009816097  0.5929463657920924  0.06444266210297278  1.0000
  C   C24       1.0  0.7031874889089327  0.6395334003382775  0.9859258321995821  1.0000
  C   C25       1.0  0.7051131097136307  0.6523536323115002  0.8354806645088377  1.0000
  C   C26       1.0  0.7656856119953676  0.616085712096369  0.7629993939740074  1.0000
  C   C27       1.0  0.8252982534750762  0.566523061827507  0.8399808905182042  1.0000
  Br  Br1       1.0  0.6244984006649802  0.7172748437385645  0.7284870733211402  1.0000
  H   H14       1.0  0.9202465806681844  0.4272753982120971  0.28401111768433607  1.0000
  H   H15       1.0  0.6561993989496976  0.6670235209140648  0.04235189091693492  1.0000
  H   H16       1.0  0.7655412834626774  0.6234507758759211  0.6459780437632325  1.0000
  H   H17       1.0  0.9397284363715802  0.5516346090552147  0.5605272886951784  1.0000
  Zn  Zn1       1.0  0.7484975715335538  0.5623812165561359  0.4168398509362361  1.0000
  Zn  Zn2       1.0  0.9008047023800713  0.5623770742878607  0.41683496582403623  1.0000
  C   C28       1.0  0.8250805576492695  0.5592126342288309  0.6799919418101752  1.0000
  C   C29       1.0  0.8242233710378867  0.5655474771928719  0.15368302351672702  1.0000
  C   C30       1.0  0.8233928355254857  0.8256601271686721  0.4121366228058376  1.0000
  C   C31       1.0  0.8259110495250375  0.2990982527182493  0.4215384124981276  1.0000
  O   O1        1.0  0.8820945390276974  0.5679934213937616  0.20737471773840843  1.0000
  O   O2        1.0  0.8828069823540764  0.5567624543670053  0.6262961208055955  1.0000
  O   O3        1.0  0.8814433485060189  0.7719221892972716  0.41000106153986393  1.0000
  O   O4        1.0  0.8834581206903429  0.35283369572119283  0.4236696690057269  1.0000
  O   O5        1.0  0.7658441012483144  0.7719245951257124  0.4100051477486393  1.0000
  O   O6        1.0  0.767207726758037  0.5567665917331363  0.6263001370314014  1.0000
  O   O7        1.0  0.7664952810805388  0.5679974915511468  0.20737700133291548  1.0000
  O   O8        1.0  0.7678588629536282  0.35283775662378924  0.42367206059274154  1.0000
