data_image0
_chemical_formula_structural       NC8NH4C6ClH5C7NH4Zn2C4O8
_chemical_formula_sum              "N3 C25 H13 Cl1 Zn2 O8"
_cell_length_a       13.859017124695912
_cell_length_b       10.30297070629231
_cell_length_c       9.275157849593905
_cell_angle_alpha    86.11098826397364
_cell_angle_beta     89.74086887057864
_cell_angle_gamma    89.99834178165982

_space_group_name_H-M_alt    "P 1"
_space_group_IT_number       1

loop_
  _space_group_symop_operation_xyz
  'x, y, z'

loop_
  _atom_site_type_symbol
  _atom_site_label
  _atom_site_symmetry_multiplicity
  _atom_site_fract_x
  _atom_site_fract_y
  _atom_site_fract_z
  _atom_site_occupancy
  N   N1        1.0  0.913370577749252  0.407049894551055  0.41038876301108906  1.0000
  C   C1        1.0  0.8411864897912871  0.38598428933682294  0.3542346460042785  1.0000
  C   C2        1.0  0.7513937583774196  0.3597817504388341  0.2843861414187119  1.0000
  C   C3        1.0  0.6635719115686992  0.38532656040280844  0.352479645400946  1.0000
  C   C4        1.0  0.576163440246868  0.35978284895114276  0.28438556222927325  1.0000
  C   C5        1.0  0.5767592880897197  0.30868739468048245  0.14817707328508828  1.0000
  C   C6        1.0  0.6643977791784742  0.2832407682763789  0.08034567942372872  1.0000
  C   C7        1.0  0.7516246434442109  0.30868528982197785  0.14817825141330943  1.0000
  C   C8        1.0  0.4859466525621745  0.3859851191390462  0.3542341480805964  1.0000
  N   N2        1.0  0.4134217039849638  0.4070501831045447  0.4103885470412283  1.0000
  H   H1        1.0  0.6632519140941999  0.4248764203874023  0.4579082791290221  1.0000
  H   H2        1.0  0.5096265264609693  0.28858264590055493  0.09458003153145024  1.0000
  H   H3        1.0  0.664717194618785  0.2437716794322793  0.9751305564935945  1.0000
  H   H4        1.0  0.819082736578176  0.2885786585469907  0.09458220869838274  1.0000
  C   C9        1.0  0.1634007221398912  0.02580265685666916  0.4103948810882103  1.0000
  C   C10       1.0  0.2629504341789217  0.022900398425908186  0.438152655036731  1.0000
  C   C11       1.0  0.3123443445737204  0.9045035304714221  0.45192522086681675  1.0000
  C   C12       1.0  0.26295043361365567  0.7877924291681758  0.4381525872602608  1.0000
  C   C13       1.0  0.16340073218765805  0.7882875993848563  0.4103949635849456  1.0000
  C   C14       1.0  0.11411113615991919  0.9078862506661061  0.39665135158595954  1.0000
  Cl  Cl1       1.0  0.43670565352855634  0.9023814342907426  0.4866011946127023  1.0000
  H   H5        1.0  0.12590209160650057  0.3541989981031175  0.3999382069690911  1.0000
  H   H6        1.0  0.3025437743735424  0.1122713631506915  0.44919247260493284  1.0000
  H   H7        1.0  0.30254373652906263  0.697070169424559  0.44919236906518095  1.0000
  H   H8        1.0  0.03733537733396907  0.9091962329226969  0.37524367752699983  1.0000
  H   H9        1.0  0.1259020860778568  0.46117103378674806  0.3999384790567576  1.0000
  C   C15       1.0  0.16468105758176255  0.40337537030779114  0.9871971255241615  1.0000
  C   C16       1.0  0.24784665555714147  0.44569893395418064  0.05689312696076132  1.0000
  C   C17       1.0  0.3260626377098399  0.49823126131087225  0.9770149333818426  1.0000
  C   C18       1.0  0.32202484577885615  0.5092751802368627  0.8263559882887228  1.0000
  C   C19       1.0  0.2408430105122774  0.4659003174204562  0.7553184441796313  1.0000
  C   C20       1.0  0.16212044405325002  0.41071481595732984  0.8335926973770493  1.0000
  C   C21       1.0  0.41017393857237233  0.5423628403972605  0.050018526661485  1.0000
  N   N3        1.0  0.47777788754312045  0.5778327302636939  0.10870110019590974  1.0000
  H   H10       1.0  0.929912765293822  0.3596014254291698  0.09503482421044063  1.0000
  H   H11       1.0  0.3821085110995124  0.5503415206145692  0.7635331700226371  1.0000
  H   H12       1.0  0.24062955457613255  0.47272591761447424  0.6382540047779406  1.0000
  H   H13       1.0  0.005063432574682554  0.3757914191536924  0.556186255167098  1.0000
  Zn  Zn1       1.0  0.05767450889972769  0.4070465837982715  0.4103970273502614  1.0000
  Zn  Zn2       1.0  0.2691177294389804  0.40704300579862857  0.41039210266391535  1.0000
  C   C22       1.0  0.1626022789911057  0.40415549996999944  0.6736057856781019  1.0000
  C   C23       1.0  0.16419226787313468  0.40993572891203733  0.14718348572943918  1.0000
  C   C24       1.0  0.16341315442589877  0.6441118867258284  0.4046521169570825  1.0000
  C   C25       1.0  0.1633813200550407  0.16997778301808314  0.41613723128485614  1.0000
  O   O1        1.0  0.244269825830584  0.41213042342023165  0.20087450081475017  1.0000
  O   O2        1.0  0.24300523421488623  0.4019571068350707  0.6199106180199895  1.0000
  O   O3        1.0  0.2436589401547917  0.5957249368155015  0.40272862766118633  1.0000
  O   O4        1.0  0.24361604806633408  0.21836260179129274  0.41805638312043203  1.0000
  O   O5        1.0  0.08317611811720305  0.5957269878081759  0.4027327468878446  1.0000
  O   O6        1.0  0.08252241240542735  0.4019607169684394  0.6199146604063497  1.0000
  O   O7        1.0  0.08378700932718353  0.41213397328740026  0.20087681054471074  1.0000
  O   O8        1.0  0.08313323123210692  0.21836614330953805  0.41805880089761416  1.0000
