data_image0
_chemical_formula_structural       NC10NC3NH7C6NCOC6H11C7OC6H10Zn2C4O8
_chemical_formula_sum              "N4 C43 H28 O10 Zn2"
_cell_length_a       19.210446455230148
_cell_length_b       10.29965916528486
_cell_length_c       10.299382801718286
_cell_angle_alpha    85.58981362736998
_cell_angle_beta     89.97114799571779
_cell_angle_gamma    89.96405462056512

_space_group_name_H-M_alt    "P 1"
_space_group_IT_number       1

loop_
  _space_group_symop_operation_xyz
  'x, y, z'

loop_
  _atom_site_type_symbol
  _atom_site_label
  _atom_site_symmetry_multiplicity
  _atom_site_fract_x
  _atom_site_fract_y
  _atom_site_fract_z
  _atom_site_occupancy
  N   N1        1.0  0.6559536327025306  0.41989150847337586  0.5678399613372525  1.0000
  C   C1        1.0  0.595725216362233  0.4220989788513314  0.5680719146805937  1.0000
  C   C2        1.0  0.5209209417289915  0.42483583785277484  0.5683592766889558  1.0000
  C   C3        1.0  0.4853165183399247  0.5410644610970761  0.5835134457184372  1.0000
  C   C4        1.0  0.4126510587130682  0.541215983729995  0.5834609037746195  1.0000
  C   C5        1.0  0.3757542272683833  0.4255447922507807  0.5684460183877229  1.0000
  C   C6        1.0  0.298432020496919  0.4241883427407227  0.568294931686602  1.0000
  C   C7        1.0  0.2606958279492503  0.5277443940391837  0.5049711085244395  1.0000
  C   C8        1.0  0.1879173849247602  0.5263421980569973  0.5048615227709294  1.0000
  C   C9        1.0  0.1518737509769481  0.4216414422644388  0.5680248574721678  1.0000
  C   C10       1.0  0.0769441553226766  0.42033938702532936  0.5678875538769392  1.0000
  N   N2        1.0  0.0167062422137326  0.41929249041181754  0.5677771966460452  1.0000
  C   C11       1.0  0.188886299497844  0.31821107453815967  0.6313237181060383  1.0000
  C   C12       1.0  0.2616665627750012  0.31933902128877145  0.6314834494909612  1.0000
  C   C13       1.0  0.4139686027265811  0.3111364038961093  0.5535806774954142  1.0000
  N   N3        1.0  0.48473870625251714  0.31358131338868667  0.5537471320969252  1.0000
  H   H1        1.0  0.5134222271649733  0.6304966722680336  0.5955944776769448  1.0000
  H   H2        1.0  0.3853867704306056  0.6312302688123326  0.5969368676818414  1.0000
  H   H3        1.0  0.28743715152271443  0.6089862191509854  0.45401026870453176  1.0000
  H   H4        1.0  0.1597847441442049  0.6067565697861801  0.45523077074143603  1.0000
  H   H5        1.0  0.16150555286995505  0.23683332610614816  0.6808546341944255  1.0000
  H   H6        1.0  0.2891541123609425  0.23904406871602668  0.6825519673742635  1.0000
  H   H7        1.0  0.3876986404785825  0.22025922315386273  0.5400581517961205  1.0000
  C   C14       1.0  0.8362720545180081  0.03823140346625541  0.5676931135052994  1.0000
  C   C15       1.0  0.8367701780844794  0.04748616186306953  0.43087871439224856  1.0000
  C   C16       1.0  0.8380475596736375  0.9353107207811723  0.3620437423678675  1.0000
  C   C17       1.0  0.8369012775853977  0.8122957063213164  0.43117507224534046  1.0000
  C   C18       1.0  0.8363944547401726  0.8009425939213214  0.5679352499345488  1.0000
  C   C19       1.0  0.8363276497665835  0.9145177483973402  0.6354222987107843  1.0000
  N   N4        1.0  0.8374874912527883  0.948358485107013  0.22197942906116874  1.0000
  C   C20       1.0  0.8701314998694926  0.857160644790955  0.14224861890381701  1.0000
  O   O1        1.0  0.9181430492354464  0.784270977593822  0.1892177292356263  1.0000
  C   C21       1.0  0.8499237265753307  0.8509719724494407  0.0038876127681732845  1.0000
  C   C22       1.0  0.7855654993202885  0.900927552873586  0.9575536155469466  1.0000
  C   C23       1.0  0.7669365365921694  0.8939209701464832  0.8270358461315702  1.0000
  C   C24       1.0  0.8120176405597569  0.836743333179377  0.7415724491285589  1.0000
  C   C25       1.0  0.8757633476095317  0.7860009940740055  0.7865303508760092  1.0000
  C   C26       1.0  0.8946580693624158  0.7926507836972524  0.9169436007832649  1.0000
  H   H8        1.0  0.8346680328224824  0.2280389157894238  0.8257690424793624  1.0000
  H   H9        1.0  0.8366999309779954  0.14208562765514676  0.37705641833743697  1.0000
  H   H10       1.0  0.8351822399357973  0.7254981956185069  0.37837071074354706  1.0000
  H   H11       1.0  0.8359529605340245  0.906517970595974  0.740890759786093  1.0000
  H   H12       1.0  0.8352739502235557  0.46913999598067796  0.6203962605957105  1.0000
  H   H13       1.0  0.8176343765802948  0.03451589648130061  0.17604304847899344  1.0000
  H   H14       1.0  0.749076794865304  0.9436968693205368  0.022041483012651186  1.0000
  H   H15       1.0  0.7173341644154009  0.9324302204809033  0.7922591842194513  1.0000
  H   H16       1.0  0.7974586424626391  0.831391557708082  0.6406187973136036  1.0000
  H   H17       1.0  0.9106053823419077  0.7414383118620322  0.7202790735606746  1.0000
  H   H18       1.0  0.9444351609153573  0.7529547137444303  0.9495015529830124  1.0000
  C   C27       1.0  0.8364026872355191  0.41951367860559596  0.18644436989855517  1.0000
  C   C28       1.0  0.9095325434974477  0.4202557011503907  0.18512826802234073  1.0000
  C   C29       1.0  0.946416930374641  0.4191419129315297  0.06740587555468491  1.0000
  C   C30       1.0  0.9093629211239912  0.4202840188942994  0.9498827377433545  1.0000
  C   C31       1.0  0.8362638059070273  0.4196603614292498  0.9491839747178319  1.0000
  C   C32       1.0  0.8002076600391399  0.4189340951147826  0.06803043282652954  1.0000
  C   C33       1.0  0.02363277495870287  0.4213093134715513  0.06576468090000431  1.0000
  O   O2        1.0  0.05431299307262539  0.4819658765790593  0.9712517664487224  1.0000
  C   C34       1.0  0.06604361771153357  0.3546572039554392  0.17124232486603175  1.0000
  C   C35       1.0  0.1314794804421633  0.4050072073908329  0.20234838302763047  1.0000
  C   C36       1.0  0.17219319929555654  0.34200714851697844  0.30057572621697815  1.0000
  C   C37       1.0  0.14832337287372477  0.22774578825200595  0.3679075211128844  1.0000
  C   C38       1.0  0.08381032727079307  0.1759473223349568  0.3367778240178332  1.0000
  C   C39       1.0  0.04289824972937506  0.2385690067551038  0.23865245578556138  1.0000
  H   H19       1.0  0.6983960242528214  0.4201250191984587  0.39609323337389357  1.0000
  H   H20       1.0  0.9378912641706522  0.42315902268707534  0.2757231163244971  1.0000
  H   H21       1.0  0.9377283415904036  0.42040826746926346  0.8589263754245519  1.0000
  H   H22       1.0  0.7438300509704637  0.41836285033078774  0.06824081316506003  1.0000
  H   H23       1.0  0.8081825272919619  0.4205257322384412  0.6213740808791446  1.0000
  H   H24       1.0  0.15081941831412826  0.4936461364959013  0.15143769830211884  1.0000
  H   H25       1.0  0.22230643023488297  0.3818067869629793  0.32445236587834536  1.0000
  H   H26       1.0  0.17993729591538843  0.17906713152932485  0.4438299752153816  1.0000
  H   H27       1.0  0.06560337044970366  0.08685061365028202  0.38831692888479097  1.0000
  H   H28       1.0  0.993620337848  0.19548588653541518  0.21458840739237872  1.0000
  Zn  Zn1       1.0  0.7600590403614753  0.4197151822644005  0.5678293467884363  1.0000
  Zn  Zn2       1.0  0.9126008149801759  0.419458236349151  0.567798443637558  1.0000
  C   C40       1.0  0.8362876952306525  0.41445906559416823  0.8050082485811297  1.0000
  C   C41       1.0  0.836373826102214  0.4247159888219274  0.33061966949440547  1.0000
  C   C42       1.0  0.836368686620631  0.6567729825398212  0.5627143163243249  1.0000
  C   C43       1.0  0.8362927823973696  0.18240051170868976  0.5729136705051674  1.0000
  O   O3        1.0  0.894252947622581  0.42635875640051907  0.37899448771287014  1.0000
  O   O4        1.0  0.894184250980297  0.4126203022381836  0.7566096014282198  1.0000
  O   O5        1.0  0.8942488719373198  0.6082918562236883  0.5609555374479029  1.0000
  O   O6        1.0  0.8941882746326008  0.23068721177398688  0.5746484543317818  1.0000
  O   O7        1.0  0.7784715286540305  0.6084862069286598  0.5609793360979276  1.0000
  O   O8        1.0  0.7784069079568534  0.41281621319983547  0.756633331328002  1.0000
  O   O9        1.0  0.7784756049224192  0.426554621806855  0.3790166561938686  1.0000
  O   O10       1.0  0.7784109319103764  0.23088306791044566  0.5746707201779007  1.0000
