data_image0
_chemical_formula_structural       NC8NC6H8C12OCH10C12BrH8Zn2C4O8
_chemical_formula_sum              "N2 C43 H26 O9 Br1 Zn2"
_cell_length_a       17.457602349358154
_cell_length_b       10.29979075500242
_cell_length_c       10.299148005577397
_cell_angle_alpha    85.54790519994738
_cell_angle_beta     92.84953389996222
_cell_angle_gamma    91.670799932812

_space_group_name_H-M_alt    "P 1"
_space_group_IT_number       1

loop_
  _space_group_symop_operation_xyz
  'x, y, z'

loop_
  _atom_site_type_symbol
  _atom_site_label
  _atom_site_symmetry_multiplicity
  _atom_site_fract_x
  _atom_site_fract_y
  _atom_site_fract_z
  _atom_site_occupancy
  N   N1        1.0  0.722538895079262  0.45301464239144884  0.62631728958722  1.0000
  C   C1        1.0  0.661472174234916  0.40709180148291196  0.6157059481411686  1.0000
  C   C2        1.0  0.5855025868225519  0.3499695002394444  0.6025149810369723  1.0000
  C   C3        1.0  0.5269461651183018  0.3901193981201057  0.6774107432192946  1.0000
  C   C4        1.0  0.4524141090922  0.33511523123591735  0.6648340156639887  1.0000
  C   C5        1.0  0.3902651733436178  0.3775075741904244  0.7441514814242873  1.0000
  C   C6        1.0  0.3157304584847349  0.3959840601214475  0.688384455882951  1.0000
  C   C7        1.0  0.2571740375905926  0.43595001938755673  0.7633881936944158  1.0000
  C   C8        1.0  0.1812016652524128  0.45503268171761446  0.7054055805745376  1.0000
  N   N2        1.0  0.1201327955116619  0.47036876261912003  0.6587877113302634  1.0000
  C   C9        1.0  0.2726599854912052  0.4576825535153701  0.8946674646527862  1.0000
  C   C10       1.0  0.34640981976405666  0.4395949893218108  0.9508220598819019  1.0000
  C   C11       1.0  0.4049544777075801  0.39980901240306865  0.876276038350617  1.0000
  C   C12       1.0  0.4377276358916773  0.2392839742682562  0.5759286336051292  1.0000
  C   C13       1.0  0.4962721794129647  0.19941269143171828  0.5014328579461129  1.0000
  C   C14       1.0  0.5700192986993816  0.25452914920548286  0.5145595398786444  1.0000
  H   H1        1.0  0.5392583457932434  0.46530242752496465  0.7440357169286769  1.0000
  H   H2        1.0  0.3034161332627079  0.38102940169829924  0.5863585258479229  1.0000
  H   H3        1.0  0.22777730131576765  0.4885559411779403  0.9535018633129163  1.0000
  H   H4        1.0  0.3582102547125279  0.45610733807182857  0.05247455932049383  1.0000
  H   H5        1.0  0.46143016215677524  0.3848105118290468  0.9223853692988655  1.0000
  H   H6        1.0  0.3812540963795874  0.19395079698216328  0.5652811139608849  1.0000
  H   H7        1.0  0.48447393522763404  0.12534628520183722  0.4336094139305196  1.0000
  H   H8        1.0  0.6149020438752699  0.22278600130606876  0.45623636997013506  1.0000
  C   C15       1.0  0.9214084448178337  0.08032709326925105  0.6425973826710951  1.0000
  C   C16       1.0  0.8991648338565974  0.06817001500819564  0.7722257027562058  1.0000
  C   C17       1.0  0.8878329556300676  0.9448709938810639  0.8378712341722208  1.0000
  C   C18       1.0  0.899027022231875  0.8328817166827349  0.7721486595479581  1.0000
  C   C19       1.0  0.9212705993927633  0.8430465788426745  0.6425194041392723  1.0000
  C   C20       1.0  0.9323385448241082  0.9672049421617035  0.5784704187953373  1.0000
  C   C21       1.0  0.8643051488517056  0.9330638009920831  0.9750123572220593  1.0000
  C   C22       1.0  0.8083155983205714  0.8397468604986154  0.015507738421559615  1.0000
  C   C23       1.0  0.7862409745749938  0.8289109553154171  0.1444508008460964  1.0000
  C   C24       1.0  0.819659136598844  0.9107015064071906  0.23453267882891626  1.0000
  C   C25       1.0  0.8758524137257486  0.004636137519349994  0.19592573838176108  1.0000
  C   C26       1.0  0.8976893478800463  0.015100561113134072  0.06643653744343014  1.0000
  O   O1        1.0  0.9112913011075544  0.0888700434241112  0.28269272138544954  1.0000
  C   C27       1.0  0.8948065461564277  0.08910680212815826  0.416689586411738  1.0000
  H   H9        1.0  0.8895838412418251  0.15477020587198861  0.8218746289162319  1.0000
  H   H10       1.0  0.8913649167711565  0.7376390497359646  0.8228934579629886  1.0000
  H   H11       1.0  0.9494991413233212  0.9758152437038572  0.47846769484161444  1.0000
  H   H12       1.0  0.7808935568535755  0.7763314037008119  0.9470552885148613  1.0000
  H   H13       1.0  0.7429033311179283  0.7570439922735143  0.17459207957421874  1.0000
  H   H14       1.0  0.801450545178704  0.9001413194267717  0.3337174477827246  1.0000
  H   H15       1.0  0.9416455822622353  0.08656807482243334  0.03785871351555026  1.0000
  H   H16       1.0  0.9080451317554378  0.9931475790851172  0.4683959543093125  1.0000
  H   H17       1.0  0.9309975467579067  0.16531879127067417  0.4618617134128231  1.0000
  H   H18       1.0  0.83355873685308  0.11134184806897343  0.4261238786530258  1.0000
  C   C28       1.0  0.9214440704207318  0.4617434543777934  0.2611787560712107  1.0000
  C   C29       1.0  0.8492706856323261  0.5193729292187079  0.24984220139786054  1.0000
  C   C30       1.0  0.8125692232758835  0.5485343251277404  0.12694724346307584  1.0000
  C   C31       1.0  0.8490146509277771  0.5192889490288799  0.014544263184304239  1.0000
  C   C32       1.0  0.9212349370545866  0.4616302545874252  0.0239380392308266  1.0000
  C   C33       1.0  0.9570047937216715  0.4332105685797287  0.14764267376727824  1.0000
  C   C34       1.0  0.7362190406479772  0.6095013102883114  0.11599949761900952  1.0000
  C   C35       1.0  0.7200857885916598  0.7101146681074302  0.19475109152083328  1.0000
  C   C36       1.0  0.6481903579669624  0.7673854187506755  0.1842494308790339  1.0000
  C   C37       1.0  0.5916109337592942  0.7249722334202288  0.09526758637513466  1.0000
  C   C38       1.0  0.6069735021058755  0.6251121007809746  0.016600518661680445  1.0000
  C   C39       1.0  0.6788037484473479  0.5676165400477158  0.026704336823182736  1.0000
  Br  Br1       1.0  0.49344690462565793  0.8033580670378879  0.08119332721506245  1.0000
  H   H19       1.0  0.8209573086924172  0.5400833028015161  0.3368675159493322  1.0000
  H   H20       1.0  0.8214581032311877  0.5431810704293747  0.9194751249566036  1.0000
  H   H21       1.0  0.012675036578666093  0.3887635031722117  0.15567088979151023  1.0000
  H   H22       1.0  0.05776102182222087  0.3535470735138273  0.8343368211808021  1.0000
  H   H23       1.0  0.7633678275793637  0.7456208677142693  0.2631904599172399  1.0000
  H   H24       1.0  0.6365909374522056  0.8449452889299774  0.24509981487483026  1.0000
  H   H25       1.0  0.5632372405486612  0.5917380567811088  0.9478168659518427  1.0000
  H   H26       1.0  0.6891195569743734  0.4893113533443046  0.9659502779894469  1.0000
  Zn  Zn1       1.0  0.8372759048490419  0.4580191828421401  0.6356950509381943  1.0000
  Zn  Zn2       1.0  0.005395770501508866  0.4653535728867386  0.6494205838942864  1.0000
  C   C40       1.0  0.921273701032595  0.45647794831040645  0.8797606201281634  1.0000
  C   C41       1.0  0.9213998098505207  0.4668965260925466  0.4053552918893224  1.0000
  C   C42       1.0  0.9212941060618597  0.6988769795408751  0.637358540191012  1.0000
  C   C43       1.0  0.9213793477167501  0.22449593206355312  0.6477574365429177  1.0000
  O   O2        1.0  0.985185569474026  0.4714036411528183  0.45895102318333203  1.0000
  O   O3        1.0  0.9850870296900085  0.45753648593143964  0.8365818770041513  1.0000
  O   O4        1.0  0.9851026465761841  0.6532767314827047  0.6408404120642892  1.0000
  O   O5        1.0  0.9851698952449469  0.27566340240339615  0.6546923860612388  1.0000
  O   O6        1.0  0.8575017227345462  0.6477093508240299  0.6304232440805596  1.0000
  O   O7        1.0  0.8574861055818194  0.4519706655698376  0.826164639613296  1.0000
  O   O8        1.0  0.8575846458531321  0.46583777576971896  0.44853222435658835  1.0000
  O   O9        1.0  0.857568971595899  0.2700975277170019  0.6442736846057684  1.0000
