data_image0
_chemical_formula_structural       NC6NC2H4C6ClH5C6FH3Zn2C4O8
_chemical_formula_sum              "N2 C24 H12 Cl1 F1 Zn2 O8"
_cell_length_a       14.927258858638513
_cell_length_b       9.276545438789551
_cell_length_c       9.275646106892307
_cell_angle_alpha    84.98577803735094
_cell_angle_beta     90.02253301230535
_cell_angle_gamma    89.40960950127158

_space_group_name_H-M_alt    "P 1"
_space_group_IT_number       1

loop_
  _space_group_symop_operation_xyz
  'x, y, z'

loop_
  _atom_site_type_symbol
  _atom_site_label
  _atom_site_symmetry_multiplicity
  _atom_site_fract_x
  _atom_site_fract_y
  _atom_site_fract_z
  _atom_site_occupancy
  N   N1        1.0  0.8329661628687942  0.5950011124793941  0.40889472154439166  1.0000
  C   C1        1.0  0.7554396718869741  0.595001083860278  0.40889473212922134  1.0000
  C   C2        1.0  0.6590071635901634  0.5950011994761446  0.408894682276151  1.0000
  C   C3        1.0  0.6120668237287572  0.5726638989018666  0.2820406394388193  1.0000
  C   C4        1.0  0.5183555121793172  0.5726639259574557  0.2820405058333222  1.0000
  C   C5        1.0  0.4711911007410664  0.5950010217489681  0.40889470082361923  1.0000
  C   C6        1.0  0.37475852545269833  0.5950011373678621  0.40889465096461963  1.0000
  N   N2        1.0  0.2972320344708783  0.5950011087487455  0.4088946615494493  1.0000
  C   C7        1.0  0.5181313736109155  0.617338322326273  0.535748743655021  1.0000
  C   C8        1.0  0.6118426851603558  0.6173382952706841  0.5357488772605181  1.0000
  H   H1        1.0  0.6478501898517101  0.5552842210254125  0.1833409136220241  1.0000
  H   H2        1.0  0.4827465330743247  0.5552844185917403  0.1833409087970308  1.0000
  H   H3        1.0  0.48234807457568274  0.6347179887341194  0.6344485776824373  1.0000
  H   H4        1.0  0.6474516636744199  0.6347178987804303  0.6344485845169427  1.0000
  C   C9        1.0  0.06780701413561287  0.17156849162783705  0.40865677866398187  1.0000
  C   C10       1.0  0.0680958691588831  0.2566384977366232  0.2754399083017307  1.0000
  C   C11       1.0  0.06023558060379333  0.19294676951010659  0.1451225274328094  1.0000
  C   C12       1.0  0.0519007145788424  0.043346101481297916  0.1460171160033441  1.0000
  C   C13       1.0  0.05299305809260435  0.9567637172640826  0.27678878893033243  1.0000
  C   C14       1.0  0.062399868027142265  0.018422519591320803  0.40914511437293966  1.0000
  Cl  Cl1       1.0  0.059479338481480244  0.3013227491818462  0.9803482641842423  1.0000
  H   H5        1.0  0.11370948789924556  0.4321112320250459  0.6355728293536866  1.0000
  H   H6        1.0  0.07229244568364757  0.3733894913282358  0.27258235483779925  1.0000
  H   H7        1.0  0.04542774490863466  0.9936980816307875  0.045195808741984374  1.0000
  H   H8        1.0  0.04861239577664378  0.8405315126859283  0.2741347832434775  1.0000
  H   H9        1.0  0.032457206647459574  0.717201779226955  0.6425313358317031  1.0000
  C   C15       1.0  0.0649703538458628  0.5995086037090143  0.9850630991969963  1.0000
  C   C16       1.0  0.1468991608375052  0.6145789700924891  0.057132636136228765  1.0000
  C   C17       1.0  0.22780400366865802  0.6161101406104461  0.9816876956191547  1.0000
  C   C18       1.0  0.2282018336537862  0.6024531121923591  0.8333035659538952  1.0000
  C   C19       1.0  0.14766146693787396  0.5897869633299082  0.7593034562426921  1.0000
  C   C20       1.0  0.06523647209672162  0.5904823876626679  0.8327387773223149  1.0000
  F   F1        1.0  0.3061717238804105  0.629128328930223  0.05313041052812938  1.0000
  H   H10       1.0  0.8579912741424925  0.4823621419629629  0.09814847030213869  1.0000
  H   H11       1.0  0.29101813354513295  0.6030563328183389  0.7749885469329674  1.0000
  H   H12       1.0  0.9250707776679498  0.5175438340499364  0.5578509745902398  1.0000
  Zn  Zn1       1.0  0.9669432999866863  0.5949971588529229  0.40890304177267356  1.0000
  Zn  Zn2       1.0  0.16325498736513866  0.5949931254577445  0.4088981741250237  1.0000
  C   C21       1.0  0.06522087580144746  0.5864442022223876  0.6725066132854407  1.0000
  C   C22       1.0  0.06497954369579564  0.6035478998892327  0.14529474526920705  1.0000
  C   C23       1.0  0.06341549931437407  0.858410291918757  0.4033013233182663  1.0000
  C   C24       1.0  0.06678486428094571  0.33158007697652336  0.4145001111880735  1.0000
  O   O1        1.0  0.1394819303324012  0.6048957032819544  0.19906809855090213  1.0000
  O   O2        1.0  0.13971452435688894  0.5850922542177708  0.6187291494673413  1.0000
  O   O3        1.0  0.13825565619699326  0.8047082951684625  0.40134397403620103  1.0000
  O   O4        1.0  0.14094073140457708  0.38527967379987066  0.4164531657714208  1.0000
  O   O5        1.0  0.9892574889556911  0.804710610513824  0.4013480501203466  1.0000
  O   O6        1.0  0.9907163460259546  0.5850963027824994  0.6187331495938646  1.0000
  O   O7        1.0  0.9904837518370367  0.6048997200767563  0.19907036337147876  1.0000
  O   O8        1.0  0.9919425530053758  0.38528367912909145  0.4164555387966893  1.0000
