data_image0
_chemical_formula_structural       NC11NC3H8C12NCOCH13C13OH12Zn2C4O8
_chemical_formula_sum              "N3 C45 H33 O10 Zn2"
_cell_length_a       17.807433833752565
_cell_length_b       10.299155265289649
_cell_length_c       10.299153481560893
_cell_angle_alpha    85.56585442832863
_cell_angle_beta     88.54091418840825
_cell_angle_gamma    90.66237101144993

_space_group_name_H-M_alt    "P 1"
_space_group_IT_number       1

loop_
  _space_group_symop_operation_xyz
  'x, y, z'

loop_
  _atom_site_type_symbol
  _atom_site_label
  _atom_site_symmetry_multiplicity
  _atom_site_fract_x
  _atom_site_fract_y
  _atom_site_fract_z
  _atom_site_occupancy
  N   N1        1.0  0.7068467964366757  0.4380036310676805  0.5342698722010681  1.0000
  C   C1        1.0  0.6560463063968891  0.40330043414306527  0.6008413477069066  1.0000
  C   C2        1.0  0.5928453690849551  0.3601325165332905  0.6836477682119095  1.0000
  C   C3        1.0  0.6046073871200892  0.29662571338790467  0.8063828833007791  1.0000
  C   C4        1.0  0.5433130842150061  0.25513679610698503  0.8869049285427283  1.0000
  C   C5        1.0  0.4701025937920451  0.2768416413310474  0.8453327364663688  1.0000
  C   C6        1.0  0.45736366999312794  0.34050282752122285  0.7221373845449677  1.0000
  C   C7        1.0  0.3795841939393115  0.3635368010765123  0.6777841935517359  1.0000
  C   C8        1.0  0.36078223864596304  0.34661310827807035  0.5482091022177469  1.0000
  C   C9        1.0  0.2875418067029855  0.3682792058120587  0.50659284940333  1.0000
  C   C10       1.0  0.23216004643032534  0.40718722624359915  0.593731331249546  1.0000
  C   C11       1.0  0.156782516325093  0.42951130391168557  0.5507536117352849  1.0000
  N   N2        1.0  0.0961843564606174  0.4474582038356342  0.5162026531649355  1.0000
  C   C12       1.0  0.2502703014232616  0.4243213037073921  0.7227752338825364  1.0000
  C   C13       1.0  0.3234580228585016  0.4026203730880045  0.764646924206956  1.0000
  C   C14       1.0  0.5195152885846664  0.3819871859445601  0.6416317562900815  1.0000
  H   H1        1.0  0.6610826915947  0.2792230437793084  0.8397529965042911  1.0000
  H   H2        1.0  0.5525381953813593  0.2057180454331602  0.9816540556787465  1.0000
  H   H3        1.0  0.4234817373222983  0.2423079697097039  0.908780897777173  1.0000
  H   H4        1.0  0.4024558335865794  0.31494250349078895  0.4795015712896408  1.0000
  H   H5        1.0  0.2740863259901745  0.3543587054031505  0.4065626305273804  1.0000
  H   H6        1.0  0.207880104107635  0.4547686018330125  0.7909683323493573  1.0000
  H   H7        1.0  0.3363847002842368  0.4180863127099595  0.8644939684642398  1.0000
  H   H8        1.0  0.5109883953515996  0.432768469254697  0.5471165726493901  1.0000
  C   C15       1.0  0.9016030938548266  0.06133559903979546  0.5253508839082008  1.0000
  C   C16       1.0  0.8887473139968552  0.0706840436679941  0.39102167595732534  1.0000
  C   C17       1.0  0.8821563845778317  0.958284417069637  0.3227995906473682  1.0000
  C   C18       1.0  0.8885676343610813  0.8354198207884614  0.39072222784393396  1.0000
  C   C19       1.0  0.9014352671302635  0.8241164540427612  0.5251324766847993  1.0000
  C   C20       1.0  0.9078771211869151  0.9375894948721164  0.5916191639172801  1.0000
  C   C21       1.0  0.8685574491912015  0.9691476345168997  0.18069546576559636  1.0000
  C   C22       1.0  0.906642992905218  0.06415958769171004  0.09751014406795844  1.0000
  C   C23       1.0  0.8938516802491413  0.0742518638230949  0.9637804061178201  1.0000
  C   C24       1.0  0.843186156830742  0.9886628838838674  0.9103807400764383  1.0000
  C   C25       1.0  0.8041829515596711  0.8954449120925171  0.9935404862418284  1.0000
  C   C26       1.0  0.817001619680965  0.8850972699121847  0.12723161912708303  1.0000
  N   N3        1.0  0.8279766950253296  0.998494297682864  0.7735248742469092  1.0000
  C   C27       1.0  0.8828142148013406  0.03673373736297748  0.6727619694047764  1.0000
  O   O1        1.0  0.9517378900059635  0.040949925365899136  0.697422094848053  1.0000
  C   C28       1.0  0.8588243764942174  0.06255738716764815  0.5353347212606776  1.0000
  H   H9        1.0  0.9065712944911487  0.3852165388243707  0.577012866761351  1.0000
  H   H10       1.0  0.8827948005366582  0.16556942909845374  0.33948803691444907  1.0000
  H   H11       1.0  0.8845175246848072  0.7485069855390322  0.338281492774515  1.0000
  H   H12       1.0  0.917795581807102  0.9296640403494774  0.6952295263541188  1.0000
  H   H13       1.0  0.9261720751561947  0.5955095085865578  0.7786730973869356  1.0000
  H   H14       1.0  0.9467653584156944  0.13019400667633585  0.13574075603035873  1.0000
  H   H15       1.0  0.9226619881158669  0.1503896841662138  0.9028627625831054  1.0000
  H   H16       1.0  0.7639883434308523  0.8301125353462595  0.9544461869534281  1.0000
  H   H17       1.0  0.7857774743707182  0.8125174245160687  0.18909422824785405  1.0000
  H   H18       1.0  0.7750584475423482  0.9683315732700457  0.7449069732562394  1.0000
  H   H19       1.0  0.804594353572591  0.11468484544265854  0.5333976141339152  1.0000
  H   H20       1.0  0.8518650117404706  0.9687655193801235  0.49043340380828043  1.0000
  H   H21       1.0  0.9015821601352616  0.12367076522898701  0.4779550066560247  1.0000
  C   C29       1.0  0.901454680042215  0.4425770001363565  0.14387217455935275  1.0000
  C   C30       1.0  0.8237896488205605  0.41630900634482226  0.14815494380577698  1.0000
  C   C31       1.0  0.78454807338386  0.40315666791255517  0.03315247029874446  1.0000
  C   C32       1.0  0.823966823951795  0.4166306309019532  0.9128386602696548  1.0000
  C   C33       1.0  0.9015836716171276  0.4428750187753225  0.9066111862657031  1.0000
  C   C34       1.0  0.9398743914812034  0.45569135437946234  0.022682488333924715  1.0000
  C   C35       1.0  0.7024369790071695  0.3753980126576686  0.03865348259645906  1.0000
  C   C36       1.0  0.654909387471684  0.4394853848072909  0.9481720341898027  1.0000
  C   C37       1.0  0.5776379908061002  0.4134067974454898  0.9534267537669091  1.0000
  C   C38       1.0  0.5465937913692984  0.3219340767769612  0.04835427147569327  1.0000
  C   C39       1.0  0.5936171632975283  0.2589308200364606  0.13977732346965954  1.0000
  C   C40       1.0  0.6708921303732766  0.2849798445517475  0.13470059665886702  1.0000
  C   C41       1.0  0.46334677701037513  0.296624152091401  0.05614067097333141  1.0000
  O   O2        1.0  0.4295848843278754  0.383398725069689  0.13718859979673792  1.0000
  H   H22       1.0  0.0479555510249563  0.49298651138065974  0.3430208003705555  1.0000
  H   H23       1.0  0.7935037006997656  0.4078092790852446  0.24103825115832134  1.0000
  H   H24       1.0  0.7941627397790205  0.4048538019326651  0.8240458823097088  1.0000
  H   H25       1.0  0.9997421813146617  0.47593807203973304  0.018594889832462373  1.0000
  H   H26       1.0  0.931427883413664  0.45305521383743425  0.5767342653936343  1.0000
  H   H27       1.0  0.6773504821243909  0.5112917360017892  0.8745518542741793  1.0000
  H   H28       1.0  0.5419827079709987  0.4648250701828185  0.8835850052437513  1.0000
  H   H29       1.0  0.5704828523121542  0.18931419201554547  0.21486889836802958  1.0000
  H   H30       1.0  0.7060959574179788  0.2333500939246604  0.20508656798723843  1.0000
  H   H31       1.0  0.4514458440742107  0.19454032499979124  0.09554200795779311  1.0000
  H   H32       1.0  0.4395649022819936  0.3094128930665383  0.9571094480668875  1.0000
  H   H33       1.0  0.374977556036265  0.36271764524771966  0.13902501847916016  1.0000
  Zn  Zn1       1.0  0.819201207934433  0.44072854458272004  0.5290635485861517  1.0000
  Zn  Zn2       1.0  0.9838299343293596  0.4447226741273316  0.5214195658507332  1.0000
  C   C42       1.0  0.901558737707127  0.43764460764234686  0.7624387533140138  1.0000
  C   C43       1.0  0.9014742019581844  0.44780829346666806  0.2880444046482862  1.0000
  C   C44       1.0  0.901462227178548  0.6799324913565583  0.5199987736496012  1.0000
  C   C45       1.0  0.9015706566655669  0.20551884800564627  0.5304844566065527  1.0000
  O   O3        1.0  0.9639564986354259  0.4510740485084573  0.33352907210683824  1.0000
  O   O4        1.0  0.9640258352665957  0.4374093245704352  0.7111521062628998  1.0000
  O   O5        1.0  0.9639470598196604  0.6330598349127294  0.5153801460995966  1.0000
  O   O6        1.0  0.9640352178872184  0.2554235460560583  0.5293009375010331  1.0000
  O   O7        1.0  0.838995868196868  0.6300276712924036  0.5211821795375366  1.0000
  O   O8        1.0  0.8390746432852935  0.43437872133533095  0.7169540700086696  1.0000
  O   O9        1.0  0.8390053064500225  0.4480433994053843  0.33932947446010586  1.0000
  O   O10       1.0  0.8390840257172518  0.25239288770150115  0.5351014372250935  1.0000
