data_image0
_chemical_formula_structural       NC8NH4C9H10C7OH5Zn2C4O8
_chemical_formula_sum              "N2 C28 H19 O9 Zn2"
_cell_length_a       13.859017124695912
_cell_length_b       10.297183801781406
_cell_length_c       9.274074313596557
_cell_angle_alpha    86.09469829957582
_cell_angle_beta     90.23359480828564
_cell_angle_gamma    89.9976557662862

_space_group_name_H-M_alt    "P 1"
_space_group_IT_number       1

loop_
  _space_group_symop_operation_xyz
  'x, y, z'

loop_
  _atom_site_type_symbol
  _atom_site_label
  _atom_site_symmetry_multiplicity
  _atom_site_fract_x
  _atom_site_fract_y
  _atom_site_fract_z
  _atom_site_occupancy
  N   N1        1.0  0.9042073895527645  0.40762424036365835  0.40949510460161465  1.0000
  C   C1        1.0  0.8317003359063164  0.3865369051097819  0.35334617326114426  1.0000
  C   C2        1.0  0.741505876679995  0.36030733705291396  0.2835041187876348  1.0000
  C   C3        1.0  0.6540756639385245  0.38587849742089525  0.3515913343943149  1.0000
  C   C4        1.0  0.5662755552047066  0.3603084361223268  0.2835035389683262  1.0000
  C   C5        1.0  0.5660880113440583  0.30916027405160684  0.1473076276039127  1.0000
  C   C6        1.0  0.6533363758714008  0.283687398587013  0.07948249798790186  1.0000
  C   C7        1.0  0.7409533735007354  0.30915816813686003  0.14730880694602907  1.0000
  C   C8        1.0  0.4764604958029477  0.3865377353229127  0.3533456748554762  1.0000
  N   N2        1.0  0.4042585145425303  0.4076245290530028  0.4094948884597607  1.0000
  H   H1        1.0  0.654362030403263  0.4254691549533274  0.4570102323826028  1.0000
  H   H2        1.0  0.49864699081393105  0.28903478569563723  0.0937155345486218  1.0000
  H   H3        1.0  0.6530506553549348  0.24417759521836513  0.9742770907299603  1.0000
  H   H4        1.0  0.8081032135025035  0.2890307963322014  0.0937177140095089  1.0000
  C   C9        1.0  0.15424150321141217  0.026150642708876917  0.40969922431954653  1.0000
  C   C10       1.0  0.151014677401482  0.03466991123882335  0.25803451667180033  1.0000
  C   C11       1.0  0.14936125699277664  0.9224180942440096  0.180332251798589  1.0000
  C   C12       1.0  0.15100176915744412  0.7994936219955551  0.25744668672273  1.0000
  C   C13       1.0  0.15423368279805194  0.7890882686864847  0.4093032280624578  1.0000
  C   C14       1.0  0.1558315365975431  0.9028841444455632  0.48443821206602333  1.0000
  C   C15       1.0  0.1458709500635087  0.9410644795262332  0.016296161203516835  1.0000
  C   C16       1.0  0.08915317799710819  0.8416382844008398  0.9360646668821982  1.0000
  C   C17       1.0  0.19906696689798076  0.8419060921286348  0.9314860881679712  1.0000
  H   H5        1.0  0.15549406465594484  0.3504063492817287  0.46814050084361436  1.0000
  H   H6        1.0  0.14976914722962342  0.12938118425504896  0.19948357193901245  1.0000
  H   H7        1.0  0.1497884862507759  0.7113907001898276  0.20052169039735368  1.0000
  H   H8        1.0  0.1583206168521183  0.8955839070103749  0.6014507188666197  1.0000
  H   H9        1.0  0.16032504024895466  0.5622190362537596  0.6961174753180401  1.0000
  H   H10       1.0  0.1447499899040814  0.04131396346700412  0.9635720780229886  1.0000
  H   H11       1.0  0.0571345540866095  0.7585805714195937  0.001654899371611008  1.0000
  H   H12       1.0  0.054834075910164634  0.8816098028339753  0.834092628405787  1.0000
  H   H13       1.0  0.2338150694061536  0.7590118643255789  0.9942958323528134  1.0000
  H   H14       1.0  0.22898763370077768  0.8820317533097801  0.8268367421175906  1.0000
  C   C18       1.0  0.15308231794998406  0.40387803064546546  0.9862620060771135  1.0000
  C   C19       1.0  0.06895213007399037  0.4422295044817551  0.05613098674083438  1.0000
  C   C20       1.0  0.9895732601296195  0.4910208740941847  0.9769234625737844  1.0000
  C   C21       1.0  0.9924677578076662  0.5027585541567039  0.8256373678789504  1.0000
  C   C22       1.0  0.07529516817437278  0.4628387455240397  0.754629315755369  1.0000
  C   C23       1.0  0.15539281848393172  0.4113608373459179  0.8327405275382919  1.0000
  C   C24       1.0  0.909468542028443  0.5551222730189244  0.7402195155468834  1.0000
  O   O1        1.0  0.8338566896419946  0.5913167574423079  0.8009070367379645  1.0000
  H   H15       1.0  0.38884103729393305  0.3707817156651281  0.09306766239806796  1.0000
  H   H16       1.0  0.9262635793988591  0.5207588309205173  0.03430970570046688  1.0000
  H   H17       1.0  0.07641317535258096  0.4691340867717688  0.6374693850335369  1.0000
  H   H18       1.0  0.3138668789342227  0.3843612877462501  0.5552886545653689  1.0000
  H   H19       1.0  0.9128947495173731  0.5630073143334834  0.6233459044981265  1.0000
  Zn  Zn1       1.0  0.048511368301047623  0.40762092900246577  0.40950337150717253  1.0000
  Zn  Zn2       1.0  0.2599545605342377  0.4076173480696126  0.409498448174373  1.0000
  C   C25       1.0  0.15495401018444133  0.4047713572729701  0.6727406054060052  1.0000
  C   C26       1.0  0.15351422797322112  0.4104685600807732  0.14626135483203018  1.0000
  C   C27       1.0  0.1542145039627969  0.6448260430769089  0.4036347523384103  1.0000
  C   C28       1.0  0.15425366226985734  0.17041231422560824  0.4153672855516377  1.0000
  O   O2        1.0  0.23390077048782068  0.4126733757194525  0.19995673244848539  1.0000
  O   O3        1.0  0.23504795698998837  0.40256284012953436  0.6190410767120704  1.0000
  O   O4        1.0  0.23444971875932819  0.596410048088313  0.4017361957155863  1.0000
  O   O5        1.0  0.23449893627217366  0.21882617609937818  0.4172615053764388  1.0000
  O   O6        1.0  0.07396692040790698  0.5964121009752696  0.40174031429920487  1.0000
  O   O7        1.0  0.07456515840837086  0.402566453070286  0.6190451176377763  1.0000
  O   O8        1.0  0.07341796724094829  0.4126769280736555  0.19995904057152503  1.0000
  O   O9        1.0  0.074016133316404  0.21882972011744606  0.41726392156210834  1.0000
