data_image0
_chemical_formula_structural       NC10NC5H10C12SCH12C15H12Zn2C4O8
_chemical_formula_sum              "N2 C47 H34 S1 Zn2 O8"
_cell_length_a       19.4436361288709
_cell_length_b       10.299776766347529
_cell_length_c       10.299157797200024
_cell_angle_alpha    85.54587523225568
_cell_angle_beta     89.72702837822625
_cell_angle_gamma    89.39962546058797

_space_group_name_H-M_alt    "P 1"
_space_group_IT_number       1

loop_
  _space_group_symop_operation_xyz
  'x, y, z'

loop_
  _atom_site_type_symbol
  _atom_site_label
  _atom_site_symmetry_multiplicity
  _atom_site_fract_x
  _atom_site_fract_y
  _atom_site_fract_z
  _atom_site_occupancy
  N   N1        1.0  0.647102815258763  0.40971628949942884  0.562075020918914  1.0000
  C   C1        1.0  0.5882690308275061  0.41961132110080857  0.5764603547174454  1.0000
  C   C2        1.0  0.5149424438100956  0.4319517267988609  0.5944543699796205  1.0000
  C   C3        1.0  0.4727387937433553  0.3999996450316501  0.4997733053058966  1.0000
  C   C4        1.0  0.39683373179288584  0.41043531112459464  0.5051022181124485  1.0000
  C   C5        1.0  0.35712732464458424  0.38563740840758143  0.6121799612243826  1.0000
  C   C6        1.0  0.2810026395578921  0.38956006899885837  0.5992199843919339  1.0000
  C   C7        1.0  0.24045465713009423  0.4471766789128446  0.6929991981664396  1.0000
  C   C8        1.0  0.16878781467894752  0.45081934268459883  0.6824548331819775  1.0000
  C   C9        1.0  0.13667434437944656  0.39644925511909146  0.5784177791132843  1.0000
  C   C10       1.0  0.0628782051999584  0.4001532343826193  0.5677181256685373  1.0000
  N   N2        1.0  0.003551114590933403  0.4031310392797831  0.5591163136759112  1.0000
  C   C11       1.0  0.1764976612264288  0.3381253828696935  0.4850217889579014  1.0000
  C   C12       1.0  0.24818087515779622  0.3344286140340842  0.4953143585142452  1.0000
  C   C13       1.0  0.3853020677289344  0.3451155177085963  0.7432805945711494  1.0000
  C   C14       1.0  0.44397069507184217  0.388214684676046  0.7905280871139735  1.0000
  C   C15       1.0  0.4881412531687886  0.4861066668171837  0.7161609310289125  1.0000
  H   H1        1.0  0.494818885495568  0.3709253329717992  0.40945955553614555  1.0000
  H   H2        1.0  0.372106614449075  0.43297348698613997  0.4119392962333934  1.0000
  H   H3        1.0  0.2643390417585011  0.4904290556213009  0.773854576440518  1.0000
  H   H4        1.0  0.138454472453115  0.49609914743560696  0.7553823624026086  1.0000
  H   H5        1.0  0.1521414488209543  0.29506850411810204  0.40450092364027396  1.0000
  H   H6        1.0  0.277849177683816  0.2869051195209804  0.4230830944923274  1.0000
  H   H7        1.0  0.3543648818539926  0.2808690211692582  0.8075282624890773  1.0000
  H   H8        1.0  0.4591526026243663  0.3541018353731653  0.8884668171571958  1.0000
  H   H9        1.0  0.4580097096389087  0.5768317111022496  0.6909119413718194  1.0000
  H   H10       1.0  0.5314386474837025  0.5116627018221009  0.7792510117028554  1.0000
  C   C16       1.0  0.8253951044715754  0.0250572726349676  0.5605935313105732  1.0000
  C   C17       1.0  0.829556653240155  0.013379813508824334  0.6970803488937396  1.0000
  C   C18       1.0  0.8315991246274389  0.8903253528539907  0.7662452142640581  1.0000
  C   C19       1.0  0.8294251410797623  0.7780944624407705  0.697096631656041  1.0000
  C   C20       1.0  0.8252654290782115  0.787779940335734  0.560609049403912  1.0000
  C   C21       1.0  0.8232733088708931  0.9116995534643272  0.49312152179005314  1.0000
  C   C22       1.0  0.8359939940122642  0.8790359648599968  0.9106329302499606  1.0000
  C   C23       1.0  0.7966458577591014  0.7862814284345245  0.985006273805163  1.0000
  C   C24       1.0  0.8008025999346863  0.775890868377648  0.1208885091716795  1.0000
  C   C25       1.0  0.8441363710386036  0.8579789239256475  0.18420559234747136  1.0000
  C   C26       1.0  0.883648928073799  0.9501562456114455  0.11120402395572837  1.0000
  C   C27       1.0  0.8795930367376924  0.9608948342131215  0.9753105359152305  1.0000
  S   S1        1.0  0.8495458887687847  0.844184466944245  0.35856056561657124  1.0000
  C   C28       1.0  0.7804359253244576  0.9615175165927883  0.3786639878153609  1.0000
  H   H11       1.0  0.823836424283039  0.35695989670542916  0.5085856335642849  1.0000
  H   H12       1.0  0.8302707422203498  0.1001826453371124  0.7500356491883762  1.0000
  H   H13       1.0  0.8319325366395031  0.6830194117472499  0.7498408997109978  1.0000
  H   H14       1.0  0.8200633211961506  0.9199397196846805  0.3878277415195226  1.0000
  H   H15       1.0  0.8236460530088955  0.464017410258288  0.5086063214761181  1.0000
  H   H16       1.0  0.7620128603890358  0.7229705747571467  0.9381770363639313  1.0000
  H   H17       1.0  0.77006377203759  0.704380642120065  0.17686819744517557  1.0000
  H   H18       1.0  0.9175502454322837  0.013536040938056269  0.15962835603646153  1.0000
  H   H19       1.0  0.911200233291063  0.03201966549529445  0.920736759828054  1.0000
  H   H20       1.0  0.7941943635700401  0.057606927269185475  0.329669456849666  1.0000
  H   H21       1.0  0.7724882174510721  0.9723138297042406  0.48401499123223757  1.0000
  H   H22       1.0  0.7320295716671784  0.926891268416027  0.3369413876620456  1.0000
  C   C29       1.0  0.8252504931429941  0.4065263332458145  0.17920991626259863  1.0000
  C   C30       1.0  0.7536148188082338  0.3898705930571554  0.1799793412365449  1.0000
  C   C31       1.0  0.7174407039330305  0.3813139372137777  0.06322591590271598  1.0000
  C   C32       1.0  0.7538192105908932  0.38965808737826035  0.9447103461294728  1.0000
  C   C33       1.0  0.8254099932579446  0.4063108622438656  0.9419926104749741  1.0000
  C   C34       1.0  0.8607075912755415  0.4146419817706477  0.059776150818350755  1.0000
  C   C35       1.0  0.6417057528395567  0.3637104458806415  0.06508566895772505  1.0000
  C   C36       1.0  0.610772692647124  0.27730380817368894  0.9842337385366511  1.0000
  C   C37       1.0  0.5395029148200126  0.2608312334793108  0.9860161050859007  1.0000
  C   C38       1.0  0.4978969241171291  0.3297796773698476  0.06919282367839164  1.0000
  C   C39       1.0  0.528461755137932  0.4170386562112603  0.14907111121668226  1.0000
  C   C40       1.0  0.5997308387766527  0.4335154420428564  0.14743670123614194  1.0000
  C   C41       1.0  0.42111882103009907  0.31438314046495863  0.06876683577553866  1.0000
  C   C42       1.0  0.3901705772621296  0.408721349369378  0.9716145858554324  1.0000
  C   C43       1.0  0.3647357270605867  0.486295338487688  0.8917284629426674  1.0000
  H   H23       1.0  0.9605139276365895  0.43716745903993576  0.3851118576301735  1.0000
  H   H24       1.0  0.7259516054202506  0.38175689156858567  0.271746527227954  1.0000
  H   H25       1.0  0.7260564446032338  0.384933016381812  0.854308384284117  1.0000
  H   H26       1.0  0.9159277292757563  0.42748298980393806  0.058395612790141715  1.0000
  H   H27       1.0  0.8529490390712005  0.41267458890728137  0.6134748895973456  1.0000
  H   H28       1.0  0.6417795835789344  0.2213659493130049  0.9206032292028414  1.0000
  H   H29       1.0  0.5167429919977699  0.19409671924492855  0.9226446199489988  1.0000
  H   H30       1.0  0.4970532596219955  0.4726747592212411  0.2123599489050794  1.0000
  H   H31       1.0  0.6219294198062724  0.5023675325083281  0.20917164468116536  1.0000
  H   H32       1.0  0.4074089965387977  0.2143972795722662  0.04543348311703488  1.0000
  H   H33       1.0  0.39922241856019774  0.33023244057057255  0.16617019400961808  1.0000
  H   H34       1.0  0.3424253808736999  0.5544022815824428  0.8215955798755634  1.0000
  Zn  Zn1       1.0  0.7499660981673473  0.40781245506744007  0.5612287144310748  1.0000
  Zn  Zn2       1.0  0.900687827235235  0.4050242630835652  0.5599733017567865  1.0000
  C   C44       1.0  0.8253792085452478  0.4011779962866553  0.7978102813604678  1.0000
  C   C45       1.0  0.8252763624819492  0.41166032998984897  0.3233918486255716  1.0000
  C   C46       1.0  0.8252852995162407  0.6436106541224813  0.5554306513220746  1.0000
  C   C47       1.0  0.825370220359968  0.16922611279387964  0.5657715483033547  1.0000
  O   O1        1.0  0.8824831561202233  0.41231957616668635  0.3713041995624393  1.0000
  O   O2        1.0  0.882566719894493  0.39840159729816627  0.7489447273641419  1.0000
  O   O3        1.0  0.8824901163904653  0.5941690483623323  0.5532214676819753  1.0000
  O   O4        1.0  0.8825597081711892  0.21655213537160536  0.5670273622927824  1.0000
  O   O5        1.0  0.768094165797462  0.596284583732289  0.5541746543166584  1.0000
  O   O6        1.0  0.768170769018548  0.40051869298115506  0.7498978447810138  1.0000
  O   O7        1.0  0.7680872049711555  0.4144366270342084  0.3722557554854178  1.0000
  O   O8        1.0  0.7681637570412524  0.21866917692293122  0.5679790155891631  1.0000
