data_image0
_chemical_formula_structural       NC9NC4H8C8NH7C7ONH7Zn2C4O8
_chemical_formula_sum              "N4 C32 H22 O9 Zn2"
_cell_length_a       16.32274767691083
_cell_length_b       9.274263428431858
_cell_length_c       10.297855452804892
_cell_angle_alpha    85.50121379664337
_cell_angle_beta     89.4600573046752
_cell_angle_gamma    90.1410557844374

_space_group_name_H-M_alt    "P 1"
_space_group_IT_number       1

loop_
  _space_group_symop_operation_xyz
  'x, y, z'

loop_
  _atom_site_type_symbol
  _atom_site_label
  _atom_site_symmetry_multiplicity
  _atom_site_fract_x
  _atom_site_fract_y
  _atom_site_fract_z
  _atom_site_occupancy
  N   N1        1.0  0.781203561889684  0.5687025680734492  0.5554607575253031  1.0000
  C   C1        1.0  0.7285589661460554  0.516035746600618  0.5011953872241732  1.0000
  C   C2        1.0  0.6631214875134943  0.4506231443024758  0.4337973633798197  1.0000
  C   C3        1.0  0.6741492129666595  0.3611503790514019  0.3416045673804828  1.0000
  C   C4        1.0  0.5945273833567966  0.31748719377893164  0.2966175501259547  1.0000
  C   C5        1.0  0.5359693289547576  0.3813872561159628  0.3624625099516223  1.0000
  C   C6        1.0  0.44593274097574903  0.36449904272453204  0.34506380799019576  1.0000
  C   C7        1.0  0.3907738753062337  0.438978694888111  0.42180296626270963  1.0000
  C   C8        1.0  0.3059806629938109  0.4245452162194287  0.40693293280510723  1.0000
  C   C9        1.0  0.2504233078641001  0.5013145101456324  0.4860304262157983  1.0000
  N   N2        1.0  0.2057740616774841  0.5630243899175393  0.5496114139591315  1.0000
  C   C10       1.0  0.27529257112883593  0.33551162867794826  0.3152002576069355  1.0000
  C   C11       1.0  0.32913009729382  0.261130630132832  0.23856308730894193  1.0000
  C   C12       1.0  0.4137622322131609  0.27517533765553326  0.2530324341592427  1.0000
  C   C13       1.0  0.5742701047076872  0.47456060368716035  0.45846576835425873  1.0000
  H   H1        1.0  0.7328525955314708  0.32635864060208264  0.3057528781941943  1.0000
  H   H2        1.0  0.5858030616968276  0.24436121431838176  0.22126830809303064  1.0000
  H   H3        1.0  0.41329409197427247  0.5084844194254361  0.49341589047998363  1.0000
  H   H4        1.0  0.2098310558368674  0.32362143226015694  0.30295065903420126  1.0000
  H   H5        1.0  0.305217529748199  0.192254849657574  0.16759946246038737  1.0000
  H   H6        1.0  0.4531944109316848  0.21567532656596478  0.1917280254686322  1.0000
  H   H7        1.0  0.5572495354913003  0.43593709879651904  0.5600149819597644  1.0000
  H   H8        1.0  0.5581996138999564  0.5901418874573513  0.43621395367960386  1.0000
  C   C14       1.0  0.990900251237902  0.14231452339847667  0.5528477880428075  1.0000
  C   C15       1.0  0.9803229614397293  0.22586139999633636  0.43428232657552973  1.0000
  C   C16       1.0  0.977780834260544  0.1610293493286663  0.31668076372676013  1.0000
  C   C17       1.0  0.9864190717947802  0.01113269756409485  0.3147266385207568  1.0000
  C   C18       1.0  0.9947978140480195  0.9261109279548624  0.432526150487742  1.0000
  C   C19       1.0  0.9960851590158669  0.9894012277000204  0.5522355404546369  1.0000
  C   C20       1.0  0.9824560060462422  0.9412466597901551  0.188044658508556  1.0000
  C   C21       1.0  0.8974578560803763  0.903458193287228  0.16034688661918128  1.0000
  N   N3        1.0  0.8303706279260794  0.8736312131716721  0.13849421551585817  1.0000
  H   H9        1.0  0.06156899562953449  0.2195208719366386  0.8513450485142328  1.0000
  H   H10       1.0  0.9757943990438064  0.34254168373774446  0.43221729143720267  1.0000
  H   H11       1.0  0.9698391408820697  0.22809809081171342  0.226772716801513  1.0000
  H   H12       1.0  0.9983353458634403  0.8095747120118649  0.43076643236554574  1.0000
  H   H13       1.0  0.04047560407691184  0.6912343425882196  0.7550088949014244  1.0000
  H   H14       1.0  0.020305623681206256  0.8416232406511263  0.1925499593180271  1.0000
  H   H15       1.0  0.006657709320636135  0.01576708550118556  0.1068767234762602  1.0000
  C   C22       1.0  0.9935257170531009  0.5660008011290086  0.17109909770488874  1.0000
  C   C23       1.0  0.9099404863753097  0.6018930879079818  0.16883933623242542  1.0000
  C   C24       1.0  0.8673578043201762  0.6188579348954013  0.05069877536336209  1.0000
  C   C25       1.0  0.9098388887364642  0.6015699640841641  0.9336080305398315  1.0000
  C   C26       1.0  0.993459677997401  0.5657148621632228  0.9339841959419091  1.0000
  C   C27       1.0  0.03470415298617624  0.5478329001472075  0.05319849318774449  1.0000
  C   C28       1.0  0.779138754769022  0.6571090311707528  0.050886545899369695  1.0000
  O   O1        1.0  0.7491998773921347  0.7190584416884993  0.14506924608446137  1.0000
  N   N4        1.0  0.7265322405167323  0.6237040689148918  0.9470090485556771  1.0000
  H   H16       1.0  0.15156940145943665  0.49868047604730226  0.38260067330306047  1.0000
  H   H17       1.0  0.8776294695707088  0.6154761552399295  0.25943379608593164  1.0000
  H   H18       1.0  0.8784713502185891  0.6186220311490626  0.8416383494630595  1.0000
  H   H19       1.0  0.09912357912703129  0.5201667344605998  0.054186721577137  1.0000
  H   H20       1.0  0.15182572000039896  0.500215499756965  0.7272548086574617  1.0000
  H   H21       1.0  0.6655663151810581  0.6575598548611754  0.9467414867946888  1.0000
  H   H22       1.0  0.7456004316308887  0.5576432201789703  0.875100700424376  1.0000
  Zn  Zn1       1.0  0.9037254187643682  0.5670600946142929  0.5537802675599496  1.0000
  Zn  Zn2       1.0  0.08325213760986111  0.5646550237411647  0.5513025537136096  1.0000
  C   C29       1.0  0.9934351698764753  0.5600230755167188  0.7897867682126682  1.0000
  C   C30       1.0  0.9935443580519813  0.5716938363809634  0.31529615218002527  1.0000
  C   C31       1.0  0.9951013277046538  0.8292857694703522  0.5471751402633918  1.0000
  C   C32       1.0  0.9918781283511998  0.30242941034773696  0.5579078514792772  1.0000
  O   O2        1.0  0.06168002981719311  0.57268546677513  0.36274972597434174  1.0000
  O   O3        1.0  0.06155611712184928  0.5572049640382866  0.7404522938076049  1.0000
  O   O4        1.0  0.06290064210501378  0.7746380064950131  0.5445416993126725  1.0000
  O   O5        1.0  0.06033544364530363  0.3552524354933244  0.5586602239138216  1.0000
  O   O6        1.0  0.9266420514652774  0.776462683684439  0.5464225981984265  1.0000
  O   O7        1.0  0.9252975370910679  0.5590313741296103  0.7423331221820717  1.0000
  O   O8        1.0  0.9254214496684247  0.574511827189639  0.36462899268219146  1.0000
  O   O9        1.0  0.9240768634216121  0.35707878555521805  0.5605395880158133  1.0000
