data_image0
_chemical_formula_structural       NC6NC2H4C6BrH3C6H4Zn2C4O8
_chemical_formula_sum              "N2 C24 H11 Br1 Zn2 O8"
_cell_length_a       14.927258858638513
_cell_length_b       9.276564384272257
_cell_length_c       10.681121600428288
_cell_angle_alpha    85.5120417802204
_cell_angle_beta     89.99986493836577
_cell_angle_gamma    90.58593300640023

_space_group_name_H-M_alt    "P 1"
_space_group_IT_number       1

loop_
  _space_group_symop_operation_xyz
  'x, y, z'

loop_
  _atom_site_type_symbol
  _atom_site_label
  _atom_site_symmetry_multiplicity
  _atom_site_fract_x
  _atom_site_fract_y
  _atom_site_fract_z
  _atom_site_occupancy
  N   N1        1.0  0.8536007260251904  0.578229371681175  0.6175059769953228  1.0000
  C   C1        1.0  0.7760742346763244  0.5782293431716835  0.6175059862147647  1.0000
  C   C2        1.0  0.6796417278635721  0.5782294582691561  0.6175059428163314  1.0000
  C   C3        1.0  0.6324389804096483  0.5545388188422156  0.5074697999438637  1.0000
  C   C4        1.0  0.5387276692292227  0.5545388444779118  0.507469683988439  1.0000
  C   C5        1.0  0.4918256627434975  0.578229280720266  0.6175059591299565  1.0000
  C   C6        1.0  0.39539308893922787  0.5782293958207023  0.6175059157263745  1.0000
  N   N2        1.0  0.31786659759036223  0.5782293673112113  0.6175059249458166  1.0000
  C   C7        1.0  0.539028343205904  0.601919920150171  0.7275421019972754  1.0000
  C   C8        1.0  0.6327396543863303  0.601919894514475  0.7275422179527007  1.0000
  H   H1        1.0  0.6680181786711604  0.5361061656692843  0.42185536549372404  1.0000
  H   H2        1.0  0.5029145244154414  0.5361063632056082  0.4218553610616227  1.0000
  H   H3        1.0  0.5034492118665017  0.6203525630056335  0.8131566303497859  1.0000
  H   H4        1.0  0.6685527998162758  0.6203524731149933  0.8131566363915756  1.0000
  C   C9        1.0  0.08303891832965299  0.15474839510977412  0.6178261957148179  1.0000
  C   C10       1.0  0.07155868494798392  0.23824768127455306  0.50336935525225  1.0000
  C   C11       1.0  0.06841562398062512  0.1732588094592318  0.38998159819683925  1.0000
  C   C12       1.0  0.07673289258297294  0.023851648488423922  0.3888976819944154  1.0000
  C   C13       1.0  0.08663494061993832  0.9386590332932898  0.5016237418706673  1.0000
  C   C14       1.0  0.08843692675231908  0.0016991973667732619  0.6171965210784625  1.0000
  Br  Br1       1.0  0.07309174732825846  0.9354938703851265  0.23330986808510357  1.0000
  H   H5        1.0  0.06036542805594716  0.2394790403936065  0.3027514651868022  1.0000
  H   H6        1.0  0.09077987484061101  0.8224190506217554  0.49892380053247565  1.0000
  H   H7        1.0  0.13785561832416937  0.7037665383606986  0.8122388715429647  1.0000
  C   C15       1.0  0.08573794018388449  0.5782237909344756  0.24976615148784176  1.0000
  C   C16       1.0  0.02110647732481153  0.4980201624585283  0.18840328812442994  1.0000
  C   C17       1.0  0.02110642198262315  0.49802025492647084  0.05752114810279818  1.0000
  C   C18       1.0  0.08573787020987148  0.5782238616254649  0.9852565871116377  1.0000
  C   C19       1.0  0.15031598642564037  0.6583610253124125  0.046618919539364256  1.0000
  C   C20       1.0  0.15031597482160552  0.6583610029508282  0.1775112182190337  1.0000
  H   H8        1.0  0.9704452855471528  0.43515276786591567  0.24148685953486826  1.0000
  H   H9        1.0  0.970445267270313  0.43515283574744273  0.012982830258872813  1.0000
  H   H10       1.0  0.20098379439026448  0.7212367042090784  0.9935796773379542  1.0000
  H   H11       1.0  0.20098374893231552  0.7212366536558217  0.22200404485994313  1.0000
  Zn  Zn1       1.0  0.9875778112152487  0.5782255062324441  0.6175132008943875  1.0000
  Zn  Zn2       1.0  0.18388944799765672  0.578221420563181  0.6175089825344282  1.0000
  C   C21       1.0  0.08569929314783199  0.5724788484430925  0.8462374329111519  1.0000
  C   C22       1.0  0.08577012137893258  0.5839698978694126  0.3887848720318687  1.0000
  C   C23       1.0  0.08741197420060987  0.8416074895174022  0.6123252785127793  1.0000
  C   C24       1.0  0.08405736229608207  0.31483952420004335  0.622697094484923  1.0000
  O   O1        1.0  0.16028012465641484  0.5858905019862113  0.4354392284295955  1.0000
  O   O2        1.0  0.1601852729124168  0.5705540554910722  0.7995795151934961  1.0000
  O   O3        1.0  0.1615672802368425  0.7878788367757515  0.61069379445637  1.0000
  O   O4        1.0  0.15889805040987925  0.3685657310190007  0.624324855264351  1.0000
  O   O5        1.0  0.012569141811508816  0.7878811957795888  0.6106973281593164  1.0000
  O   O6        1.0  0.01118714552563871  0.5705581470929322  0.7995829808366124  1.0000
  O   O7        1.0  0.01128199700901078  0.5858945433347098  0.4354411884874849  1.0000
  O   O8        1.0  0.009899922693067838  0.3685697620529939  0.6243269092194629  1.0000
