data_image0
_chemical_formula_structural       NC12NC2H8C12ClH9C13NH9Zn2C4O8
_chemical_formula_sum              "N3 C43 H26 Cl1 Zn2 O8"
_cell_length_a       17.80743265337812
_cell_length_b       10.299768534541528
_cell_length_c       10.298528502251457
_cell_angle_alpha    85.54291766685282
_cell_angle_beta     91.53111058914057
_cell_angle_gamma    89.45366305101135

_space_group_name_H-M_alt    "P 1"
_space_group_IT_number       1

loop_
  _space_group_symop_operation_xyz
  'x, y, z'

loop_
  _atom_site_type_symbol
  _atom_site_label
  _atom_site_symmetry_multiplicity
  _atom_site_fract_x
  _atom_site_fract_y
  _atom_site_fract_z
  _atom_site_occupancy
  N   N1        1.0  0.707712230810937  0.40709037576850005  0.6012535628365057  1.0000
  C   C1        1.0  0.6568993326022443  0.43666964305840206  0.5325489093769671  1.0000
  C   C2        1.0  0.593683071868546  0.47346410336656963  0.4470889693021174  1.0000
  C   C3        1.0  0.6054224114464472  0.5275225168883297  0.32045828974411217  1.0000
  C   C4        1.0  0.5441131757661525  0.5628126792252941  0.23739451328025352  1.0000
  C   C5        1.0  0.47091036005058934  0.544308089384574  0.2803014563267805  1.0000
  C   C6        1.0  0.45819421541818267  0.4901307324398423  0.407400323126061  1.0000
  C   C7        1.0  0.5203607681392234  0.4548438289690935  0.4904475862744826  1.0000
  C   C8        1.0  0.3804229271341305  0.47051116225094014  0.4531678120526188  1.0000
  C   C9        1.0  0.3616396612502756  0.49765877669290304  0.5802275190245856  1.0000
  C   C10       1.0  0.2884069064341602  0.4791957473872004  0.623175031669672  1.0000
  C   C11       1.0  0.2330143862971667  0.43333058192564766  0.5399008835331267  1.0000
  C   C12       1.0  0.1576448998006084  0.41431431080508463  0.5842494465901562  1.0000
  N   N2        1.0  0.0970531700022818  0.39902650777935045  0.6199026404015362  1.0000
  C   C13       1.0  0.251106118432701  0.40601389316504943  0.41338419623546563  1.0000
  C   C14       1.0  0.3242860253698668  0.42449178498012263  0.37018076942010447  1.0000
  H   H1        1.0  0.6618913996866459  0.5423564885266023  0.28601833629483164  1.0000
  H   H2        1.0  0.5533206569895397  0.6049387167898665  0.13960704418855308  1.0000
  H   H3        1.0  0.4242775731224208  0.5739630268279898  0.2147050924577023  1.0000
  H   H4        1.0  0.5118514226366643  0.41133253754010113  0.5881105218366898  1.0000
  H   H5        1.0  0.4033216301181606  0.5348178101688676  0.6458097889482408  1.0000
  H   H6        1.0  0.2749657758122654  0.5010114728929311  0.7211957995097238  1.0000
  H   H7        1.0  0.20870749163831823  0.3701220014823148  0.34821499394051414  1.0000
  H   H8        1.0  0.337198479826343  0.4011404397754368  0.2724632878197921  1.0000
  C   C15       1.0  0.9023154404585413  0.02169445258218694  0.6105727379321844  1.0000
  C   C16       1.0  0.9072672567726019  0.031204046578632294  0.474324159170322  1.0000
  C   C17       1.0  0.9098486047524331  0.918881767902394  0.40529676992161545  1.0000
  C   C18       1.0  0.9074107402445833  0.7959133520917481  0.4743465237488538  1.0000
  C   C19       1.0  0.9024571566076587  0.7844122656828617  0.6105949558003976  1.0000
  C   C20       1.0  0.899937800312266  0.8978596043024883  0.6779450972604706  1.0000
  C   C21       1.0  0.9150882124918724  0.9299957727122836  0.2611571796736798  1.0000
  C   C22       1.0  0.8723511976931524  0.02444634834616255  0.18463712880142746  1.0000
  C   C23       1.0  0.8773498020068105  0.034709982420675356  0.048980042135827295  1.0000
  C   C24       1.0  0.925012920517354  0.9510472531687184  0.9881474670500081  1.0000
  C   C25       1.0  0.9677376669930705  0.8569096904959047  0.06315552328907259  1.0000
  C   C26       1.0  0.9628724744815284  0.8462510370330869  0.19883364531368009  1.0000
  Cl  Cl1       1.0  0.9312007053196967  0.9641722860545491  0.817937821206038  1.0000
  H   H9        1.0  0.9003900079699787  0.3455253789178039  0.6624850535840163  1.0000
  H   H10       1.0  0.9101651654544036  0.12617434566424546  0.4217238696214307  1.0000
  H   H11       1.0  0.9083481024419776  0.709078174301227  0.4214387443994645  1.0000
  H   H12       1.0  0.8961169411305213  0.8897552173294654  0.7830545674247205  1.0000
  H   H13       1.0  0.9005995213090932  0.4525754463335915  0.6625183208127507  1.0000
  H   H14       1.0  0.8343653286691528  0.08919310205359299  0.22956687905039797  1.0000
  H   H15       1.0  0.8439959994029201  0.10753381032197895  0.9912637459400901  1.0000
  H   H16       1.0  0.004885757411074776  0.7921342484940157  0.016495957863404076  1.0000
  H   H17       1.0  0.9971796294766057  0.7737012814855513  0.2551011165701573  1.0000
  C   C27       1.0  0.9023969973305187  0.4031796319421923  0.22916750972857058  1.0000
  C   C28       1.0  0.8242990027287959  0.42465890748070034  0.2229370029146749  1.0000
  C   C29       1.0  0.7847338431970116  0.4354022391374881  0.1026338313686117  1.0000
  C   C30       1.0  0.8242765274531264  0.42439451626238545  0.9876762173801703  1.0000
  C   C31       1.0  0.9023755934705034  0.4029270980576065  0.9920001988124132  1.0000
  C   C32       1.0  0.9409357351045806  0.3924543601527448  0.11318872688962789  1.0000
  C   C33       1.0  0.7021685536671584  0.4581044306695916  0.09705460406948596  1.0000
  C   C34       1.0  0.669015434448157  0.5467212399064516  0.1763844363856064  1.0000
  C   C35       1.0  0.5912968033763991  0.5680437698486456  0.1710132339306114  1.0000
  C   C36       1.0  0.5456971790577146  0.5011303474703257  0.08647862788094618  1.0000
  C   C37       1.0  0.5781088688995708  0.412765226333081  0.007217293911378375  1.0000
  C   C38       1.0  0.6558194631832501  0.3913484991755303  0.012351499264279697  1.0000
  C   C39       1.0  0.4656857765892476  0.5231326082841328  0.08106963510473997  1.0000
  N   N3        1.0  0.4013620043144568  0.5408210653168717  0.0767212046792376  1.0000
  H   H18       1.0  0.049909196703688874  0.3617851773623173  0.4483250534771033  1.0000
  H   H19       1.0  0.7939599555103137  0.43129503960268933  0.3119995384086349  1.0000
  H   H20       1.0  0.7942206894620182  0.4343641385646875  0.8945327985482159  1.0000
  H   H21       1.0  0.0011273700449698776  0.37590458003144067  0.11725581999478663  1.0000
  H   H22       1.0  0.05002691438230533  0.36317252792389576  0.7927864992824794  1.0000
  H   H23       1.0  0.703293505554167  0.6007790132549611  0.24133045510615125  1.0000
  H   H24       1.0  0.5668183019811767  0.6369403726584126  0.2325491700247897  1.0000
  H   H25       1.0  0.5433118226898281  0.36016834846439094  0.9416747175340912  1.0000
  H   H26       1.0  0.6795601361640817  0.32133700157163436  0.9513269790640848  1.0000
  Zn  Zn1       1.0  0.8200676181187516  0.404759847942765  0.6066427715421301  1.0000
  Zn  Zn2       1.0  0.9846977779350903  0.401346438777864  0.6145240257555926  1.0000
  C   C40       1.0  0.902376999754343  0.39780128227442324  0.8478082794507589  1.0000
  C   C41       1.0  0.9023901943565895  0.40830660572780797  0.37335873144015297  1.0000
  C   C42       1.0  0.902426641283975  0.6402441923378979  0.6054147921215669  1.0000
  C   C43       1.0  0.9023404963583566  0.16586213652402626  0.6157522852817243  1.0000
  O   O1        1.0  0.9648641978367576  0.4087262283095854  0.42474151738476795  1.0000
  O   O2        1.0  0.9648534781206469  0.39478998153148703  0.8024068091732122  1.0000
  O   O3        1.0  0.9648927220354893  0.5905657145319994  0.6066723129008889  1.0000
  O   O4        1.0  0.9648248977492522  0.21295050579617447  0.6204759135812417  1.0000
  O   O5        1.0  0.8399404421243963  0.5931557820906992  0.6006908810201637  1.0000
  O   O6        1.0  0.8399011984979614  0.39738160939673817  0.7964253080837904  1.0000
  O   O7        1.0  0.8399119182994482  0.4113178114353244  0.41875845470148176  1.0000
  O   O8        1.0  0.8398726182044126  0.21554207960105742  0.6144929482774881  1.0000
