data_image0
_chemical_formula_structural       NC9NC5H8C16H10C12SCH12Zn2C4O8
_chemical_formula_sum              "N2 C47 H30 S1 Zn2 O8"
_cell_length_a       17.807436237873137
_cell_length_b       10.29914801576943
_cell_length_c       10.299780138516091
_cell_angle_alpha    85.5534209466543
_cell_angle_beta     89.38476460054896
_cell_angle_gamma    88.40369483635645

_space_group_name_H-M_alt    "P 1"
_space_group_IT_number       1

loop_
  _space_group_symop_operation_xyz
  'x, y, z'

loop_
  _atom_site_type_symbol
  _atom_site_label
  _atom_site_symmetry_multiplicity
  _atom_site_fract_x
  _atom_site_fract_y
  _atom_site_fract_z
  _atom_site_occupancy
  N   N1        1.0  0.7077207709583648  0.3874444991894923  0.5566055191393817  1.0000
  C   C1        1.0  0.6471291898321511  0.35224888513175245  0.5455968730103793  1.0000
  C   C2        1.0  0.571759922491274  0.30846941718276555  0.5319033125090675  1.0000
  C   C3        1.0  0.5536668770251336  0.2370185082432399  0.4269349012383854  1.0000
  C   C4        1.0  0.48048719856833516  0.19440048974430102  0.41355675828788874  1.0000
  C   C5        1.0  0.4243517967668735  0.22285581218707673  0.5051147352244085  1.0000
  C   C6        1.0  0.3465806725215579  0.17767878380657165  0.4909792564251336  1.0000
  C   C7        1.0  0.2844137062333204  0.2594487243405914  0.5168826750093924  1.0000
  C   C8        1.0  0.2110916933763416  0.21662765613510993  0.5035182980744177  1.0000
  C   C9        1.0  0.1478749854338931  0.3010892603807289  0.529784471534565  1.0000
  N   N2        1.0  0.0970617397803922  0.368990547119447  0.5509017509985501  1.0000
  C   C10       1.0  0.1993530678302825  0.09177864032270722  0.4642252624503038  1.0000
  C   C11       1.0  0.2606626630246155  0.009994844002674697  0.43831346034817975  1.0000
  C   C12       1.0  0.3338652047627427  0.05242128232651688  0.4514754733995998  1.0000
  C   C13       1.0  0.4431362984952916  0.2948011888346509  0.6103021589165398  1.0000
  C   C14       1.0  0.5163688340299799  0.3372287533173335  0.6235247377212811  1.0000
  H   H1        1.0  0.59606436787919  0.21451081570233366  0.3552345927434304  1.0000
  H   H2        1.0  0.46757373964141  0.14069011564936162  0.3306623481871407  1.0000
  H   H3        1.0  0.2929225231153419  0.35692942079398926  0.5457174719849753  1.0000
  H   H4        1.0  0.1428841195560646  0.05773692258681473  0.45364515224386004  1.0000
  H   H5        1.0  0.2514557121265455  0.9133339624816181  0.40827795669230227  1.0000
  H   H6        1.0  0.3804983466777608  0.9866657094168213  0.43245554955331444  1.0000
  H   H7        1.0  0.4014555091828075  0.3167701653372552  0.6832971389382121  1.0000
  H   H8        1.0  0.5298108965870046  0.3921595050920683  0.7053770504173211  1.0000
  C   C15       1.0  0.902341334061214  0.9968185764175248  0.5539199299529298  1.0000
  C   C16       1.0  0.8851986855713615  0.007192221622307038  0.4207032049378361  1.0000
  C   C17       1.0  0.8765622187128227  0.8953194556286859  0.35299409234170276  1.0000
  C   C18       1.0  0.8852990033884456  0.7719355374391428  0.42029716356132774  1.0000
  C   C19       1.0  0.9024483416286555  0.7596061569362836  0.5535985395818028  1.0000
  C   C20       1.0  0.9108652579098175  0.8725685636053238  0.6195891217218608  1.0000
  C   C21       1.0  0.8584275494582052  0.907339118058855  0.21206686053725754  1.0000
  C   C22       1.0  0.8939779540513006  0.8246449448275861  0.12633227378694367  1.0000
  C   C23       1.0  0.8768839825920524  0.8360838576170083  0.9936973811394192  1.0000
  C   C24       1.0  0.8240641177794007  0.9301250611144225  0.9449954735887394  1.0000
  C   C25       1.0  0.7883768295598677  0.012805675234481617  0.029448183634507075  1.0000
  C   C26       1.0  0.8054172357516676  0.0016105729402975388  0.16210480661442928  1.0000
  C   C27       1.0  0.8064935830364004  0.9417764105994988  0.8084349973631761  1.0000
  C   C28       1.0  0.7917784495633291  0.951534303519451  0.6940675750462924  1.0000
  C   C29       1.0  0.774547202053752  0.9629606655817321  0.5601444893903063  1.0000
  C   C30       1.0  0.7598345382661417  0.9727170694916621  0.4457955378081464  1.0000
  H   H9        1.0  0.9088964941571317  0.32030486320641294  0.605175448161305  1.0000
  H   H10       1.0  0.8795354284805138  0.10250131312238508  0.3688784689798217  1.0000
  H   H11       1.0  0.8776966028589132  0.6853880965120183  0.368995394323131  1.0000
  H   H12       1.0  0.9240856252960153  0.8638513184578166  0.7223434890139908  1.0000
  H   H13       1.0  0.9343515692785088  0.5290506362514961  0.8053829441743896  1.0000
  H   H14       1.0  0.9357080372557871  0.7522724776955667  0.16156899068946973  1.0000
  H   H15       1.0  0.9049957550423727  0.7718103767512313  0.9291136417745633  1.0000
  H   H16       1.0  0.7472443957780797  0.08571378008066466  0.9928328815023746  1.0000
  H   H17       1.0  0.7764297622780988  0.06553552622931158  0.22589862420196627  1.0000
  H   H18       1.0  0.746915635011348  0.9812840135113617  0.34538751555052416  1.0000
  C   C31       1.0  0.9024250223275474  0.37809962914496675  0.17240670668914237  1.0000
  C   C32       1.0  0.8309861129554497  0.32346921818188723  0.17697200960608073  1.0000
  C   C33       1.0  0.7947577446280376  0.295903238117585  0.062138755502977316  1.0000
  C   C34       1.0  0.8309246397987231  0.3236975899495744  0.9416689191385097  1.0000
  C   C35       1.0  0.9023646689178196  0.3783251241170458  0.9351117627045724  1.0000
  C   C36       1.0  0.9377147828853271  0.40522102627700773  0.05100965273663283  1.0000
  C   C37       1.0  0.7191803413367702  0.23812391991813775  0.0680312811484125  1.0000
  C   C38       1.0  0.6635474640377644  0.28242530860930337  0.9778723406077612  1.0000
  C   C39       1.0  0.5924304756635412  0.22801253265078913  0.983654665454536  1.0000
  C   C40       1.0  0.5759091836064881  0.12897734263416227  0.07950128152151326  1.0000
  C   C41       1.0  0.6308733400596462  0.08390864930398556  0.16926470319109366  1.0000
  C   C42       1.0  0.7020367816739036  0.13814577893422197  0.1638441784657525  1.0000
  S   S1        1.0  0.48468710759295336  0.059023597882035705  0.0864701864366606  1.0000
  C   C43       1.0  0.4461772642577945  0.17507381016197066  0.19571540672529308  1.0000
  H   H19       1.0  0.9296574657608432  0.3988682716916101  0.49812398626006016  1.0000
  H   H20       1.0  0.8029071445188734  0.30387601082763127  0.26994147822757864  1.0000
  H   H21       1.0  0.8036785768253721  0.30098555924160775  0.8530059213311549  1.0000
  H   H22       1.0  0.9928270350679455  0.4473652709587339  0.046719341573039586  1.0000
  H   H23       1.0  0.9295699570031084  0.39919991101608554  0.6051555621715434  1.0000
  H   H24       1.0  0.6747296463856457  0.36026975041818665  0.9039974065982572  1.0000
  H   H25       1.0  0.5501060103252983  0.26335472134805316  0.9139294238342099  1.0000
  H   H26       1.0  0.6185430281272019  0.006814660084347501  0.2432810296582475  1.0000
  H   H27       1.0  0.7439567613408931  0.10077159985606787  0.23347539063272627  1.0000
  H   H28       1.0  0.4779440428707693  0.16753751734852185  0.28826667212093016  1.0000
  H   H29       1.0  0.3865555696504199  0.15276886938118261  0.21737173123885878  1.0000
  H   H30       1.0  0.4490953304743509  0.27566604231408776  0.1490391273810856  1.0000
  Zn  Zn1       1.0  0.8200761620590495  0.3821156239122596  0.5549670467917576  1.0000
  Zn  Zn2       1.0  0.9847063281522975  0.3743088385497215  0.5525509039600598  1.0000
  C   C44       1.0  0.9023736676821573  0.373108490699561  0.7909463580593954  1.0000
  C   C45       1.0  0.9024106205053052  0.38331752529819063  0.31657169307866373  1.0000
  C   C46       1.0  0.902424663831161  0.615421731060507  0.5484843745058625  1.0000
  C   C47       1.0  0.9023595679551332  0.14100272719682128  0.5590337473498299  1.0000
  O   O1        1.0  0.9648820763823267  0.38210039836837173  0.36403786824918094  1.0000
  O   O2        1.0  0.9648526984792934  0.36839946826616354  0.7416460129682618  1.0000
  O   O3        1.0  0.9648930361974091  0.5640705146637461  0.54585625758159  1.0000
  O   O4        1.0  0.964841682496097  0.18642936389687925  0.5598275270859234  1.0000
  O   O5        1.0  0.8399407515350549  0.5699951012305864  0.5476904244835739  1.0000
  O   O6        1.0  0.8399004140379123  0.3743256152389116  0.7434801099702921  1.0000
  O   O7        1.0  0.8399297921081269  0.38802649961764346  0.3658704039360088  1.0000
  O   O8        1.0  0.8398893982098161  0.1923554558855456  0.5616601601403612  1.0000
