data_image0
_chemical_formula_structural       NC10NC3NH7C13OH12C16H10Zn2C4O8
_chemical_formula_sum              "N3 C46 H29 O9 Zn2"
_cell_length_a       19.210446455230148
_cell_length_b       10.299150109392551
_cell_length_c       10.299151387937775
_cell_angle_alpha    85.56522917257966
_cell_angle_beta     89.97931430287453
_cell_angle_gamma    89.92850971851941

_space_group_name_H-M_alt    "P 1"
_space_group_IT_number       1

loop_
  _space_group_symop_operation_xyz
  'x, y, z'

loop_
  _atom_site_type_symbol
  _atom_site_label
  _atom_site_symmetry_multiplicity
  _atom_site_fract_x
  _atom_site_fract_y
  _atom_site_fract_z
  _atom_site_occupancy
  N   N1        1.0  0.6553722907730025  0.41967834820694305  0.5668691596205504  1.0000
  C   C1        1.0  0.5951431580974909  0.4218861027276768  0.5670996110991462  1.0000
  C   C2        1.0  0.520337995323174  0.4246233139596338  0.5673851110696122  1.0000
  C   C3        1.0  0.48469607943715026  0.540867634414244  0.5824602121822267  1.0000
  C   C4        1.0  0.4120305654200382  0.5410191594096709  0.5824075669426025  1.0000
  C   C5        1.0  0.3751710517371691  0.425332362679705  0.56747137046426  1.0000
  C   C6        1.0  0.297849284487998  0.42397573642709174  0.5673212066052951  1.0000
  C   C7        1.0  0.2600738292694934  0.5275265384736734  0.5039267046460132  1.0000
  C   C8        1.0  0.1872958441432725  0.5261241714546672  0.5038180729982262  1.0000
  C   C9        1.0  0.1512918412628356  0.4214285075024238  0.5670528651813556  1.0000
  C   C10       1.0  0.0763626680948014  0.42012628454220446  0.5669164474451758  1.0000
  N   N2        1.0  0.016125094682148  0.41907925308512106  0.5668068024751489  1.0000
  C   C11       1.0  0.1883436087592007  0.3180033956494406  0.6304223189876803  1.0000
  C   C12       1.0  0.2611235091543287  0.31913149790589723  0.6305812830920845  1.0000
  C   C13       1.0  0.4134223364563293  0.3109085358403336  0.552683859376222  1.0000
  N   N3        1.0  0.4841916397001188  0.3133537373929385  0.5528486502971026  1.0000
  H   H1        1.0  0.5127729717036248  0.6303120291340567  0.5944804065351004  1.0000
  H   H2        1.0  0.3847373733943087  0.6310460369026583  0.5958223012506805  1.0000
  H   H3        1.0  0.2867842527255509  0.6087639244607741  0.45291041200694293  1.0000
  H   H4        1.0  0.1591326798082641  0.606534352335343  0.454132435386984  1.0000
  H   H5        1.0  0.1609936984125066  0.23662971440991654  0.6800087761007136  1.0000
  H   H6        1.0  0.2886416522168228  0.23884110838711625  0.6817046096092412  1.0000
  H   H7        1.0  0.3871815613288684  0.22001866266006886  0.539223150484998  1.0000
  C   C14       1.0  0.8358176099423011  0.037979120411445244  0.5669820969043109  1.0000
  C   C15       1.0  0.8345209125463464  0.026236007745969347  0.7037932586891591  1.0000
  C   C16       1.0  0.8338029193389194  0.9031473873634879  0.7728957373004675  1.0000
  C   C17       1.0  0.8343867423523367  0.7909807293066732  0.7034298863402377  1.0000
  C   C18       1.0  0.8356864257879886  0.800768468032425  0.5667051231421054  1.0000
  C   C19       1.0  0.8363961788351645  0.9247284321765925  0.4992802370216207  1.0000
  C   C20       1.0  0.8324251008061849  0.8917062272999423  0.9175363127494609  1.0000
  C   C21       1.0  0.7896147665497396  0.7989263685553145  0.9855652271285635  1.0000
  C   C22       1.0  0.7882951787707837  0.788241695967769  0.12167186805750763  1.0000
  C   C23       1.0  0.8302186330028798  0.8691785850511722  0.19221002133656562  1.0000
  C   C24       1.0  0.8723629289215621  0.962913461108157  0.12482379466499716  1.0000
  C   C25       1.0  0.8736986750293728  0.9737739037706358  0.9887168622293157  1.0000
  C   C26       1.0  0.8273370192894799  0.8600538249945316  0.33829701318225325  1.0000
  O   O1        1.0  0.7753053998527085  0.9433329657231008  0.3785467250192559  1.0000
  H   H8        1.0  0.8378129479906242  0.26743838280791343  0.30874469606933963  1.0000
  H   H9        1.0  0.8331013593288495  0.1130332411631001  0.7568021623227805  1.0000
  H   H10       1.0  0.8347783025839025  0.6958789053362984  0.7562634139945901  1.0000
  H   H11       1.0  0.8373966938539206  0.9329942197668782  0.3938203363783228  1.0000
  H   H12       1.0  0.8361394774847859  0.47705778542526295  0.5141159921127698  1.0000
  H   H13       1.0  0.7563306026889496  0.7359520392666193  0.9334622072382637  1.0000
  H   H14       1.0  0.7544282300459915  0.7169885779198371  0.17205336045537012  1.0000
  H   H15       1.0  0.9043648117413197  0.027443190096903214  0.1776732430914748  1.0000
  H   H16       1.0  0.9075888611836894  0.045472740733437655  0.9391420103078174  1.0000
  H   H17       1.0  0.8785354899085271  0.8878141469943532  0.37845823056185357  1.0000
  H   H18       1.0  0.8160207386065073  0.7580665286228968  0.37611160886595274  1.0000
  H   H19       1.0  0.7755529870433209  0.9336941762667895  0.47517351032776345  1.0000
  C   C27       1.0  0.8357923891617604  0.41920498903728376  0.18547267476718643  1.0000
  C   C28       1.0  0.768620034292335  0.4732738567507788  0.18055622318314746  1.0000
  C   C29       1.0  0.7345207146135622  0.5008619139013692  0.06090746949271586  1.0000
  C   C30       1.0  0.7684988764166982  0.47365168207566866  0.9452437727670366  1.0000
  C   C31       1.0  0.8357116360885921  0.4195425997336215  0.948214542789263  1.0000
  C   C32       1.0  0.8689452973700998  0.3926543050593714  0.06875553832478487  1.0000
  C   C33       1.0  0.6634604982995275  0.558060538736366  0.05675186660374276  1.0000
  C   C34       1.0  0.6457625400985164  0.6579101596770522  0.9614138950070887  1.0000
  C   C35       1.0  0.5788691987437318  0.7117063090494478  0.9576309296566019  1.0000
  C   C36       1.0  0.5287962747590601  0.6664628104928259  0.04888405230315751  1.0000
  C   C37       1.0  0.5458632497986903  0.5671726204524536  0.14405983733653138  1.0000
  C   C38       1.0  0.6127366356532112  0.5132889044421087  0.1480924029011399  1.0000
  C   C39       1.0  0.4599391635784442  0.7218920746828552  0.04486146885936071  1.0000
  C   C40       1.0  0.4022723045924917  0.7683132456703117  0.04149252689067584  1.0000
  C   C41       1.0  0.3347450123582043  0.8226720210282501  0.03754752939789707  1.0000
  C   C42       1.0  0.2770874724090099  0.869085928012495  0.034179238287299185  1.0000
  H   H20       1.0  0.861614962975466  0.398345241238349  0.5148442219510427  1.0000
  H   H21       1.0  0.7430394225357188  0.4957124874809724  0.26985636608475794  1.0000
  H   H22       1.0  0.7420822860296664  0.4930760900164022  0.8528684066173478  1.0000
  H   H23       1.0  0.9207562192595663  0.35094604511609373  0.07183225096196266  1.0000
  H   H24       1.0  0.9623974404209197  0.3166564362800093  0.7465879000281674  1.0000
  H   H25       1.0  0.6839172471779387  0.6955517913466274  0.8908471955663058  1.0000
  H   H26       1.0  0.5662672686017749  0.788782547776611  0.8837526905133157  1.0000
  H   H27       1.0  0.5074382526129876  0.5311727645589512  0.2149573957266797  1.0000
  H   H28       1.0  0.6245160745296917  0.435452334556907  0.22157804356708333  1.0000
  H   H29       1.0  0.22645939190102296  0.9098411080750217  0.03122160799348328  1.0000
  Zn  Zn1       1.0  0.7594777562540757  0.41950200128272175  0.5668586650601233  1.0000
  Zn  Zn2       1.0  0.9120196139553189  0.41924502131622954  0.566827936712049  1.0000
  C   C43       1.0  0.835726243990914  0.4143047291816444  0.804041860067785  1.0000
  C   C44       1.0  0.8357727916754967  0.42444392941933495  0.3296448682408668  1.0000
  C   C45       1.0  0.8357081866902546  0.6565827981200754  0.5615822604264649  1.0000
  C   C46       1.0  0.8357907971853155  0.1821643001707558  0.5721045376983154  1.0000
  O   O2        1.0  0.8936550555736054  0.4260989769132233  0.37801871420953526  1.0000
  O   O3        1.0  0.8936197207178055  0.4124536598722399  0.7556443185017316  1.0000
  O   O4        1.0  0.8936043587069536  0.6080962664768508  0.5598564760162712  1.0000
  O   O5        1.0  0.8936703655409645  0.230456379644167  0.5738064593269263  1.0000
  O   O6        1.0  0.7778269526133809  0.6082906430438901  0.5598801424489004  1.0000
  O   O7        1.0  0.7778423143600244  0.41264959683853264  0.7556679151218877  1.0000
  O   O8        1.0  0.7778776494351944  0.4262948679286007  0.3780407494372049  1.0000
  O   O9        1.0  0.7778929593909973  0.23065226141309525  0.5738285919263204  1.0000
