data_image0
_chemical_formula_structural       NC11NC3H8C12SCH12C13NH13Zn2C4O8
_chemical_formula_sum              "N3 C44 H33 S1 Zn2 O8"
_cell_length_a       17.807433833752565
_cell_length_b       10.299776766347529
_cell_length_c       10.299780419254978
_cell_angle_alpha    85.57449051580876
_cell_angle_beta     88.51101288378402
_cell_angle_gamma    90.66624570658541

_space_group_name_H-M_alt    "P 1"
_space_group_IT_number       1

loop_
  _space_group_symop_operation_xyz
  'x, y, z'

loop_
  _atom_site_type_symbol
  _atom_site_label
  _atom_site_symmetry_multiplicity
  _atom_site_fract_x
  _atom_site_fract_y
  _atom_site_fract_z
  _atom_site_occupancy
  N   N1        1.0  0.7073405642049698  0.4381341775022167  0.5347712249954351  1.0000
  C   C1        1.0  0.6565186957924786  0.4034224826531583  0.6013295353634103  1.0000
  C   C2        1.0  0.5932911664592274  0.3602439948414471  0.6841195796244952  1.0000
  C   C3        1.0  0.6050137862897835  0.2967214846359816  0.8068305714555937  1.0000
  C   C4        1.0  0.5436936416667131  0.2552222477891033  0.8873368454075625  1.0000
  C   C5        1.0  0.4704965026430546  0.27693239693251415  0.8457728851633348  1.0000
  C   C6        1.0  0.4577971219182064  0.340609356110545  0.7226017206735644  1.0000
  C   C7        1.0  0.3800318862091601  0.363648998702252  0.6782572736396137  1.0000
  C   C8        1.0  0.3612686500859524  0.34674893498575154  0.5486812987984762  1.0000
  C   C9        1.0  0.28804158157884646  0.36842034724267014  0.5070732671620035  1.0000
  C   C10       1.0  0.2326347252706315  0.40731016721672586  0.5942209815901129  1.0000
  C   C11       1.0  0.1572709940433198  0.4296397377426586  0.5512517362591702  1.0000
  N   N2        1.0  0.0966839274712535  0.44759105352738016  0.5167075903048584  1.0000
  C   C12       1.0  0.2507064293989562  0.4244206889877189  0.7232658519027364  1.0000
  C   C13       1.0  0.3238807087347357  0.40271440278719295  0.7651293013899654  1.0000
  C   C14       1.0  0.5199745770925884  0.38210403166858486  0.6421118617170596  1.0000
  H   H1        1.0  0.6614783742395883  0.2793145558892671  0.8401940831801482  1.0000
  H   H2        1.0  0.5528883247386277  0.20579140452738742  0.982067226610922  1.0000
  H   H3        1.0  0.4238552208674368  0.24239074848881992  0.9092080412564982  1.0000
  H   H4        1.0  0.4029619989499763  0.3150927642769279  0.47996617674899955  1.0000
  H   H5        1.0  0.2746159622494228  0.35451815997011926  0.4070420977163789  1.0000
  H   H6        1.0  0.2082965923014581  0.4548537438663358  0.7914661751737564  1.0000
  H   H7        1.0  0.3367776332394039  0.41816193097638865  0.8649777874613325  1.0000
  H   H8        1.0  0.5114780876476767  0.4328972531265525  0.5476158436017182  1.0000
  C   C15       1.0  0.9020866715168867  0.061499283863927  0.5257343365173814  1.0000
  C   C16       1.0  0.9065827679343103  0.05007632814820551  0.6620335435438114  1.0000
  C   C17       1.0  0.9087886443186788  0.9271478488423736  0.7311061508164098  1.0000
  C   C18       1.0  0.9064391135819808  0.8147850657954906  0.6620553980752852  1.0000
  C   C19       1.0  0.9019450237105475  0.8242161225756032  0.5257553486059816  1.0000
  C   C20       1.0  0.8997935368317713  0.9480128464111287  0.4583578070213761  1.0000
  C   C21       1.0  0.91353672787482  0.9161273556147292  0.8752957172008824  1.0000
  C   C22       1.0  0.8705304739662362  0.8216383928339794  0.9513303895645135  1.0000
  C   C23       1.0  0.8750215394510695  0.8115018222021707  0.08702526792336496  1.0000
  C   C24       1.0  0.9223313056242238  0.8955714822634399  0.14850076720594074  1.0000
  C   C25       1.0  0.9655166560820364  0.9894913061478939  0.07383078919085706  1.0000
  C   C26       1.0  0.9611357522974209  0.999980439033814  0.938120385313759  1.0000
  S   S1        1.0  0.9281768056190051  0.8821063421249524  0.32261212158687624  1.0000
  C   C27       1.0  0.8526819035342107  0.9963386817780622  0.34564256992431197  1.0000
  H   H9        1.0  0.9004030106264238  0.39330614837554556  0.4737967802529284  1.0000
  H   H10       1.0  0.9073435529862989  0.13693737129720085  0.714954215602873  1.0000
  H   H11       1.0  0.9091587727781457  0.7198488384197773  0.7146890600566287  1.0000
  H   H12       1.0  0.8963255032683477  0.9560566952356795  0.3532087403905808  1.0000
  H   H13       1.0  0.9001950638893418  0.5003551035912591  0.4738255338527859  1.0000
  H   H14       1.0  0.8327184331880223  0.7567456695592417  0.9059726621905404  1.0000
  H   H15       1.0  0.8414257531528818  0.7386356151231268  0.1443029638656892  1.0000
  H   H16       1.0  0.0025289171030860036  0.05442082378024726  0.12081448618009316  1.0000
  H   H17       1.0  0.9956795328001911  0.0725010281515821  0.8822116866151877  1.0000
  H   H18       1.0  0.8677277723454718  0.09302323275061974  0.29606903593695444  1.0000
  H   H19       1.0  0.8439625593386336  0.006829137796856788  0.4513216864430539  1.0000
  H   H20       1.0  0.7998236132620737  0.9595131457337575  0.30597473443588974  1.0000
  C   C28       1.0  0.9020670072486541  0.44277407600190877  0.14438830202114517  1.0000
  C   C29       1.0  0.9564409979163299  0.5431229481944433  0.13320590972922464  1.0000
  C   C30       1.0  0.9839347854923784  0.5940643931061504  0.01039847301858865  1.0000
  C   C31       1.0  0.956337785436457  0.5432926721687534  0.8979105256879545  1.0000
  C   C32       1.0  0.9019646877289901  0.4429413023451889  0.907101323150723  1.0000
  C   C33       1.0  0.8751317059380112  0.39324731928339074  0.030780547081713072  1.0000
  C   C34       1.0  0.041460332365828245  0.7002223696729928  0.9996599210825727  1.0000
  C   C35       1.0  0.03636238260484248  0.804675158905316  0.904072121622614  1.0000
  C   C36       1.0  0.09053110803080244  0.9045065085578248  0.8940492944302063  1.0000
  C   C37       1.0  0.15041728546504118  0.9022580428636178  0.979945262113151  1.0000
  C   C38       1.0  0.156235473321521  0.7975439130922242  0.07444286815513945  1.0000
  C   C39       1.0  0.10208228589581103  0.69768824211346  0.08463774466195817  1.0000
  C   C40       1.0  0.2097225689311022  0.007915249148443326  0.9667403099161702  1.0000
  N   N3        1.0  0.267320015414092  0.9766626509207377  0.8711895651739678  1.0000
  H   H21       1.0  0.8813785112544522  0.40449033656190725  0.476104717975409  1.0000
  H   H22       1.0  0.9767981380895842  0.5831228717894819  0.2201320619555347  1.0000
  H   H23       1.0  0.9781094317901663  0.5809761073580135  0.803093629272642  1.0000
  H   H24       1.0  0.8331848985214767  0.31583169334166117  0.03863867783707131  1.0000
  H   H25       1.0  0.8812317858357362  0.4047254784546441  0.5831487907901787  1.0000
  H   H26       1.0  0.9900286306034282  0.8098960949143237  0.8379202035371649  1.0000
  H   H27       1.0  0.08567770286608645  0.9837879165429111  0.8194367093675745  1.0000
  H   H28       1.0  0.20284806944917366  0.7929820026708638  0.14005533714293117  1.0000
  H   H29       1.0  0.10824524605712904  0.6174214946264207  0.15772366579481978  1.0000
  H   H30       1.0  0.18374648807916905  0.10230984595633652  0.9346667391012438  1.0000
  H   H31       1.0  0.23562835073642696  0.019854706688268386  0.06239530248574887  1.0000
  H   H32       1.0  0.3052161797683046  0.055273798979631916  0.8594933184652844  1.0000
  H   H33       1.0  0.29747470575116886  0.8970925370088234  0.910561482383804  1.0000
  Zn  Zn1       1.0  0.8196966480039796  0.44085975469589656  0.5295659343998877  1.0000
  Zn  Zn2       1.0  0.984327829463764  0.44485485921639856  0.5219234662779246  1.0000
  C   C41       1.0  0.9019832923397866  0.43773607660942004  0.7629321971578507  1.0000
  C   C42       1.0  0.9020429825738716  0.4479802195531928  0.28855724757185564  1.0000
  C   C43       1.0  0.9019686055655541  0.6800451813359378  0.5205765355288234  1.0000
  C   C44       1.0  0.9020576134515157  0.20566955319853353  0.5309129810021631  1.0000
  O   O1        1.0  0.9645115961073019  0.45123790457288315  0.3340413857191016  1.0000
  O   O2        1.0  0.9644659364602374  0.4375096036900128  0.7116472286798521  1.0000
  O   O3        1.0  0.9644532343076436  0.6331772500316357  0.5159433563427469  1.0000
  O   O4        1.0  0.9645242420937654  0.25557026613673584  0.5297451632928138  1.0000
  O   O5        1.0  0.8395001791934363  0.6301443464136385  0.5217442399861671  1.0000
  O   O6        1.0  0.8395128810620763  0.4344782603382351  0.7174480431231605  1.0000
  O   O7        1.0  0.8395585409770211  0.4482065156246049  0.3398406388088646  1.0000
  O   O8        1.0  0.8395711869490734  0.2525388679210605  0.5355445137471389  1.0000
