data_image0
_chemical_formula_structural       NC12NC2H8C12SCH12C12SCH12Zn2C4O8
_chemical_formula_sum              "N2 C44 H32 S2 Zn2 O8"
_cell_length_a       17.80743265337812
_cell_length_b       10.299776766347529
_cell_length_c       10.299780138516091
_cell_angle_alpha    85.57845135651907
_cell_angle_beta     91.52646952147009
_cell_angle_gamma    89.41689066054833

_space_group_name_H-M_alt    "P 1"
_space_group_IT_number       1

loop_
  _space_group_symop_operation_xyz
  'x, y, z'

loop_
  _atom_site_type_symbol
  _atom_site_label
  _atom_site_symmetry_multiplicity
  _atom_site_fract_x
  _atom_site_fract_y
  _atom_site_fract_z
  _atom_site_occupancy
  N   N1        1.0  0.7072611789137084  0.40622677719176825  0.6014674749311493  1.0000
  C   C1        1.0  0.6564408144585717  0.43576334845953024  0.5327740867027515  1.0000
  C   C2        1.0  0.5932152660688724  0.47250470030195335  0.4473281591271179  1.0000
  C   C3        1.0  0.6049410152519138  0.5264844168592715  0.3207182515162146  1.0000
  C   C4        1.0  0.5436229279303659  0.5617229564958126  0.23766810372638458  1.0000
  C   C5        1.0  0.47042478685480743  0.5432450306480965  0.28056801210342286  1.0000
  C   C6        1.0  0.4577222527978658  0.4891466621986853  0.40764602860435706  1.0000
  C   C7        1.0  0.5198976567962672  0.45391137113928237  0.4906796658602126  1.0000
  C   C8        1.0  0.37995590670587615  0.46955553448599274  0.45340601159372196  1.0000
  C   C9        1.0  0.36115603806547564  0.496782683081914  0.5804433154983524  1.0000
  C   C10       1.0  0.2879279403673842  0.47834634339470217  0.6233837856899949  1.0000
  C   C11       1.0  0.23255673168952193  0.4324288549406323  0.5401248587181422  1.0000
  C   C12       1.0  0.1571920360072937  0.41344014446161426  0.58446614863917  1.0000
  N   N2        1.0  0.0966041577049753  0.39817449829548734  0.6201134953501082  1.0000
  C   C13       1.0  0.25066510154990135  0.40503296993546267  0.41363048421010795  1.0000
  C   C14       1.0  0.3238403589718545  0.4234840124277979  0.37043414363723226  1.0000
  H   H1        1.0  0.6614062583896486  0.5412969860778212  0.2862839449235137  1.0000
  H   H2        1.0  0.5528197728417857  0.6037882249085889  0.13989666796553646  1.0000
  H   H3        1.0  0.4237843461542349  0.5728592136056987  0.21498237669857834  1.0000
  H   H4        1.0  0.511399468667341  0.4104607613847002  0.5883266161030429  1.0000
  H   H5        1.0  0.4028208374804468  0.533982930628536  0.6460135781393872  1.0000
  H   H6        1.0  0.2744736772795455  0.5002234319891419  0.7213872538527033  1.0000
  H   H7        1.0  0.20828315223217633  0.36910013100976924  0.34847319375933794  1.0000
  H   H8        1.0  0.3367665008814589  0.40007148275969984  0.27273393892922715  1.0000
  C   C15       1.0  0.9020070999586879  0.02083397172659973  0.6107924355330772  1.0000
  C   C16       1.0  0.9065106929960567  0.009218127820165734  0.7475151927644215  1.0000
  C   C17       1.0  0.9087203683410052  0.8861951637102797  0.8167955964323133  1.0000
  C   C18       1.0  0.9063670396157127  0.7739333267713572  0.7475235026475713  1.0000
  C   C19       1.0  0.9018654530812404  0.7835571814548802  0.610800092164757  1.0000
  C   C20       1.0  0.8997102593711277  0.9074460585054821  0.5431998778221141  1.0000
  C   C21       1.0  0.9134763824831132  0.874970988861827  0.9614324505348875  1.0000
  C   C22       1.0  0.8704742380525845  0.7824211039928638  0.03341203113607283  1.0000
  C   C23       1.0  0.8749727669423086  0.7720918302044909  0.1695299869877468  1.0000
  C   C24       1.0  0.9222859864913596  0.854038266789325  0.23546596698027777  1.0000
  C   C25       1.0  0.9654673027445786  0.9460110522196119  0.1648679633281528  1.0000
  C   C26       1.0  0.9610789348774919  0.9566879334790948  0.028744868702418547  1.0000
  S   S1        1.0  0.928141062982239  0.8403221363686042  0.41012799913180453  1.0000
  C   C27       1.0  0.8526473060998196  0.9579508824303118  0.42604027550010093  1.0000
  H   H9        1.0  0.9003205824874704  0.3527130062370023  0.5586962741279802  1.0000
  H   H10       1.0  0.9072743871792163  0.09604856764425285  0.8005074530666267  1.0000
  H   H11       1.0  0.9090895952933983  0.6788783903277003  0.8004134479870386  1.0000
  H   H12       1.0  0.89623644248368  0.9156386892683098  0.43772410864750033  1.0000
  H   H13       1.0  0.9001126369990285  0.45977131431130597  0.5587054211913236  1.0000
  H   H14       1.0  0.8326596446812826  0.7192256114876585  0.9844892816694097  1.0000
  H   H15       1.0  0.8413800744459483  0.7007402547907415  0.22363991690975904  1.0000
  H   H16       1.0  0.002482204429210766  0.009279414223302807  0.2153412700069588  1.0000
  H   H17       1.0  0.9956196983134538  0.02765135507889549  0.976093314870395  1.0000
  H   H18       1.0  0.8676904748860539  0.05395547510999177  0.3778854898298152  1.0000
  H   H19       1.0  0.843933754935086  0.9688406316954571  0.530896994457442  1.0000
  H   H20       1.0  0.7997867519125468  0.9234995611260324  0.3813887523802717  1.0000
  C   C28       1.0  0.9019664812130128  0.4020836526937288  0.22944557821907563  1.0000
  C   C29       1.0  0.8305461148216509  0.3455497875098388  0.22951851476413343  1.0000
  C   C30       1.0  0.7943271049590651  0.31701850838526346  0.11240713342337139  1.0000
  C   C31       1.0  0.8304845678407141  0.3457764970829189  0.9942116749936591  1.0000
  C   C32       1.0  0.9019060549054972  0.4023075156353475  0.9921469537681928  1.0000
  C   C33       1.0  0.937247037870621  0.43014531606940376  0.11026774351552437  1.0000
  C   C34       1.0  0.7187693136820564  0.2572254664541129  0.11354705423283673  1.0000
  C   C35       1.0  0.663122563372681  0.30003689004399425  0.01992639506829441  1.0000
  C   C36       1.0  0.5920240437256423  0.2437292398054487  0.021236585169933875  1.0000
  C   C37       1.0  0.5755352086986371  0.14426146382422855  0.1160077625180358  1.0000
  C   C38       1.0  0.6305134951749928  0.10066494041875607  0.20919074279714578  1.0000
  C   C39       1.0  0.7016585248505559  0.1567982006656372  0.20824518474288167  1.0000
  S   S2        1.0  0.4843368741917485  0.07187716938679412  0.11724017351451121  1.0000
  C   C40       1.0  0.44578959061433227  0.1868884813045113  0.22412522810007807  1.0000
  H   H21       1.0  0.9291918744732772  0.4235778951284903  0.5568753196811436  1.0000
  H   H22       1.0  0.8024738220167621  0.32520826436395733  0.32072305890636366  1.0000
  H   H23       1.0  0.8032461887680168  0.3223386739788945  0.9038345419642835  1.0000
  H   H24       1.0  0.9923449851893167  0.47375799939030405  0.10944311236611193  1.0000
  H   H25       1.0  0.9291042584906617  0.42390716769549863  0.663901561121333  1.0000
  H   H26       1.0  0.6742792520741114  0.37817316783014143  0.9467839252325914  1.0000
  H   H27       1.0  0.5496884898662824  0.2779377461547663  0.9488784244078934  1.0000
  H   H28       1.0  0.618208443992922  0.023248380344026875  0.2824030942624569  1.0000
  H   H29       1.0  0.743590259658945  0.12054707845739054  0.2804831523568829  1.0000
  H   H30       1.0  0.4775585006198589  0.18020140399923212  0.31866066554593364  1.0000
  H   H31       1.0  0.3861757790354194  0.16299289738311162  0.24204214215515552  1.0000
  H   H32       1.0  0.44867483160249444  0.28754979407490255  0.17767401601279387  1.0000
  Zn  Zn1       1.0  0.819617155711117  0.4038995983793894  0.6068558001874342  1.0000
  Zn  Zn2       1.0  0.9842481795419904  0.40049108682193557  0.6147357625321819  1.0000
  C   C41       1.0  0.9019167543168124  0.39709158240143294  0.8479799075309138  1.0000
  C   C42       1.0  0.9019503783874937  0.4073007042261003  0.3736118687143999  1.0000
  C   C43       1.0  0.9018887504050838  0.6393848267650144  0.6056235165302455  1.0000
  C   C44       1.0  0.9019783264064906  0.16500590075281663  0.6159683262458904  1.0000
  O   O1        1.0  0.9644215907465469  0.40775241629924075  0.42498579736631936  1.0000
  O   O2        1.0  0.9643966799544018  0.39405190909749765  0.8025863141307814  1.0000
  O   O3        1.0  0.9643732241198667  0.5897067859708716  0.6068817733869123  1.0000
  O   O4        1.0  0.9644449904096553  0.21209754985054774  0.6206902380513737  1.0000
  O   O5        1.0  0.8394202886629636  0.5922931365153465  0.6009013219723673  1.0000
  O   O6        1.0  0.8394437442097423  0.396639819916244  0.7966057934895387  1.0000
  O   O7        1.0  0.839468655183974  0.4103402814030068  0.4190037154010109  1.0000
  O   O8        1.0  0.8394920548380206  0.21468540569420225  0.6147082534490056  1.0000
