data_image0
_chemical_formula_structural       NC10NC3NH7C12NCOCH13C15H12Zn2C4O8
_chemical_formula_sum              "N4 C46 H32 O9 Zn2"
_cell_length_a       19.210446455230148
_cell_length_b       10.299155265289647
_cell_length_c       10.299157797200024
_cell_angle_alpha    85.52785804654131
_cell_angle_beta     90.0131967510761
_cell_angle_gamma    89.9251083167036

_space_group_name_H-M_alt    "P 1"
_space_group_IT_number       1

loop_
  _space_group_symop_operation_xyz
  'x, y, z'

loop_
  _atom_site_type_symbol
  _atom_site_label
  _atom_site_symmetry_multiplicity
  _atom_site_fract_x
  _atom_site_fract_y
  _atom_site_fract_z
  _atom_site_occupancy
  N   N1        1.0  0.6548720264929729  0.42070459743809674  0.566884469333993  1.0000
  C   C1        1.0  0.5946428967576655  0.42291217323285  0.5671150807371717  1.0000
  C   C2        1.0  0.5198377375595467  0.4256491630343995  0.5674007789727822  1.0000
  C   C3        1.0  0.4841969104734881  0.5418819505276657  0.5824844633523945  1.0000
  C   C4        1.0  0.4115313749178323  0.5420335126628129  0.5824318252994223  1.0000
  C   C5        1.0  0.3746707988068932  0.4263581455161858  0.5674870904071503  1.0000
  C   C6        1.0  0.2973490270341885  0.425001635261699  0.5673368278037876  1.0000
  C   C7        1.0  0.2595501461178931  0.5285976041962273  0.5039457195525234  1.0000
  C   C8        1.0  0.1867721711121254  0.5271953234604532  0.503836988410133  1.0000
  C   C9        1.0  0.1507915796372305  0.42245461431617626  0.567068301728662  1.0000
  C   C10       1.0  0.0758624045799377  0.4211524971280354  0.5669317896354724  1.0000
  N   N2        1.0  0.015624829660806  0.42010555068677347  0.5668220688013947  1.0000
  C   C11       1.0  0.1878667608783566  0.31898435294454064  0.630434368819015  1.0000
  C   C12       1.0  0.2606466758621575  0.320112334137475  0.6305934169215308  1.0000
  C   C13       1.0  0.4129210281317389  0.3119456338557778  0.5526911333246189  1.0000
  N   N3        1.0  0.4836903059104758  0.31439070273147696  0.5528560963638736  1.0000
  H   H1        1.0  0.5122747740922844  0.6313171676369105  0.5945112853975876  1.0000
  H   H2        1.0  0.3842395785544309  0.6320502028838164  0.5958533033179518  1.0000
  H   H3        1.0  0.28624178453826044  0.6098713497086654  0.452932018363267  1.0000
  H   H4        1.0  0.1585906706143089  0.6076409082374976  0.4541539607610221  1.0000
  H   H5        1.0  0.1605351858534525  0.23757534480282372  0.6800181462532668  1.0000
  H   H6        1.0  0.2881836078203112  0.23978550252453346  0.6817142210400731  1.0000
  H   H7        1.0  0.3866788701990928  0.2210659859797226  0.5392236206509549  1.0000
  C   C14       1.0  0.8353295254436538  0.0390074351153491  0.5669719688274337  1.0000
  C   C15       1.0  0.8234101825250405  0.048777614551053006  0.43204133090027264  1.0000
  C   C16       1.0  0.817299383186932  0.9365937740083804  0.36351093626866504  1.0000
  C   C17       1.0  0.8232436778528668  0.8135182361864316  0.4317335577472128  1.0000
  C   C18       1.0  0.8351740079418521  0.8017927742797002  0.5667457888829814  1.0000
  C   C19       1.0  0.8411465810465868  0.9150550377224579  0.6335338021578447  1.0000
  C   C20       1.0  0.8046910169210058  0.9479031120108171  0.22077061398065534  1.0000
  C   C21       1.0  0.8399758815146777  0.041985778948478325  0.13934238041128855  1.0000
  C   C22       1.0  0.8281163058190038  0.05249772436552402  0.005014224643653753  1.0000
  C   C23       1.0  0.7811675261332682  0.9682541359905594  0.9492686798730068  1.0000
  C   C24       1.0  0.7450323699917132  0.8759891918967685  0.03062889726737028  1.0000
  C   C25       1.0  0.7569172906892728  0.865221198890608  0.1649197111066063  1.0000
  N   N4        1.0  0.7670671611739989  0.9785698157406222  0.8117024032178382  1.0000
  C   C26       1.0  0.8178731651242228  0.01545857256516392  0.7134704184968395  1.0000
  O   O1        1.0  0.8817380679588921  0.01787645930595838  0.7413193390259982  1.0000
  C   C27       1.0  0.7956370159457524  0.041993868889852015  0.5749266618921456  1.0000
  H   H8        1.0  0.839935820095386  0.3627255593232195  0.6188663654124837  1.0000
  H   H9        1.0  0.817891846820971  0.1438511777578675  0.38022976293387  1.0000
  H   H10       1.0  0.8194880283879117  0.7267449990899587  0.3791028282194435  1.0000
  H   H11       1.0  0.8503425625879879  0.9068042253223876  0.737608177032492  1.0000
  H   H12       1.0  0.8581086733627927  0.5723776178359201  0.8214434150416712  1.0000
  H   H13       1.0  0.8771547097677178  0.1069574725675555  0.17943050141778372  1.0000
  H   H14       1.0  0.8548081138162005  0.12793123735303213  0.9454258563894973  1.0000
  H   H15       1.0  0.7077865554102074  0.8117219828469066  0.9896737036412375  1.0000
  H   H16       1.0  0.7279889124987674  0.7934074374505203  0.22534146001776634  1.0000
  H   H17       1.0  0.7180324073573033  0.949794235022915  0.7806357114383737  1.0000
  H   H18       1.0  0.745388260003801  0.09552463303393233  0.5704814655516617  1.0000
  H   H19       1.0  0.789186113138798  0.9484117965201366  0.5297011913604979  1.0000
  H   H20       1.0  0.8352525207263374  0.10203999950692944  0.5195214364400598  1.0000
  C   C28       1.0  0.8351710259094052  0.4205064798937408  0.18546684206011999  1.0000
  C   C29       1.0  0.7626708460518986  0.4026461552793128  0.18565987495854985  1.0000
  C   C30       1.0  0.7260601834705611  0.39348120386027086  0.06861543296042916  1.0000
  C   C31       1.0  0.7628777127288466  0.40243706444114213  0.9503926064483816  1.0000
  C   C32       1.0  0.8353324589242713  0.42029366949488267  0.9482508993066836  1.0000
  C   C33       1.0  0.8710560274586382  0.42921834374513845  0.06631841057801968  1.0000
  C   C34       1.0  0.649411256256864  0.37460419746891094  0.06986580881482607  1.0000
  C   C35       1.0  0.6181074145695704  0.2876706763871164  0.9887899749186753  1.0000
  C   C36       1.0  0.545977543768236  0.26999967830764193  0.9899988625101264  1.0000
  C   C37       1.0  0.5038669458670704  0.3382551801482945  0.07281601067163757  1.0000
  C   C38       1.0  0.5347980847065427  0.4260349301310944  0.1529149429681418  1.0000
  C   C39       1.0  0.6069272528027849  0.44371012804624277  0.15185400498049617  1.0000
  C   C40       1.0  0.4261621998451454  0.32156779527019697  0.07177147948773155  1.0000
  C   C41       1.0  0.3948372382227477  0.4153942234747714  0.9743381853637345  1.0000
  C   C42       1.0  0.3690927806760477  0.4925476085991689  0.8942210726882793  1.0000
  H   H21       1.0  0.972066856979588  0.4534220493517591  0.392457389659272  1.0000
  H   H22       1.0  0.7346738441404488  0.39406714215225125  0.277205008865147  1.0000
  H   H23       1.0  0.7347798482133092  0.3972452976817613  0.8597667152290063  1.0000
  H   H24       1.0  0.9269425668041543  0.44298790212582206  0.06538218197320056  1.0000
  H   H25       1.0  0.8632038495777896  0.42712047362561734  0.6199547743784617  1.0000
  H   H26       1.0  0.6494905092865558  0.23224884608077834  0.9254288722690687  1.0000
  H   H27       1.0  0.5229449079135099  0.20287722554228127  0.9264636300006956  1.0000
  H   H28       1.0  0.5030085454391551  0.4811482337284647  0.21593120833299007  1.0000
  H   H29       1.0  0.6293917009879727  0.5129409088588748  0.21374746997336125  1.0000
  H   H30       1.0  0.4122900050399312  0.22134317298823047  0.04835835119188858  1.0000
  H   H31       1.0  0.4040008831736454  0.3370506773054438  0.16899204996549466  1.0000
  H   H32       1.0  0.3465108583830709  0.5602856214363205  0.8238855557440043  1.0000
  Zn  Zn1       1.0  0.7589774942520048  0.4205282590793036  0.5668739624374035  1.0000
  Zn  Zn2       1.0  0.911519350371257  0.4202713027337177  0.5668432152582044  1.0000
  C   C43       1.0  0.8353014658475127  0.4151598503537255  0.8040699394402306  1.0000
  C   C44       1.0  0.835197044220897  0.42564134736080517  0.32964736490791635  1.0000
  C   C45       1.0  0.8351987063211419  0.6576115301640748  0.5616130695347807  1.0000
  C   C46       1.0  0.8352997520282399  0.18318810719870005  0.5721043045293495  1.0000
  O   O2        1.0  0.8930946167780066  0.42726147602810305  0.37802399876671977  1.0000
  O   O3        1.0  0.8931796326272833  0.4133437180736792  0.755669595605656  1.0000
  O   O4        1.0  0.8930958729267734  0.6091265166783275  0.5598839574913153  1.0000
  O   O5        1.0  0.8931783244038068  0.231478686829224  0.5738095395082243  1.0000
  O   O6        1.0  0.7773184681644041  0.6093208750728998  0.5599076381910444  1.0000
  O   O7        1.0  0.7774022275288913  0.41353963690910955  0.7556932065930635  1.0000
  O   O8        1.0  0.7773172114046202  0.4274573500396719  0.3780460482721528  1.0000
  O   O9        1.0  0.7774009190500792  0.2316745515241263  0.5738316863901547  1.0000
