data_image0
_chemical_formula_structural       NC10NC3NH7C12SCH12C13NH9Zn2C4O8
_chemical_formula_sum              "N4 C43 H28 S1 Zn2 O8"
_cell_length_a       19.210446455230148
_cell_length_b       10.299776766347529
_cell_length_c       10.298528502251457
_cell_angle_alpha    85.54283687761513
_cell_angle_beta     89.98780616926321
_cell_angle_gamma    89.9285037425463

_space_group_name_H-M_alt    "P 1"
_space_group_IT_number       1

loop_
  _space_group_symop_operation_xyz
  'x, y, z'

loop_
  _atom_site_type_symbol
  _atom_site_label
  _atom_site_symmetry_multiplicity
  _atom_site_fract_x
  _atom_site_fract_y
  _atom_site_fract_z
  _atom_site_occupancy
  N   N1        1.0  0.65525756969194  0.4206592938676479  0.5672392076515393  1.0000
  C   C1        1.0  0.5950284552699914  0.4228666699291945  0.5674705304725627  1.0000
  C   C2        1.0  0.5202233151093436  0.4256034121095926  0.5677571107218566  1.0000
  C   C3        1.0  0.48458259553236965  0.5418255284778277  0.5828784442786992  1.0000
  C   C4        1.0  0.4119170772931341  0.541977080503846  0.5828258506047916  1.0000
  C   C5        1.0  0.3750563783650978  0.42631232980064815  0.5678436514328453  1.0000
  C   C6        1.0  0.297734599215248  0.4249559427284766  0.5676929511199313  1.0000
  C   C7        1.0  0.2599540660691568  0.5285464445553134  0.504330389913034  1.0000
  C   C8        1.0  0.1871760723672466  0.5271442887055333  0.5042212093301672  1.0000
  C   C9        1.0  0.1511771347334702  0.42240915235709675  0.5674236040766363  1.0000
  C   C10       1.0  0.07624795075971  0.4211071530053463  0.5672866723287002  1.0000
  N   N2        1.0  0.0160103686620466  0.42006030130646366  0.5671766140805308  1.0000
  C   C11       1.0  0.1882339781443055  0.3189443487286652  0.6307611621448708  1.0000
  C   C12       1.0  0.2610138911620623  0.3200722256969102  0.6309205764397279  1.0000
  C   C13       1.0  0.4133064896289906  0.311910319438121  0.5530106381398152  1.0000
  N   N3        1.0  0.4840758058565399  0.31435517185395745  0.553176383234915  1.0000
  H   H1        1.0  0.5126604419390073  0.6312525125578932  0.594934262875858  1.0000
  H   H2        1.0  0.3846249508831465  0.6319854148817323  0.5962765995206696  1.0000
  H   H3        1.0  0.2866604032643741  0.6098159684363262  0.45333900107011216  1.0000
  H   H4        1.0  0.1590089282502841  0.6075856521929215  0.45456031952994147  1.0000
  H   H5        1.0  0.1608880397247547  0.2375396489702628  0.6803224913462516  1.0000
  H   H6        1.0  0.2885361289695592  0.23974952961139095  0.6820193738999019  1.0000
  H   H7        1.0  0.3870646452778761  0.22103910316067754  0.5395135793460799  1.0000
  C   C14       1.0  0.8357029282763249  0.03899456291429071  0.5672063057270258  1.0000
  C   C15       1.0  0.8398823018425171  0.027379808713577036  0.7037358349464626  1.0000
  C   C16       1.0  0.8419330042648578  0.9043560087713095  0.7729218049806648  1.0000
  C   C17       1.0  0.8397491979243097  0.792092248197501  0.7037510501901207  1.0000
  C   C18       1.0  0.8355716834840856  0.8017150520536084  0.5672207711762158  1.0000
  C   C19       1.0  0.833571541738819  0.925604761779092  0.49971265736534454  1.0000
  C   C20       1.0  0.8463466387419019  0.8931328282186206  0.9173546434753796  1.0000
  C   C21       1.0  0.806505742270339  0.7997135721230487  0.9914131187587132  1.0000
  C   C22       1.0  0.8106803948253812  0.7893856680899831  0.12733798729321721  1.0000
  C   C23       1.0  0.8545223410300044  0.8721981306210376  0.1910112994820211  1.0000
  C   C24       1.0  0.8945293176532207  0.9650428610322177  0.11832602476272025  1.0000
  C   C25       1.0  0.890456736292986  0.9757204878727799  0.9823907222673434  1.0000
  S   S1        1.0  0.8599557561577905  0.8584853437091698  0.36542159320114376  1.0000
  C   C26       1.0  0.7900065771574456  0.9746567152804565  0.38496478447244464  1.0000
  H   H8        1.0  0.8341377827945563  0.37087374799409756  0.5151823527556063  1.0000
  H   H9        1.0  0.8405924333910002  0.11419184576077757  0.7567003896430127  1.0000
  H   H10       1.0  0.8422743387306187  0.6970565302907453  0.7565191301032113  1.0000
  H   H11       1.0  0.8303478086694167  0.933796561713208  0.39438593070422123  1.0000
  H   H12       1.0  0.8339451080458289  0.47792806339795035  0.5152014951860577  1.0000
  H   H13       1.0  0.7714657070902553  0.7358235628953316  0.9442994238440108  1.0000
  H   H14       1.0  0.779557125658068  0.717356273370645  0.1830715616996299  1.0000
  H   H15       1.0  0.9288284595391829  0.0289894402590003  0.1670289731582817  1.0000
  H   H16       1.0  0.922458524908202  0.047378996846576316  0.9280702074842972  1.0000
  H   H17       1.0  0.803942774583943  0.07097976124351568  0.33607885141646887  1.0000
  H   H18       1.0  0.7819378820464228  0.9853140113779184  0.49025807801586396  1.0000
  H   H19       1.0  0.7410256718537627  0.9392197355745312  0.34284614664111457  1.0000
  C   C27       1.0  0.8356471676816285  0.42048126733246516  0.18579665301414727  1.0000
  C   C28       1.0  0.7632768403658838  0.44046315746835374  0.18331949007341186  1.0000
  C   C29       1.0  0.7266134171520093  0.4504478999764254  0.06491779710139389  1.0000
  C   C30       1.0  0.7632561065616509  0.4401983353553738  0.9480597850455998  1.0000
  C   C31       1.0  0.8356274225325736  0.42022832309440816  0.9486303710969897  1.0000
  C   C32       1.0  0.8713595373534989  0.4104949049691704  0.06796572117931299  1.0000
  C   C33       1.0  0.6501034260210686  0.47156705394283627  0.06330660926044551  1.0000
  C   C34       1.0  0.6193543718624426  0.5595482050436225  0.14422965584784753  1.0000
  C   C35       1.0  0.5473356037901205  0.5793806231864382  0.14259356534634704  1.0000
  C   C36       1.0  0.5051075854921007  0.5115929199305298  0.060250555690609664  1.0000
  C   C37       1.0  0.535169569881696  0.4238492413799073  0.9794316400480909  1.0000
  C   C38       1.0  0.6071809237687434  0.4039224719408707  0.9808311198184221  1.0000
  C   C39       1.0  0.4309641797933162  0.5320611092654903  0.05868686405313772  1.0000
  N   N4        1.0  0.3713578811896481  0.5485162762743672  0.05742979644758317  1.0000
  H   H20       1.0  0.9723411809585842  0.38191508794321893  0.3978648479597586  1.0000
  H   H21       1.0  0.7351634314639636  0.44651759433486227  0.2738401046656027  1.0000
  H   H22       1.0  0.7354039620790795  0.4495916920726737  0.8563608299272638  1.0000
  H   H23       1.0  0.9271367467147539  0.3950991887382631  0.06914003956140302  1.0000
  H   H24       1.0  0.9724497765336387  0.383304695380958  0.7423206344434163  1.0000
  H   H25       1.0  0.6510966514740832  0.6142631909279668  0.20752820652592208  1.0000
  H   H26       1.0  0.5246309428605663  0.6478078894577675  0.20530584160302  1.0000
  H   H27       1.0  0.502945922752439  0.3705852004487844  0.915561471608143  1.0000
  H   H28       1.0  0.6292023219120987  0.33436616450612644  0.9186657208012949  1.0000
  Zn  Zn1       1.0  0.7593630343477961  0.42048297104677057  0.5672286444437153  1.0000
  Zn  Zn2       1.0  0.9119048896121362  0.4202260381551344  0.5671978142027017  1.0000
  C   C40       1.0  0.8356304901378555  0.4151025347933115  0.8044383909337769  1.0000
  C   C41       1.0  0.8356390992890819  0.42560811016442046  0.3299881948894845  1.0000
  C   C42       1.0  0.8355930239559384  0.6575463720821544  0.5620421969651186  1.0000
  C   C43       1.0  0.835676513685866  0.18316271265274908  0.5723844580864541  1.0000
  O   O1        1.0  0.8935252315321851  0.42722555507293514  0.3783684935257703  1.0000
  O   O2        1.0  0.8935200966404091  0.41328910417596854  0.7560343189463248  1.0000
  O   O3        1.0  0.8934890618204862  0.6090655697741547  0.5602976775066388  1.0000
  O   O4        1.0  0.8935562143008281  0.231449098884843  0.5741050375892389  1.0000
  O   O5        1.0  0.7777116576040555  0.6092599104061565  0.5603214210608669  1.0000
  O   O6        1.0  0.7777426921540628  0.4134850051198935  0.7560579932759308  1.0000
  O   O7        1.0  0.7777478271403475  0.42742141127898914  0.37839060625746823  1.0000
  O   O8        1.0  0.7777788099052216  0.23164494576989747  0.5741272477008432  1.0000
