data_image0
_chemical_formula_structural       NC11NC3H8C12SCH12C12ClH9Zn2C4O8
_chemical_formula_sum              "N2 C43 H29 S1 Cl1 Zn2 O8"
_cell_length_a       17.807433833752565
_cell_length_b       10.299776766347529
_cell_length_c       10.299771906710086
_cell_angle_alpha    85.54586025256013
_cell_angle_beta     88.53397753802528
_cell_angle_gamma    90.66624570658541

_space_group_name_H-M_alt    "P 1"
_space_group_IT_number       1

loop_
  _space_group_symop_operation_xyz
  'x, y, z'

loop_
  _atom_site_type_symbol
  _atom_site_label
  _atom_site_symmetry_multiplicity
  _atom_site_fract_x
  _atom_site_fract_y
  _atom_site_fract_z
  _atom_site_occupancy
  N   N1        1.0  0.7070064953038536  0.43886063912697115  0.534728669625474  1.0000
  C   C1        1.0  0.6561998020380592  0.4041159446132083  0.601288913079647  1.0000
  C   C2        1.0  0.5929911486507228  0.3608964094298557  0.6840813618532717  1.0000
  C   C3        1.0  0.6047417463144302  0.2973130590143007  0.8067959176408968  1.0000
  C   C4        1.0  0.5434399569427244  0.2557739070909675  0.8873045297767248  1.0000
  C   C5        1.0  0.4702333414285947  0.27750466367985394  0.8457393623696736  1.0000
  C   C6        1.0  0.45750587795225234  0.34124269122195483  0.7225646205583527  1.0000
  C   C7        1.0  0.3797305318079321  0.36430431982676104  0.6782188856065139  1.0000
  C   C8        1.0  0.36093775265071876  0.3474684999845403  0.5486391474257246  1.0000
  C   C9        1.0  0.2877011976049618  0.36916054153756694  0.5070299073464415  1.0000
  C   C10       1.0  0.23231421078176562  0.40800715360354967  0.5941801528490775  1.0000
  C   C11       1.0  0.1569406826621088  0.43035802831645276  0.5512096595409159  1.0000
  N   N2        1.0  0.09634574010161272  0.448326471116985  0.5166645103037475  1.0000
  C   C12       1.0  0.250415336853445  0.42505369482232225  0.7232287710762193  1.0000
  C   C13       1.0  0.3235991609625771  0.40332665268930934  0.765093436424487  1.0000
  C   C14       1.0  0.5196649816178522  0.3827772737178814  0.6420724238947375  1.0000
  H   H1        1.0  0.6612139410706868  0.2798895886111916  0.840160398358559  1.0000
  H   H2        1.0  0.5526562383308139  0.20629609642879032  0.9820376622817839  1.0000
  H   H3        1.0  0.42360652272744664  0.24293156403389782  0.9091763608417078  1.0000
  H   H4        1.0  0.4026154346197807  0.3158463982894171  0.47992202964869324  1.0000
  H   H5        1.0  0.2742527713914364  0.3553079498006224  0.40699583264568084  1.0000
  H   H6        1.0  0.2080210492779325  0.4554529359248942  0.7914310751232358  1.0000
  H   H7        1.0  0.3365188506999441  0.4187246759174652  0.8649448224452254  1.0000
  H   H8        1.0  0.5111469472910284  0.4336173463788995  0.5475736612844202  1.0000
  C   C15       1.0  0.9017505422253015  0.06223022598537864  0.5256915186845621  1.0000
  C   C16       1.0  0.9062777145587122  0.050739693011362164  0.6619946843168287  1.0000
  C   C17       1.0  0.9084993393438783  0.9277769674503644  0.7310692976996034  1.0000
  C   C18       1.0  0.9061340651891671  0.8154484198231529  0.6620165394830344  1.0000
  C   C19       1.0  0.9016088992096716  0.824947054279244  0.5257125313834268  1.0000
  C   C20       1.0  0.8994420458413483  0.9487771938709975  0.4583130323384126  1.0000
  C   C21       1.0  0.9132802978003874  0.9166849849178043  0.8752630518535536  1.0000
  C   C22       1.0  0.8702913796279538  0.8221583240843233  0.9512999325300899  1.0000
  C   C23       1.0  0.8748133832431827  0.8119544758208675  0.08699875194295881  1.0000
  C   C24       1.0  0.9221371656934134  0.8959936562793243  0.14847603668911535  1.0000
  C   C25       1.0  0.9653054915623515  0.9899505015999353  0.07380388999662535  1.0000
  C   C26       1.0  0.9608936461075566  0.0005069198150668974  0.9380895446145945  1.0000
  S   S1        1.0  0.9280223626896612  0.8824421915889651  0.3225924478729383  1.0000
  C   C27       1.0  0.8525327114958537  0.9966631127269572  0.34562356509516945  1.0000
  H   H9        1.0  0.900055039687552  0.39406284117986234  0.47375245397176347  1.0000
  H   H10       1.0  0.9070505654062017  0.1375744980478779  0.714916893377358  1.0000
  H   H11       1.0  0.9088657247431738  0.7204860966347914  0.7146517301300688  1.0000
  H   H12       1.0  0.8959500385246503  0.956873175688764  0.3531609118108414  1.0000
  H   H13       1.0  0.8998470995062265  0.5011117821395171  0.47378120840672566  1.0000
  H   H14       1.0  0.8324689973888025  0.7572880892079062  0.9059408878090229  1.0000
  H   H15       1.0  0.8412306561322486  0.7390598704133398  0.14427811142996805  1.0000
  H   H16       1.0  0.0023284647617936027  0.05485672467690339  0.12078895155680192  1.0000
  H   H17       1.0  0.9954246795513991  0.07305522851136637  0.8821792221318074  1.0000
  H   H18       1.0  0.8675672776516481  0.09337224229820174  0.296048591318944  1.0000
  H   H19       1.0  0.8438374619037464  0.007101172953368984  0.4513057509051902  1.0000
  H   H20       1.0  0.7996653770454714  0.9598572440279237  0.30595457751402044  1.0000
  C   C28       1.0  0.9016439319095557  0.44369408979908753  0.14433440856528446  1.0000
  C   C29       1.0  0.9697723360844824  0.5142328564856722  0.13484705970685362  1.0000
  C   C30       1.0  0.004330207295846877  0.5498681553969831  0.012907703274705806  1.0000
  C   C31       1.0  0.9698448452960913  0.5140194589148861  0.8995739151487343  1.0000
  C   C32       1.0  0.901715474729323  0.4434832286022805  0.907069652932674  1.0000
  C   C33       1.0  0.8679968853940939  0.4087147248829024  0.029900212806915016  1.0000
  C   C34       1.0  0.07640487726604483  0.624490905001748  0.003924603552635464  1.0000
  C   C35       1.0  0.0882591104272692  0.7277834125725546  0.08317865093663279  1.0000
  C   C36       1.0  0.1561313480238744  0.7979203356764273  0.07453460389829725  1.0000
  C   C37       1.0  0.2129194566729522  0.7658304581035711  0.9869111013730305  1.0000
  C   C38       1.0  0.20178226195421445  0.6634148434788505  0.9077525969137494  1.0000
  C   C39       1.0  0.133977398808945  0.5930792381961572  0.9160178829553702  1.0000
  Cl  Cl1       1.0  0.2980303722201636  0.8539492686101993  0.9763042244716797  1.0000
  H   H21       1.0  0.8756637675593557  0.416872110362015  0.47539942302594684  1.0000
  H   H22       1.0  0.9966461853777344  0.5400855384030292  0.2225814728068991  1.0000
  H   H23       1.0  0.9957285555038876  0.5427896226841489  0.8052639521772869  1.0000
  H   H24       1.0  0.8154385008408412  0.3542984221856864  0.03645108445700718  1.0000
  H   H25       1.0  0.8757693763303319  0.41656010886034767  0.5824753323684915  1.0000
  H   H26       1.0  0.04470203343939483  0.7553773309325089  0.1505740516578089  1.0000
  H   H27       1.0  0.1644234341807702  0.8773952570639476  0.13578499163422042  1.0000
  H   H28       1.0  0.24568177734658003  0.6379763804354757  0.8399977735455821  1.0000
  H   H29       1.0  0.12693234247961227  0.5130943616864754  0.8549291614904515  1.0000
  Zn  Zn1       1.0  0.8193613923081875  0.44158879710798504  0.5295232278500763  1.0000
  Zn  Zn2       1.0  0.9839908313022417  0.4455876907704308  0.5218805377641005  1.0000
  C   C40       1.0  0.9017012436327506  0.4383494158376111  0.7628962683807781  1.0000
  C   C41       1.0  0.9016527774336367  0.4488287542692815  0.28850754128657186  1.0000
  C   C42       1.0  0.9016313003068176  0.6807786806993372  0.5205335678954184  1.0000
  C   C43       1.0  0.901722664879352  0.20639792774381505  0.5308703135752981  1.0000
  O   O1        1.0  0.9641317612493794  0.45206388821608634  0.33399300045232305  1.0000
  O   O2        1.0  0.9641721948944786  0.4381483700475104  0.7116098104078667  1.0000
  O   O3        1.0  0.9641148726943597  0.6339130465290641  0.5159002541456077  1.0000
  O   O4        1.0  0.9641890272617624  0.25629921968699265  0.5297024619484365  1.0000
  O   O5        1.0  0.8391631401687183  0.6308772668282128  0.5217013062669844  1.0000
  O   O6        1.0  0.8392204620691062  0.4351141506471883  0.7174107933271217  1.0000
  O   O7        1.0  0.839180028335902  0.4490296239933844  0.3397924219726849  1.0000
  O   O8        1.0  0.8392372943560722  0.25326494614862005  0.5355019808361885  1.0000
