data_image0
_chemical_formula_structural       NC10NC5H10C12OCH12C13F3H9Zn2C4O8
_chemical_formula_sum              "N2 C45 H31 O9 F3 Zn2"
_cell_length_a       19.4436361288709
_cell_length_b       10.29979075500242
_cell_length_c       10.2985328690268
_cell_angle_alpha    85.57397699723032
_cell_angle_beta     89.71035499971406
_cell_angle_gamma    89.4004616021446

_space_group_name_H-M_alt    "P 1"
_space_group_IT_number       1

loop_
  _space_group_symop_operation_xyz
  'x, y, z'

loop_
  _atom_site_type_symbol
  _atom_site_label
  _atom_site_symmetry_multiplicity
  _atom_site_fract_x
  _atom_site_fract_y
  _atom_site_fract_z
  _atom_site_occupancy
  N   N1        1.0  0.64734031352751  0.40886119433386003  0.5619026705683872  1.0000
  C   C1        1.0  0.5885043443822203  0.4187649410047729  0.5762871754308694  1.0000
  C   C2        1.0  0.5151750243030385  0.4311162477739041  0.5942801577348442  1.0000
  C   C3        1.0  0.4729860179523189  0.39910702723255076  0.4996010194588525  1.0000
  C   C4        1.0  0.3970802006552634  0.4095459670205397  0.5049289049168575  1.0000
  C   C5        1.0  0.357356746814974  0.384812276785915  0.6120109521328512  1.0000
  C   C6        1.0  0.2812341322893175  0.3887271716875915  0.5990503563443481  1.0000
  C   C7        1.0  0.24067185260984664  0.4464005498006489  0.6928248992365684  1.0000
  C   C8        1.0  0.1690066983833891  0.45003689834802985  0.682279982665587  1.0000
  C   C9        1.0  0.1369091653172409  0.3956038969768656  0.5782470944957989  1.0000
  C   C10       1.0  0.06311473928631062  0.39930146806204747  0.5675468805252823  1.0000
  N   N2        1.0  0.0037890259355537  0.4022741212090195  0.5589446179016588  1.0000
  C   C11       1.0  0.1767467134772438  0.3372234822036835  0.48485585643043794  1.0000
  C   C12       1.0  0.24842827837354664  0.33353287684367605  0.49514897941226876  1.0000
  C   C13       1.0  0.3855105377989295  0.3443689366848506  0.7431179361953113  1.0000
  C   C14       1.0  0.4441720741045418  0.38749679850076  0.7903615784571911  1.0000
  C   C15       1.0  0.48835511435702855  0.48534472359326886  0.7159828506662631  1.0000
  H   H1        1.0  0.4950800891456224  0.36997822140500713  0.40928895786438635  1.0000
  H   H2        1.0  0.3723679224485665  0.43202828129192694  0.41176213582484467  1.0000
  H   H3        1.0  0.264543859107859  0.4897018284449275  0.7736769337807341  1.0000
  H   H4        1.0  0.13866224166025884  0.4953608521351487  0.7552038291211909  1.0000
  H   H5        1.0  0.1524028281236069  0.2941179039429218  0.40433831924780694  1.0000
  H   H6        1.0  0.2781075679542109  0.2859656369040371  0.4229216476940363  1.0000
  H   H7        1.0  0.3545627302700847  0.2801606380774899  0.8073734388365537  1.0000
  H   H8        1.0  0.4593382987763157  0.3534426047347554  0.8883054614442327  1.0000
  H   H9        1.0  0.45822826695050173  0.5760551942029533  0.6907238159457643  1.0000
  H   H10       1.0  0.5316427849251819  0.5109388611542631  0.7790711939458099  1.0000
  C   C16       1.0  0.8256297699938187  0.024198714151074663  0.5604620818590178  1.0000
  C   C17       1.0  0.8057271625465595  0.013440278036136899  0.6920753362270431  1.0000
  C   C18       1.0  0.7955877780418904  0.8908536099558181  0.7587320722865531  1.0000
  C   C19       1.0  0.8056035928434813  0.7781602484003204  0.6920105715716178  1.0000
  C   C20       1.0  0.8255061697107385  0.7869264700291356  0.5603963848714957  1.0000
  C   C21       1.0  0.8354094161147424  0.910389102302742  0.49535974850794684  1.0000
  C   C22       1.0  0.7745361371157791  0.8805258204039137  0.8979727269465749  1.0000
  C   C23       1.0  0.7243541010576953  0.7906006076470313  0.9434581573485719  1.0000
  C   C24       1.0  0.7046027850925984  0.781152853969609  0.0743710808301914  1.0000
  C   C25       1.0  0.7345886467009108  0.8609704963692988  0.16147707250334287  1.0000
  C   C26       1.0  0.78495388359966  0.9515019759333936  0.11786197026198997  1.0000
  C   C27       1.0  0.8044919506521917  0.9605923231313618  0.9864240765833898  1.0000
  O   O1        1.0  0.8167503193891431  0.03363972660947123  0.20147293002639066  1.0000
  C   C28       1.0  0.80201177012465  0.03493011430312065  0.33694165971098544  1.0000
  H   H11       1.0  0.8332436171500347  0.35574906759629155  0.5103328261573508  1.0000
  H   H12       1.0  0.7971526698867094  0.10064011823587249  0.7425790981890643  1.0000
  H   H13       1.0  0.7987496898987515  0.6834021080910392  0.7434392398943124  1.0000
  H   H14       1.0  0.8507639662088624  0.917920374968676  0.39382567900647936  1.0000
  H   H15       1.0  0.8330557362095703  0.4628159644317738  0.5102300246396658  1.0000
  H   H16       1.0  0.6997501392221703  0.7288065300684395  0.8774477588059284  1.0000
  H   H17       1.0  0.6657599793319968  0.7119106507162606  0.108374785659349  1.0000
  H   H18       1.0  0.7182943359847165  0.8515521133060426  0.2622865547623717  1.0000
  H   H19       1.0  0.8438897823747045  0.02939851040805319  0.953928738779283  1.0000
  H   H20       1.0  0.8138954190328788  0.9381965449072024  0.3874694819194622  1.0000
  H   H21       1.0  0.8344700909012077  0.10898188554147703  0.37888983491942463  1.0000
  H   H22       1.0  0.7471065136547753  0.060859709114408744  0.3518338800559979  1.0000
  C   C29       1.0  0.8255482111029352  0.4054410268323223  0.17903194890969987  1.0000
  C   C30       1.0  0.8945217795872216  0.3632751971827961  0.18067625440147972  1.0000
  C   C31       1.0  0.9294711841833495  0.3420281218559884  0.06433857070655158  1.0000
  C   C32       1.0  0.8945623424317821  0.3635300634603511  0.9453752189224853  1.0000
  C   C33       1.0  0.8255877041034161  0.4056842080886507  0.9418265741080543  1.0000
  C   C34       1.0  0.7915211229730136  0.42636532025269647  0.05914867699819948  1.0000
  C   C35       1.0  0.0023926689737481244  0.29746097197993904  0.06701143020252798  1.0000
  C   C36       1.0  0.049875095218862464  0.351183772693932  0.9750709593698028  1.0000
  C   C37       1.0  0.11850397210439678  0.30934223035851116  0.9776079558910546  1.0000
  C   C38       1.0  0.1408995295242632  0.2115326359144729  0.07090212632839221  1.0000
  C   C39       1.0  0.09381493720981715  0.15962152196786383  0.16441646362758333  1.0000
  C   C40       1.0  0.025190532124945708  0.2014960365189178  0.1619903480880478  1.0000
  C   C41       1.0  0.21547666889232198  0.16986806972324286  0.07657029354590295  1.0000
  F   F1        1.0  0.2507364140332886  0.24853076133934415  0.15575543779673984  1.0000
  F   F2        1.0  0.24476601166510092  0.18049993919459983  0.9534690487768405  1.0000
  F   F3        1.0  0.22186702936696645  0.041629325520421645  0.1264145530202032  1.0000
  H   H23       1.0  0.6953447794920868  0.48593486634583605  0.383185593275434  1.0000
  H   H24       1.0  0.9214586363700656  0.34861792000346203  0.27253295991039006  1.0000
  H   H25       1.0  0.920979633767345  0.3456604203418725  0.8555268352372645  1.0000
  H   H26       1.0  0.7383616063330933  0.45885811389370645  0.057148256416585275  1.0000
  H   H27       1.0  0.6951247418689436  0.4845993138344238  0.727853264931217  1.0000
  H   H28       1.0  0.034189599724105735  0.42723761890693557  0.9024652162723732  1.0000
  H   H29       1.0  0.1541547502563645  0.35390954089243576  0.9068228694050635  1.0000
  H   H30       1.0  0.1100498391185849  0.0864490480065152  0.23946027277020532  1.0000
  H   H31       1.0  0.9897873253599068  0.15787817423481054  0.2337929737184976  1.0000
  Zn  Zn1       1.0  0.7502037144310645  0.4069568383443236  0.561056553463539  1.0000
  Zn  Zn2       1.0  0.9009256188195296  0.40416787292147704  0.5598014178945876  1.0000
  C   C42       1.0  0.8255795450221346  0.40046457508235345  0.7976425068264092  1.0000
  C   C43       1.0  0.8255514338479856  0.4106617443881204  0.323215578160577  1.0000
  C   C44       1.0  0.8255257075170285  0.6427531284512529  0.5552333135358676  1.0000
  C   C45       1.0  0.8256052201787162  0.16837163169051816  0.5656248412574929  1.0000
  O   O2        1.0  0.8827506935705717  0.4113498013075698  0.37112860435133244  1.0000
  O   O3        1.0  0.8827747234023539  0.3976587780976246  0.7487764879911392  1.0000
  O   O4        1.0  0.8827304779472503  0.5933098637981888  0.5530293556286177  1.0000
  O   O5        1.0  0.8827948875879509  0.21569872581786886  0.5668756397594297  1.0000
  O   O6        1.0  0.7683343942286539  0.5954259864010807  0.5539823320201815  1.0000
  O   O7        1.0  0.7683786394241431  0.3997764609823675  0.7497293949978137  1.0000
  O   O8        1.0  0.7683546095645875  0.4134674384377306  0.3720799498445877  1.0000
  O   O9        1.0  0.7683988035857015  0.21781635369031482  0.567827082628594  1.0000
