data_image0
_chemical_formula_structural       NC10NC3NCH9C16H10C13OH12Zn2C4O8
_chemical_formula_sum              "N3 C47 H31 O9 Zn2"
_cell_length_a       19.437513618241372
_cell_length_b       10.29914801576943
_cell_length_c       10.299153481560891
_cell_angle_alpha    85.55882765748771
_cell_angle_beta     90.36417058255482
_cell_angle_gamma    89.53623586623313

_space_group_name_H-M_alt    "P 1"
_space_group_IT_number       1

loop_
  _space_group_symop_operation_xyz
  'x, y, z'

loop_
  _atom_site_type_symbol
  _atom_site_label
  _atom_site_symmetry_multiplicity
  _atom_site_fract_x
  _atom_site_fract_y
  _atom_site_fract_z
  _atom_site_occupancy
  N   N1        1.0  0.6478050872014335  0.4100579516427909  0.5751486252740292  1.0000
  C   C1        1.0  0.5888733717548439  0.42706831520124955  0.5721669958161506  1.0000
  C   C2        1.0  0.5154349288489877  0.4483212146961564  0.5684659664807763  1.0000
  C   C3        1.0  0.4736571365850345  0.3471200163392052  0.5568397450118945  1.0000
  C   C4        1.0  0.3977670645151394  0.35718325178124966  0.5496150083370033  1.0000
  C   C5        1.0  0.3582161685413127  0.43805851243206373  0.6153317746580562  1.0000
  C   C6        1.0  0.2820311655982198  0.4294469567334074  0.6068903960014516  1.0000
  C   C7        1.0  0.24888053246611283  0.3080947140394683  0.6115736472332232  1.0000
  C   C8        1.0  0.1771436059886466  0.3017202353070343  0.6044075942052356  1.0000
  C   C9        1.0  0.1375866971100601  0.4162253921264836  0.5929206811032413  1.0000
  C   C10       1.0  0.0637352200803837  0.4095126558189448  0.5855866456570673  1.0000
  N   N2        1.0  0.0043637307455518  0.40411620607987464  0.5796905393758092  1.0000
  C   C11       1.0  0.17002084266340642  0.5372672715650217  0.5889828167844593  1.0000
  C   C12       1.0  0.2417422194020483  0.5438957795742372  0.5962108086384759  1.0000
  C   C13       1.0  0.3869301498710892  0.5303779021273327  0.7052225084340102  1.0000
  N   N3        1.0  0.4439195247572365  0.5935888662993141  0.6847973291954454  1.0000
  C   C14       1.0  0.4877359389648807  0.584292625067854  0.5716914715264352  1.0000
  H   H1        1.0  0.496025961325352  0.252053103680699  0.544749585459638  1.0000
  H   H2        1.0  0.37303168278444765  0.2876482094075685  0.49131899267362256  1.0000
  H   H3        1.0  0.2783210955584842  0.21817961582336332  0.6226241239834063  1.0000
  H   H4        1.0  0.1525382363257913  0.20748824327647197  0.6083257266661521  1.0000
  H   H5        1.0  0.1398953818503481  0.626528114417561  0.5802447299635076  1.0000
  H   H6        1.0  0.2658661193487796  0.638540596804704  0.5922770807681621  1.0000
  H   H7        1.0  0.3569468994945391  0.550790533729663  0.7895834667538404  1.0000
  H   H8        1.0  0.5304991255012643  0.6546119667657924  0.5774318706133763  1.0000
  H   H9        1.0  0.4580540805551864  0.6123759955193373  0.4810356074304323  1.0000
  C   C15       1.0  0.8260387401052882  0.02568650147844065  0.5775845697386428  1.0000
  C   C16       1.0  0.8103091334820749  0.03549709958193037  0.4439091963240325  1.0000
  C   C17       1.0  0.8023844219248929  0.9233406163666211  0.37596898309797266  1.0000
  C   C18       1.0  0.8104009125641597  0.8002436024824225  0.4435057720224824  1.0000
  C   C19       1.0  0.8261366649422178  0.7884774917754188  0.5772659772689139  1.0000
  C   C20       1.0  0.8338599203170302  0.9017164034415776  0.6434817853046009  1.0000
  C   C21       1.0  0.7857445649380338  0.9347646488266681  0.2345565614798839  1.0000
  C   C22       1.0  0.8182822607499627  0.8532051968402845  0.14975269000984737  1.0000
  C   C23       1.0  0.8025973650892476  0.8640826798309473  0.016660462795572428  1.0000
  C   C24       1.0  0.7542136505203262  0.956421928563465  0.9665657855176923  1.0000
  C   C25       1.0  0.7215503045650545  0.03796330568033923  0.050084105676128754  1.0000
  C   C26       1.0  0.7371861498898502  0.027327913680469385  0.1831966548116719  1.0000
  C   C27       1.0  0.7380914234078176  0.9674961754095522  0.8295352118241581  1.0000
  C   C28       1.0  0.7245892320803088  0.9767707511352327  0.7147740879730144  1.0000
  C   C29       1.0  0.7087783254561615  0.9876311544542421  0.5803899824596384  1.0000
  C   C30       1.0  0.6952784000776914  0.9969043222206486  0.4656473953784874  1.0000
  H   H10       1.0  0.8320536401770546  0.34938811992361973  0.6290154878184346  1.0000
  H   H11       1.0  0.805110912148786  0.13061947163758836  0.3919324999218803  1.0000
  H   H12       1.0  0.8034269351355017  0.7134471694727107  0.39200104085187704  1.0000
  H   H13       1.0  0.8459905574570563  0.8934333804359211  0.7465898621023204  1.0000
  H   H14       1.0  0.8554110376637075  0.558970177949002  0.8299041647950809  1.0000
  H   H15       1.0  0.8565068475308695  0.7821770562933876  0.1860895751698004  1.0000
  H   H16       1.0  0.828327544034411  0.8007067811521291  0.9528128753754146  1.0000
  H   H17       1.0  0.6838727338474436  0.10954616581481824  0.012384285384034133  1.0000
  H   H18       1.0  0.7106538208794854  0.09032706965124593  0.2462312307004597  1.0000
  H   H19       1.0  0.6834243786787272  0.0050469459634510105  0.36489372943829146  1.0000
  C   C31       1.0  0.8260285990999111  0.4069355437318687  0.1960520183379404  1.0000
  C   C32       1.0  0.7548942561408623  0.38373870326473236  0.19582759447613207  1.0000
  C   C33       1.0  0.7189524614046043  0.3721381177421894  0.07854777090295495  1.0000
  C   C34       1.0  0.7550566193281536  0.38405332289945404  0.9605215620344918  1.0000
  C   C35       1.0  0.8261468279728555  0.40722846276473335  0.9587984857332685  1.0000
  C   C36       1.0  0.8612177178194249  0.4185306456249813  0.0770919578602729  1.0000
  C   C37       1.0  0.6437459196602343  0.3476264291237028  0.0792835668158085  1.0000
  C   C38       1.0  0.6002412693575122  0.41359358497536447  0.9860344050883469  1.0000
  C   C39       1.0  0.5294674796214339  0.3905705854802217  0.9868047689722941  1.0000
  C   C40       1.0  0.5010070072745569  0.3003250871919949  0.0799402803858209  1.0000
  C   C41       1.0  0.5440502506569838  0.23546199122946043  0.17410163511754417  1.0000
  C   C42       1.0  0.6148273004234218  0.25845528654826233  0.17350947485421497  1.0000
  C   C43       1.0  0.4247609972753388  0.27830706065295296  0.08289520575774367  1.0000
  O   O1        1.0  0.3938704660871248  0.3664171561428766  0.16197215751536742  1.0000
  H   H20       1.0  0.9602108052408304  0.45155189015677544  0.4037025372802825  1.0000
  H   H21       1.0  0.727155564609583  0.37643659890256576  0.28695308781580486  1.0000
  H   H22       1.0  0.727758137898184  0.3734550462119266  0.8699993424984123  1.0000
  H   H23       1.0  0.9160513511736313  0.4364099765791347  0.0764787120072421  1.0000
  H   H24       1.0  0.8534815315518955  0.41622851127054994  0.6306535261974795  1.0000
  H   H25       1.0  0.6208165255891089  0.4845128334570592  0.9137089487040315  1.0000
  H   H26       1.0  0.4968313162283211  0.4433990907842258  0.9148862808730334  1.0000
  H   H27       1.0  0.5228408689578836  0.16675988944464581  0.24785796898217027  1.0000
  H   H28       1.0  0.647049950594821  0.20543315525911532  0.24594599305882103  1.0000
  H   H29       1.0  0.41382843780863493  0.17669338324470396  0.12161751873934734  1.0000
  H   H30       1.0  0.4029857629481223  0.2920363189123041  0.9824813603089781  1.0000
  H   H31       1.0  0.3438542229030266  0.34789543525942945  0.1606397704406275  1.0000
  Zn  Zn1       1.0  0.7507002158620689  0.40833980560099015  0.5764668340701671  1.0000
  Zn  Zn2       1.0  0.9014686085784305  0.40582368578690353  0.5783830050302814  1.0000
  C   C44       1.0  0.8261222679049213  0.4019990133346807  0.8146252252074511  1.0000
  C   C45       1.0  0.8260482031518878  0.41216608938148114  0.3402247616009102  1.0000
  C   C46       1.0  0.8261138174015547  0.6442918397900848  0.5721509004666858  1.0000
  C   C47       1.0  0.8260566020189328  0.16987170337946478  0.5826991555790317  1.0000
  O   O2        1.0  0.883270601023129  0.412960987715977  0.38933763053418113  1.0000
  O   O3        1.0  0.883329591378525  0.39929345833314556  0.766966312254719  1.0000
  O   O4        1.0  0.8833219964028641  0.5949479932973816  0.571166569113547  1.0000
  O   O5        1.0  0.8832781445378516  0.2173064628639183  0.58513727564184  1.0000
  O   O6        1.0  0.768890628452794  0.5968570293840145  0.5697125627978818  1.0000
  O   O7        1.0  0.7688982236149224  0.4012040548264306  0.7655122360409703  1.0000
  O   O8        1.0  0.7688392330574786  0.414871538349151  0.3878819929215185  1.0000
  O   O9        1.0  0.7688467765832855  0.21921700424495483  0.5836817354019634  1.0000
