data_image0
_chemical_formula_structural       NC8NC6H8C12ClH9C13NH9Zn2C4O8
_chemical_formula_sum              "N3 C43 H26 Cl1 Zn2 O8"
_cell_length_a       17.457602349358154
_cell_length_b       10.299768534541528
_cell_length_c       10.298528502251457
_cell_angle_alpha    85.54291766685282
_cell_angle_beta     92.8736263554175
_cell_angle_gamma    91.70638861519478

_space_group_name_H-M_alt    "P 1"
_space_group_IT_number       1

loop_
  _space_group_symop_operation_xyz
  'x, y, z'

loop_
  _atom_site_type_symbol
  _atom_site_label
  _atom_site_symmetry_multiplicity
  _atom_site_fract_x
  _atom_site_fract_y
  _atom_site_fract_z
  _atom_site_occupancy
  N   N1        1.0  0.7227399514230504  0.4532824516848277  0.6263869223477017  1.0000
  C   C1        1.0  0.661653609378061  0.407361111784895  0.6157682339021988  1.0000
  C   C2        1.0  0.5856596176518762  0.3502406760929435  0.6025681288277924  1.0000
  C   C3        1.0  0.5271364637373211  0.39037715844398546  0.677476564790189  1.0000
  C   C4        1.0  0.4525809390479016  0.33537476485913187  0.6648910500240033  1.0000
  C   C5        1.0  0.3904671877555677  0.37775289898567066  0.7442219201492466  1.0000
  C   C6        1.0  0.3159256247899019  0.39623985462475386  0.6884521319172272  1.0000
  C   C7        1.0  0.2574024300462273  0.4361923766178888  0.7634685284147567  1.0000
  C   C8        1.0  0.1814228901470272  0.4552859233401896  0.7054830251996453  1.0000
  N   N2        1.0  0.120348255360672  0.4706307552016955  0.6588628314530238  1.0000
  C   C9        1.0  0.2729286671323122  0.4579009123859621  0.8947633027233963  1.0000
  C   C10       1.0  0.3466855887877198  0.43980281086156925  0.9509207512222329  1.0000
  C   C11       1.0  0.4051971996646963  0.40003018857880424  0.8763621394370713  1.0000
  C   C12       1.0  0.43783712661951  0.23955895428749896  0.5759639770503706  1.0000
  C   C13       1.0  0.4963486038047127  0.19970101597165613  0.5014556041534255  1.0000
  C   C14       1.0  0.5701193684069594  0.254815600123401  0.5145911411752391  1.0000
  H   H1        1.0  0.5394928618373076  0.4655486459039744  0.7441182581783481  1.0000
  H   H2        1.0  0.3035807051578955  0.38130386616270107  0.586414420192318  1.0000
  H   H3        1.0  0.22807186957332254  0.4887637548529613  0.9536075653324869  1.0000
  H   H4        1.0  0.358517103607951  0.4562965740046836  0.05258521170352193  1.0000
  H   H5        1.0  0.46167864936493586  0.3850230341977474  0.9224737930255573  1.0000
  H   H6        1.0  0.3813441755071519  0.1942272905412623  0.5653091883197996  1.0000
  H   H7        1.0  0.4845062616346612  0.12564638383625804  0.4336154803675534  1.0000
  H   H8        1.0  0.6149760302364451  0.22308289448319885  0.45625803600828707  1.0000
  C   C15       1.0  0.9214754093736883  0.08058819711783882  0.6426171443593016  1.0000
  C   C16       1.0  0.9265323736685958  0.0904209940563061  0.5065444220744602  1.0000
  C   C17       1.0  0.929168534571752  0.9782671988634097  0.43760870560456877  1.0000
  C   C18       1.0  0.9266789039008781  0.8551396646745338  0.5065718822575722  1.0000
  C   C19       1.0  0.9216201347553759  0.843315259971215  0.6426443950682226  1.0000
  C   C20       1.0  0.9190472818820221  0.9565981612783429  0.7099050652930214  1.0000
  C   C21       1.0  0.9345194013198637  0.9897231906390958  0.2936551923230617  1.0000
  C   C22       1.0  0.8908748991410611  0.08138433951719026  0.2156173991953998  1.0000
  C   C23       1.0  0.8959796449424678  0.0919742303665334  0.08013783061384583  1.0000
  C   C24       1.0  0.944654852826764  0.011422452561784535  0.02099794111518638  1.0000
  C   C25       1.0  0.9882868261742342  0.9200735158965369  0.09752330391820285  1.0000
  C   C26       1.0  0.9833183250711421  0.9090973133903979  0.23302864578279614  1.0000
  Cl  Cl1       1.0  0.9509740304426957  0.024951359526513617  0.8510080453521733  1.0000
  H   H9        1.0  0.9195090918188011  0.40429345129489835  0.6944610811067671  1.0000
  H   H10       1.0  0.9294918171948349  0.18558043840746685  0.45404704749235814  1.0000
  H   H11       1.0  0.9276361702579032  0.7683656681154485  0.45369739194866243  1.0000
  H   H12       1.0  0.9151452897174326  0.9482443884536916  0.8148788432602518  1.0000
  H   H13       1.0  0.9197230540112599  0.5113571935571062  0.6945017888937473  1.0000
  H   H14       1.0  0.8520824296344799  0.1436517717302137  0.2591981371467711  1.0000
  H   H15       1.0  0.8619176001957102  0.1626210697760433  0.021237023150092016  1.0000
  H   H16       1.0  0.026223727495556126  0.8577227139362209  0.05218299831451079  1.0000
  H   H17       1.0  0.018353965908087355  0.838786771239231  0.29051448521599577  1.0000
  C   C27       1.0  0.9215586980426207  0.46207869966014603  0.2612148125281042  1.0000
  C   C28       1.0  0.8418023530660622  0.47846055235007334  0.2522107702431886  1.0000
  C   C29       1.0  0.8013970580420084  0.4866214828935731  0.1305025002187643  1.0000
  C   C30       1.0  0.8417794005453364  0.47819469418008675  0.01694918653230859  1.0000
  C   C31       1.0  0.9215368396882296  0.46182476875473233  0.02404674148532293  1.0000
  C   C32       1.0  0.9609157760385952  0.453868834872976  0.1466046763076796  1.0000
  C   C33       1.0  0.7170785585925087  0.503934673139594  0.12199108803635372  1.0000
  C   C34       1.0  0.6832214585867514  0.5903875924037281  0.20014353605985846  1.0000
  C   C35       1.0  0.603852532630639  0.6066374603933853  0.1920122706719305  1.0000
  C   C36       1.0  0.5572846356377728  0.5367477699549936  0.10585826099790818  1.0000
  C   C37       1.0  0.5903845625883074  0.4504981460107762  0.02774798054655836  1.0000
  C   C38       1.0  0.6697452811013765  0.434153556248027  0.035641963417679  1.0000
  C   C39       1.0  0.47557425306166834  0.553527720603608  0.09760778088308375  1.0000
  N   N3        1.0  0.4098846153455595  0.5670177924131083  0.09097498624383005  1.0000
  H   H18       1.0  0.07220320461997476  0.43031230351331873  0.4856110351883822  1.0000
  H   H19       1.0  0.8108190796983237  0.4831164677804005  0.34019585907483063  1.0000
  H   H20       1.0  0.8110853501333749  0.48620258473638933  0.9227383787974164  1.0000
  H   H21       1.0  0.022385533687184767  0.44124773713081966  0.15280938684356982  1.0000
  H   H22       1.0  0.07232342194224373  0.43170733745764833  0.830076661564064  1.0000
  H   H23       1.0  0.7182273979607904  0.6466826808555532  0.2663068900855605  1.0000
  H   H24       1.0  0.5788542492336993  0.6739363618415828  0.252678888773461  1.0000
  H   H25       1.0  0.5548486280765108  0.3956300797547627  0.9609696382262203  1.0000
  H   H26       1.0  0.6939900688695004  0.3656916022593075  0.9754605583186335  1.0000
  Zn  Zn1       1.0  0.837481118283937  0.45828531214063206  0.6357662674665281  1.0000
  Zn  Zn2       1.0  0.00560707192485399  0.46561724339699206  0.649494119792769  1.0000
  C   C40       1.0  0.9215382758334166  0.4566990447590966  0.8798548720657717  1.0000
  C   C41       1.0  0.9215517506128135  0.46720522941855047  0.4054057926420678  1.0000
  C   C42       1.0  0.9215889714624489  0.6991451949040697  0.6374631476825294  1.0000
  C   C43       1.0  0.9215009973161133  0.2247575164475888  0.6477975815322903  1.0000
  O   O1        1.0  0.9853523411278622  0.4717025036020903  0.45900725098092954  1.0000
  O   O2        1.0  0.9853413937868895  0.4577655571526864  0.8366721620744146  1.0000
  O   O3        1.0  0.9853814710158424  0.653543851586808  0.640939059492037  1.0000
  O   O4        1.0  0.9853122065334635  0.27592421598870454  0.6547402514925684  1.0000
  O   O5        1.0  0.8577759263021912  0.6479783370483072  0.630520131075254  1.0000
  O   O6        1.0  0.8577358493677703  0.4522016029395619  0.826253164459178  1.0000
  O   O7        1.0  0.8577467967959318  0.4661385046550257  0.44858669177486044  1.0000
  O   O8        1.0  0.857706662193843  0.270360207720292  0.6443197896657642  1.0000
