data_image0
_chemical_formula_structural       NC11NC3H8C16H10C12BrH9Zn2C4O8
_chemical_formula_sum              "N2 C46 H27 Br1 Zn2 O8"
_cell_length_a       17.807433833752565
_cell_length_b       10.29914801576943
_cell_length_c       10.299148005577397
_cell_angle_alpha    85.52895802354352
_cell_angle_beta     88.49799670841169
_cell_angle_gamma    90.69784511463686

_space_group_name_H-M_alt    "P 1"
_space_group_IT_number       1

loop_
  _space_group_symop_operation_xyz
  'x, y, z'

loop_
  _atom_site_type_symbol
  _atom_site_label
  _atom_site_symmetry_multiplicity
  _atom_site_fract_x
  _atom_site_fract_y
  _atom_site_fract_z
  _atom_site_occupancy
  N   N1        1.0  0.7080065613139911  0.4388132028974594  0.533978974256107  1.0000
  C   C1        1.0  0.6571644249370574  0.4040738169301594  0.6005593904680835  1.0000
  C   C2        1.0  0.5939116843307702  0.3608608847395183  0.6833769322895782  1.0000
  C   C3        1.0  0.6055970915211925  0.29728737032407615  0.8061284648378777  1.0000
  C   C4        1.0  0.5442525902921326  0.25575468953575076  0.8866612564747562  1.0000
  C   C5        1.0  0.47106811904655144  0.27748213453289305  0.845083476468601  1.0000
  C   C6        1.0  0.4584060631923689  0.34121028056083436  0.7218716572132728  1.0000
  C   C7        1.0  0.3806543026288207  0.36426836338581925  0.6775125216231699  1.0000
  C   C8        1.0  0.361902972847334  0.3474135068526776  0.5479318158670852  1.0000
  C   C9        1.0  0.2886885654088712  0.36910222694100936  0.5063099778179114  1.0000
  C   C10       1.0  0.23328267791130242  0.4079644775417284  0.5934483939445705  1.0000
  C   C11       1.0  0.1579320053852826  0.43031191689210635  0.5504649135679571  1.0000
  N   N2        1.0  0.09735543704762971  0.4482775979077134  0.5159093236882659  1.0000
  C   C12       1.0  0.25134261573027084  0.4250300062388954  0.7224978489426179  1.0000
  C   C13       1.0  0.3245041882892299  0.40330631607139544  0.7643751450864631  1.0000
  C   C14       1.0  0.5206078712785428  0.3827383936429678  0.6413552842102099  1.0000
  H   H1        1.0  0.6620515174894873  0.27986656019221434  0.8395030607152538  1.0000
  H   H2        1.0  0.5534184178695204  0.2062844316064001  0.9814231123764976  1.0000
  H   H3        1.0  0.4244070445932194  0.24291394407107036  0.9085403625695581  1.0000
  H   H4        1.0  0.40359523430521027  0.31577897214686756  0.4792244752124777  1.0000
  H   H5        1.0  0.27527185861485987  0.355234850968021  0.4062755440883665  1.0000
  H   H6        1.0  0.2089335363318255  0.4554414856432636  0.7906908961820287  1.0000
  H   H7        1.0  0.33739272881496735  0.4187192583370154  0.8642261772557429  1.0000
  H   H8        1.0  0.5121406501518034  0.43357108519293  0.5468271960629376  1.0000
  C   C15       1.0  0.9026310472293682  0.06214278624304925  0.525112000984822  1.0000
  C   C16       1.0  0.885513328900081  0.07134497807163376  0.3924259256407452  1.0000
  C   C17       1.0  0.8768895344581491  0.9588822912397948  0.3249840927921468  1.0000
  C   C18       1.0  0.8856137253801529  0.8360956625048909  0.3920166561395426  1.0000
  C   C19       1.0  0.9027381175444814  0.8249381783836749  0.5247871787911818  1.0000
  C   C20       1.0  0.9111426830425661  0.9384755081312753  0.5905172760758999  1.0000
  C   C21       1.0  0.8587812383105924  0.9696627105727809  0.18461821845334292  1.0000
  C   C22       1.0  0.8943485044533441  0.8895546307910803  0.09774567933838063  1.0000
  C   C23       1.0  0.8772793538111048  0.899825328443738  0.9656399506496274  1.0000
  C   C24       1.0  0.8244677864057592  0.990100420805859  0.9186105463174674  1.0000
  C   C25       1.0  0.7887638770192563  0.07018568189993757  0.0042054233595785195  1.0000
  C   C26       1.0  0.805779457338702  0.06015494469078586  0.1363345858523255  1.0000
  C   C27       1.0  0.8069228076145172  0.0005510851063958988  0.7825939630284595  1.0000
  C   C28       1.0  0.7922290768800174  0.00930341690669878  0.668682045236165  1.0000
  C   C29       1.0  0.7750228917595425  0.019552278853680383  0.5352923499797702  1.0000
  C   C30       1.0  0.7603316272555217  0.02830329072375748  0.4213988263985202  1.0000
  H   H9        1.0  0.9091766146633987  0.3860768875629208  0.576164637214394  1.0000
  H   H10       1.0  0.8798597879258112  0.16627045116473949  0.3407756860668205  1.0000
  H   H11       1.0  0.8780209079009085  0.7490253396695262  0.34095102421403256  1.0000
  H   H12       1.0  0.9243438209493016  0.9306616771023095  0.6928624095373181  1.0000
  H   H13       1.0  0.9345942175750283  0.5965611120769151  0.775584420857206  1.0000
  H   H14       1.0  0.9360726459767011  0.8201589646853921  0.1316607074595424  1.0000
  H   H15       1.0  0.9054038514039147  0.8375954315509595  0.9001566987877885  1.0000
  H   H16       1.0  0.7476376565033082  0.14016043421967894  0.9688926860177389  1.0000
  H   H17       1.0  0.7767793929695442  0.12197386803548005  0.20105564619628202  1.0000
  H   H18       1.0  0.747431514377255  0.035987419782183894  0.32139070654485824  1.0000
  C   C31       1.0  0.9027869945404708  0.4435950231859873  0.14355660708055673  1.0000
  C   C32       1.0  0.8321295825380424  0.5026625079230505  0.14137329445576463  1.0000
  C   C33       1.0  0.796198973791803  0.5325551438567866  0.023132974493878855  1.0000
  C   C34       1.0  0.8318788341947936  0.5025836014024239  0.9061079273175059  1.0000
  C   C35       1.0  0.9025821650043072  0.44348596337417634  0.9063425102955054  1.0000
  C   C36       1.0  0.9376007353752133  0.41435359879929634  0.025510656597500958  1.0000
  C   C37       1.0  0.7214524966605754  0.5950433592476243  0.021868183719747858  1.0000
  C   C38       1.0  0.7056859627879335  0.6959865766920212  0.10263542743307386  1.0000
  C   C39       1.0  0.6353006232200545  0.7546897860480435  0.10125180529395217  1.0000
  C   C40       1.0  0.5798818256756291  0.7133955094720039  0.019475898999730346  1.0000
  C   C41       1.0  0.5948939074901425  0.61322088582319  0.938890874069922  1.0000
  C   C42       1.0  0.6652153440697405  0.5542941385790765  0.9398850165808676  1.0000
  Br  Br1       1.0  0.4837796933201858  0.7937372007477801  0.017851091146293907  1.0000
  H   H19       1.0  0.9299802284857099  0.4209281859041043  0.47186715702666904  1.0000
  H   H20       1.0  0.804410314384687  0.523936825974842  0.23199005304899667  1.0000
  H   H21       1.0  0.8049017000838904  0.527024951053251  0.8145329371579795  1.0000
  H   H22       1.0  0.9921016488211446  0.36879733882302235  0.026478606137010363  1.0000
  H   H23       1.0  0.0362408700406347  0.33268267409987407  0.6994263277156865  1.0000
  H   H24       1.0  0.748081118980911  0.730637128832287  0.16556134726920924  1.0000
  H   H25       1.0  0.6239665214940592  0.8324873181616124  0.16354958281435272  1.0000
  H   H26       1.0  0.5520546311147377  0.5807117091080047  0.8756776622856521  1.0000
  H   H27       1.0  0.675292233680221  0.4757766953216489  0.8778469694507107  1.0000
  Zn  Zn1       1.0  0.8203642337532773  0.4415409468383942  0.528771949898954  1.0000
  Zn  Zn2       1.0  0.9849977455142531  0.44553923192050227  0.5211269392496105  1.0000
  C   C43       1.0  0.9026184892506199  0.43833239354271836  0.762161950634036  1.0000
  C   C44       1.0  0.9027452880055544  0.4487494676238246  0.2877369818078437  1.0000
  C   C45       1.0  0.9027154079407018  0.6807542690834514  0.5196732360508727  1.0000
  C   C46       1.0  0.9026483128999213  0.20632603026807161  0.5302257689072536  1.0000
  O   O1        1.0  0.9652088498345712  0.4519910083717542  0.3332239933842609  1.0000
  O   O2        1.0  0.965107953450875  0.4381244789022667  0.7108721794159267  1.0000
  O   O3        1.0  0.9651853739288158  0.6338831885970544  0.5150608652777044  1.0000
  O   O4        1.0  0.9651313732058173  0.2562323066175911  0.529035212746441  1.0000
  O   O5        1.0  0.8402305498803776  0.6308478707783021  0.5208636790041579  1.0000
  O   O6        1.0  0.8401531296366526  0.43509072153552997  0.7166749232281691  1.0000
  O   O7        1.0  0.8402540264832421  0.4489572059695306  0.33902517571428903  1.0000
  O   O8        1.0  0.8401765498239657  0.2531984949117392  0.5348364924545466  1.0000
