data_image0
_chemical_formula_structural       NC12NC2H8C12OCH12C13NH13Zn2C4O8
_chemical_formula_sum              "N3 C44 H33 O9 Zn2"
_cell_length_a       17.80743265337812
_cell_length_b       10.29979075500242
_cell_length_c       10.299780419254978
_cell_angle_alpha    85.56841767701755
_cell_angle_beta     91.52098048016336
_cell_angle_gamma    89.41792083348325

_space_group_name_H-M_alt    "P 1"
_space_group_IT_number       1

loop_
  _space_group_symop_operation_xyz
  'x, y, z'

loop_
  _atom_site_type_symbol
  _atom_site_label
  _atom_site_symmetry_multiplicity
  _atom_site_fract_x
  _atom_site_fract_y
  _atom_site_fract_z
  _atom_site_occupancy
  N   N1        1.0  0.7073502983258007  0.40633148532155805  0.6013147718261462  1.0000
  C   C1        1.0  0.6565339662698524  0.435872936159019  0.5326180695916303  1.0000
  C   C2        1.0  0.5933134336908767  0.47262035758238885  0.44716801964274366  1.0000
  C   C3        1.0  0.6050466110441172  0.5266090646910095  0.32055205260409325  1.0000
  C   C4        1.0  0.543733394772942  0.5618535005760634  0.23749794807592917  1.0000
  C   C5        1.0  0.4705327351331491  0.5433725271610452  0.2803999294764985  1.0000
  C   C6        1.0  0.4578227461483419  0.4892651354593607  0.40748401923896527  1.0000
  C   C7        1.0  0.519993280031962  0.4540239492985907  0.49052161284438367  1.0000
  C   C8        1.0  0.38005371461884097  0.469670757793593  0.45324620088827783  1.0000
  C   C9        1.0  0.3612471029443897  0.49688942795778557  0.5802809660557107  1.0000
  C   C10       1.0  0.28801648481610337  0.47845003821542287  0.6232235049771402  1.0000
  C   C11       1.0  0.2326494504832001  0.4325379193263925  0.5399692146413249  1.0000
  C   C12       1.0  0.15728215257653902  0.41354605961924107  0.584312635583178  1.0000
  N   N2        1.0  0.09669218226453712  0.39827788169014666  0.6199616954913556  1.0000
  C   C13       1.0  0.2507645320715793  0.4051504746177823  0.4134773982107973  1.0000
  C   C14       1.0  0.3239423241119457  0.42360458470548834  0.3702789866574143  1.0000
  H   H1        1.0  0.6615138755821223  0.5414240799619501  0.2861160840814081  1.0000
  H   H2        1.0  0.5529359792313306  0.6039257142620873  0.13972179275069108  1.0000
  H   H3        1.0  0.42389615673991166  0.5729913783557243  0.21481098027344858  1.0000
  H   H4        1.0  0.5114893471078068  0.4105663935232331  0.5881734290134715  1.0000
  H   H5        1.0  0.4029086239278676  0.5340854536422079  0.6458474672026466  1.0000
  H   H6        1.0  0.2745570274003019  0.5003205919035816  0.7212249222182554  1.0000
  H   H7        1.0  0.2083858495523471  0.36922183785016216  0.34832373616284995  1.0000
  H   H8        1.0  0.3368736302869211  0.4001985590368309  0.27258099628736043  1.0000
  C   C15       1.0  0.9020923439838842  0.02093547549701036  0.6106805685171517  1.0000
  C   C16       1.0  0.8803280485212998  0.010246665610245786  0.7410713635180295  1.0000
  C   C17       1.0  0.8692403020278883  0.8876955053243092  0.8071053658947622  1.0000
  C   C18       1.0  0.8801930883221868  0.7749671505052386  0.7409991171927972  1.0000
  C   C19       1.0  0.9019573505607055  0.7836637461186606  0.6106073881207787  1.0000
  C   C20       1.0  0.9127868594509267  0.907091691230924  0.5461789741629524  1.0000
  C   C21       1.0  0.8462194870732349  0.8774413590143995  0.9450529816129356  1.0000
  C   C22       1.0  0.7913980441583033  0.7877184044933492  0.9874912725639449  1.0000
  C   C23       1.0  0.7697991347250195  0.7783397197851247  0.11719099247851239  1.0000
  C   C24       1.0  0.8025354386413479  0.8580258469930877  0.20610375094969213  1.0000
  C   C25       1.0  0.8575566312108406  0.9483541400333635  0.16554666250406813  1.0000
  C   C26       1.0  0.8789227135293486  0.9573763447398479  0.03530911170423012  1.0000
  O   O1        1.0  0.8922712532776188  0.030353250897803496  0.2510745577720733  1.0000
  C   C27       1.0  0.8761468131018869  0.03169165510277838  0.3856333509254568  1.0000
  H   H9        1.0  0.910418347705986  0.35245917253868697  0.56101894406463  1.0000
  H   H10       1.0  0.8709526807760002  0.09747708036141334  0.7910492230877608  1.0000
  H   H11       1.0  0.8726969076256595  0.6802324182428108  0.7920060553690003  1.0000
  H   H12       1.0  0.9295776720396073  0.9145692480257255  0.44558801249804136  1.0000
  H   H13       1.0  0.9102131489683918  0.45952685209380395  0.560904767610769  1.0000
  H   H14       1.0  0.7645362511466277  0.7260317282764932  0.919997717663501  1.0000
  H   H15       1.0  0.7273654810724383  0.7092541843571093  0.14883624313917365  1.0000
  H   H16       1.0  0.784718283763745  0.8486651145009217  0.30591325496323896  1.0000
  H   H17       1.0  0.921962322521173  0.026023439590802333  0.00520568333393201  1.0000
  H   H18       1.0  0.8891174324899414  0.9349044724330126  0.43687524546141554  1.0000
  H   H19       1.0  0.9115923441188779  0.10560594803885559  0.42954369207008036  1.0000
  H   H20       1.0  0.8161721321245502  0.05784579718433114  0.3971959098895783  1.0000
  C   C28       1.0  0.9020760068456704  0.40221369327183454  0.22929230512597965  1.0000
  C   C29       1.0  0.9564506567614799  0.5001177920797912  0.22322626348208807  1.0000
  C   C30       1.0  0.9839447794335764  0.5498230575883549  0.10300584861570461  1.0000
  C   C31       1.0  0.9563474461734258  0.5002921591134526  0.9879211294619363  1.0000
  C   C32       1.0  0.9019736891924766  0.4023855224973938  0.9919956607392559  1.0000
  C   C33       1.0  0.8751403805609488  0.3538980077534246  0.11315003875384977  1.0000
  C   C34       1.0  0.041471023702926324  0.6533945598720305  0.09768019550882778  1.0000
  C   C35       1.0  0.03637400569997107  0.7580773229605129  0.0016006444288860777  1.0000
  C   C36       1.0  0.0905433866750549  0.855473127477604  0.9966748680257731  1.0000
  C   C37       1.0  0.15042930614163397  0.8505312968135292  0.08821780030967097  1.0000
  C   C38       1.0  0.1562465570930418  0.7455547991067473  0.18327509760362815  1.0000
  C   C39       1.0  0.10209271384413587  0.6481339742877377  0.18837439098994402  1.0000
  C   C40       1.0  0.20973527555045068  0.9535219827409542  0.0805936130821332  1.0000
  N   N3        1.0  0.2673322200812349  0.9196787607226702  0.9904770976161168  1.0000
  H   H21       1.0  0.8813872591230574  0.36486015311666375  0.559062036488998  1.0000
  H   H22       1.0  0.976808064957582  0.5392024303859617  0.3120676747000759  1.0000
  H   H23       1.0  0.9781193347062728  0.5369966768872725  0.8951531125179923  1.0000
  H   H24       1.0  0.8331930645544219  0.2783684018837207  0.11706116168394431  1.0000
  H   H25       1.0  0.8812405363401868  0.3651018954767824  0.6660922495197683  1.0000
  H   H26       1.0  0.9900404836656499  0.7653821303981216  0.9310793184833841  1.0000
  H   H27       1.0  0.08569069264644469  0.9349733432810354  0.9215962551928736  1.0000
  H   H28       1.0  0.20285892789454074  0.7388964807783294  0.2532831971511811  1.0000
  H   H29       1.0  0.10825494905911714  0.567589515853498  0.2620499234617859  1.0000
  H   H30       1.0  0.1837601217825564  0.04908546955760773  0.04606073625893359  1.0000
  H   H31       1.0  0.23564105843584993  0.9642964206658513  0.1786900229501902  1.0000
  H   H32       1.0  0.3052289195792941  0.996586072263147  0.9823457930203632  1.0000
  H   H33       1.0  0.2974860960636889  0.8387519247998692  0.03270075620307433  1.0000
  Zn  Zn1       1.0  0.8197059587308018  0.4040039236857973  0.6067033581270169  1.0000
  Zn  Zn2       1.0  0.9843365198194995  0.4005948522473235  0.6145837027790133  1.0000
  C   C41       1.0  0.9019922483077724  0.39717942533532535  0.8478288401958445  1.0000
  C   C42       1.0  0.902052027695969  0.40742095202012174  0.37345843406687984  1.0000
  C   C43       1.0  0.9019796760116952  0.6394908056139199  0.6054461346440827  1.0000
  C   C44       1.0  0.9020645440820538  0.165108012616898  0.6158412063147456  1.0000
  O   O2        1.0  0.9645204210309947  0.4078691650357775  0.4248324541832318  1.0000
  O   O3        1.0  0.9644746417707771  0.3941428261710882  0.8024354455963805  1.0000
  O   O4        1.0  0.9644636470892114  0.5898123479360138  0.6067096555213729  1.0000
  O   O5        1.0  0.9645313595467229  0.21219965370242333  0.6205581441980492  1.0000
  O   O6        1.0  0.8395110628232485  0.5923991233954586  0.6007289140119751  1.0000
  O   O7        1.0  0.8395220572344768  0.39673116191992297  0.7964546346948733  1.0000
  O   O8        1.0  0.8395678367621757  0.4104574551757594  0.41885008195826656  1.0000
  O   O9        1.0  0.8395787752634115  0.21478793457559475  0.6145758693372685  1.0000
