data_image0
_chemical_formula_structural       NC12NC2H8C12BrH9C12OCH12Zn2C4O8
_chemical_formula_sum              "N2 C43 H29 Br1 O9 Zn2"
_cell_length_a       17.80743265337812
_cell_length_b       10.299144633409057
_cell_length_c       10.299794127170987
_cell_angle_alpha    85.56673362329126
_cell_angle_beta     91.52773436804358
_cell_angle_gamma    89.41017280233162

_space_group_name_H-M_alt    "P 1"
_space_group_IT_number       1

loop_
  _space_group_symop_operation_xyz
  'x, y, z'

loop_
  _atom_site_type_symbol
  _atom_site_label
  _atom_site_symmetry_multiplicity
  _atom_site_fract_x
  _atom_site_fract_y
  _atom_site_fract_z
  _atom_site_occupancy
  N   N1        1.0  0.7071432148323037  0.4063305171092433  0.6011678831627358  1.0000
  C   C1        1.0  0.6563198719537809  0.4358690536938665  0.5324682491147836  1.0000
  C   C2        1.0  0.5930906186681233  0.472612850267794  0.4470145521883797  1.0000
  C   C3        1.0  0.6048109110056126  0.5265961527418372  0.32039323127058883  1.0000
  C   C4        1.0  0.5434892563304207  0.5618370311416028  0.23733563322524498  1.0000
  C   C5        1.0  0.4702929775946924  0.5433578753980104  0.28023944904315967  1.0000
  C   C6        1.0  0.4575959147949861  0.48925591418112724  0.40732890371223096  1.0000
  C   C7        1.0  0.5197748857054107  0.4540182845259926  0.49036999054732466  1.0000
  C   C8        1.0  0.37983154674860486  0.4696634839749423  0.4530930292177595  1.0000
  C   C9        1.0  0.3610313566494375  0.4968934786057764  0.5801243488544015  1.0000
  C   C10       1.0  0.28780511884583454  0.47845591253571707  0.6230687175295295  1.0000
  C   C11       1.0  0.23243612028183372  0.43253433610623593  0.5398197267256741  1.0000
  C   C12       1.0  0.15707334167363873  0.41354436312172393  0.5841650317964127  1.0000
  N   N2        1.0  0.09648700456904341  0.398277701985718  0.6198156064177669  1.0000
  C   C13       1.0  0.2505448305325845  0.40513559465648075  0.4133313719874141  1.0000
  C   C14       1.0  0.3237182237545648  0.4235878633054142  0.3701311300861003  1.0000
  H   H1        1.0  0.661274660661993  0.5414097076489397  0.2859557923855578  1.0000
  H   H2        1.0  0.5526818602078236  0.6039050988371337  0.13955530224816304  1.0000
  H   H3        1.0  0.4236495925179208  0.5729740467044742  0.21464754748922377  1.0000
  H   H4        1.0  0.511281035692592  0.4105647651265305  0.5880261329384096  1.0000
  H   H5        1.0  0.40269434156153033  0.5340970278148114  0.6456865639095335  1.0000
  H   H6        1.0  0.2743505456193865  0.5003352658039413  0.7210673821672247  1.0000
  H   H7        1.0  0.20816461070875664  0.36919955666065696  0.3481818571117139  1.0000
  H   H8        1.0  0.33664478902238915  0.40017294904143763  0.2724360574815814  1.0000
  C   C15       1.0  0.9019167032196491  0.020907248479822282  0.6105753959198159  1.0000
  C   C16       1.0  0.8698868158623945  0.030474285632056564  0.4840864309664368  1.0000
  C   C17       1.0  0.8535458664941974  0.918190541560377  0.41987305392236185  1.0000
  C   C18       1.0  0.8696670150093523  0.7952131920556751  0.48385467066198085  1.0000
  C   C19       1.0  0.9017207193290525  0.7836908848241475  0.6104196324147464  1.0000
  C   C20       1.0  0.917647328581602  0.897053773115452  0.6730018982159849  1.0000
  C   C21       1.0  0.8196632789118524  0.9293564647066864  0.2860621612571357  1.0000
  C   C22       1.0  0.8448134917696991  0.02411703897323836  0.19180375975032038  1.0000
  C   C23       1.0  0.8128565576775045  0.03442085446534926  0.06590482772858319  1.0000
  C   C24       1.0  0.7554886962851052  0.9505081216509365  0.032623799603218595  1.0000
  C   C25       1.0  0.7300472454239948  0.8560729627635594  0.1254277598420268  1.0000
  C   C26       1.0  0.7618732652223844  0.8453545540324848  0.2514206958267513  1.0000
  Br  Br1       1.0  0.7119255857052849  0.9648654942462102  0.8605819935000616  1.0000
  H   H9        1.0  0.9142680025708988  0.34470410314593636  0.659206430004774  1.0000
  H   H10       1.0  0.8566227985901915  0.12545494161249282  0.43589236578826895  1.0000
  H   H11       1.0  0.8581331348312047  0.7083693316321188  0.43413945674153487  1.0000
  H   H12       1.0  0.9423551356111054  0.8889588006056632  0.7705643580471233  1.0000
  H   H13       1.0  0.9626526258871466  0.5546676883617349  0.8489910287937132  1.0000
  H   H14       1.0  0.889825990266066  0.08907442337965321  0.21496077438085304  1.0000
  H   H15       1.0  0.8328618818891493  0.10745599954429341  0.9942082537637802  1.0000
  H   H16       1.0  0.6854848458763403  0.7911317190047114  0.10014379865456946  1.0000
  H   H17       1.0  0.7406463225137527  0.772558765588914  0.3221989414381876  1.0000
  C   C27       1.0  0.9018440747979294  0.4021850430689853  0.22914731727637316  1.0000
  C   C28       1.0  0.8282402863602218  0.35458149322315013  0.22843812670959807  1.0000
  C   C29       1.0  0.7909239791292313  0.3305634216435116  0.11093089596394612  1.0000
  C   C30       1.0  0.8281891534654592  0.3548090324407689  0.9931307425914779  1.0000
  C   C31       1.0  0.9017933624192862  0.40241308105044027  0.9918476913666177  1.0000
  C   C32       1.0  0.938209433830416  0.4258316273699987  0.11035601657497485  1.0000
  C   C33       1.0  0.7130574930806354  0.28019442244365833  0.11123541386736813  1.0000
  C   C34       1.0  0.6592632052040893  0.3299773291271413  0.017501268676284543  1.0000
  C   C35       1.0  0.586080823431558  0.28255772051034467  0.018056842978826815  1.0000
  C   C36       1.0  0.5656288632456938  0.18504039695970298  0.11178278986793333  1.0000
  C   C37       1.0  0.6186823539303782  0.13386812322895114  0.20634430636291823  1.0000
  C   C38       1.0  0.6919666936022777  0.18192521105433057  0.20534211688150505  1.0000
  O   O1        1.0  0.6010244927018714  0.03565399948149639  0.30233915579533965  1.0000
  C   C39       1.0  0.5290279146360595  0.9778656591698464  0.3149394527153513  1.0000
  H   H18       1.0  0.9299002824021426  0.42026551537757895  0.5568755981606484  1.0000
  H   H19       1.0  0.7993826300353843  0.3377483805150523  0.31933635422469586  1.0000
  H   H20       1.0  0.800032551673685  0.3347955980405475  0.9024546029299287  1.0000
  H   H21       1.0  0.994991979143668  0.4625549181282673  0.11013475124928851  1.0000
  H   H22       1.0  0.929824580540076  0.42061387292965513  0.6639006829646976  1.0000
  H   H23       1.0  0.6735308259361031  0.40675338995889665  0.9448511219893581  1.0000
  H   H24       1.0  0.5449960050480188  0.3218053869204569  0.945743835067371  1.0000
  H   H25       1.0  0.5085643504619932  0.15018409310167313  0.10988504727869475  1.0000
  H   H26       1.0  0.73272080041913  0.14093425035815255  0.27746585492732545  1.0000
  H   H27       1.0  0.5135559610683197  0.9297267454828542  0.22534718938358522  1.0000
  H   H28       1.0  0.5309774921428412  0.903344626592681  0.3987190123233175  1.0000
  H   H29       1.0  0.48622032024976153  0.053014255551949496  0.3331519863606167  1.0000
  Zn  Zn1       1.0  0.8194994259931839  0.40400318331959606  0.6065567005541335  1.0000
  Zn  Zn2       1.0  0.9841307929317394  0.40059444470849614  0.6144373837208803  1.0000
  C   C40       1.0  0.9018025800147974  0.3971959385398074  0.8476819791063306  1.0000
  C   C41       1.0  0.9018294362499866  0.4074032910424472  0.37331231835105005  1.0000
  C   C42       1.0  0.9017542331745644  0.6395070497716298  0.605273970019738  1.0000
  C   C43       1.0  0.9018777273093782  0.16509062057784085  0.6157203943023963  1.0000
  O   O2        1.0  0.9643012706450721  0.4078553180378841  0.4246860890235862  1.0000
  O   O3        1.0  0.9642821440921707  0.3941557779055025  0.8022890909831555  1.0000
  O   O4        1.0  0.9642422611010087  0.5898250825094684  0.6065428679767209  1.0000
  O   O5        1.0  0.9643410974627907  0.21218602385888108  0.6204322119690917  1.0000
  O   O6        1.0  0.8392890652815267  0.5924116053338582  0.6005618696098007  1.0000
  O   O7        1.0  0.8393289478729242  0.39674386112732396  0.7963080230553601  1.0000
  O   O8        1.0  0.8393480745912858  0.41044335553262146  0.41870345978337875  1.0000
  O   O9        1.0  0.8393879014018422  0.2147740520933028  0.614449680093692  1.0000
