data_image0
_chemical_formula_structural       NC11NC3H8C12OCH12C12OCH12Zn2C4O8
_chemical_formula_sum              "N2 C44 H32 O10 Zn2"
_cell_length_a       17.807433833752565
_cell_length_b       10.29979075500242
_cell_length_c       10.299794127170987
_cell_angle_alpha    85.57270427699777
_cell_angle_beta     88.5176554422573
_cell_angle_gamma    90.66694566819858

_space_group_name_H-M_alt    "P 1"
_space_group_IT_number       1

loop_
  _space_group_symop_operation_xyz
  'x, y, z'

loop_
  _atom_site_type_symbol
  _atom_site_label
  _atom_site_symmetry_multiplicity
  _atom_site_fract_x
  _atom_site_fract_y
  _atom_site_fract_z
  _atom_site_occupancy
  N   N1        1.0  0.7072539310812489  0.4380320130153492  0.5346328221685193  1.0000
  C   C1        1.0  0.6564362649333181  0.4033251748320408  0.6011941523204822  1.0000
  C   C2        1.0  0.5932139626672263  0.3601527280816774  0.6839879529749313  1.0000
  C   C3        1.0  0.6049443341846888  0.2966391752658415  0.806704461671041  1.0000
  C   C4        1.0  0.5436292766960052  0.2551458162784275  0.8872143363006524  1.0000
  C   C5        1.0  0.4704295137585731  0.2768529327952105  0.8456484866946463  1.0000
  C   C6        1.0  0.4577223515472545  0.34052090040244587  0.722471793590246  1.0000
  C   C7        1.0  0.37995431532253177  0.36355730662921726  0.6781253439117758  1.0000
  C   C8        1.0  0.3611821616654806  0.3466471924249608  0.5485525051619737  1.0000
  C   C9        1.0  0.287952465923941  0.36831556840432733  0.5069425887507992  1.0000
  C   C10       1.0  0.2325518471746273  0.4072123419662774  0.5940852567759689  1.0000
  C   C11       1.0  0.1571854023193242  0.42953877652404104  0.5511140704334971  1.0000
  N   N2        1.0  0.0965961541875554  0.44748757121835125  0.5165683640507877  1.0000
  C   C12       1.0  0.2506324347246389  0.42433287500211625  0.7231269740000656  1.0000
  C   C13       1.0  0.32380935827841717  0.40262964440980675  0.7649923093568207  1.0000
  C   C14       1.0  0.5198947206585082  0.38200969932699413  0.6419783342740446  1.0000
  H   H1        1.0  0.6614110285309627  0.2792346809574169  0.8400694878712291  1.0000
  H   H2        1.0  0.5528299404875362  0.20572188516995027  0.9819490183250792  1.0000
  H   H3        1.0  0.4237922243434581  0.2423159028417905  0.9090866765443864  1.0000
  H   H4        1.0  0.40287058362665273  0.31498553188746836  0.47984146800621863  1.0000
  H   H5        1.0  0.2745199549011349  0.35440561623927813  0.4069139316304784  1.0000
  H   H6        1.0  0.2082274790222288  0.45477137163040227  0.7913233481973936  1.0000
  H   H7        1.0  0.3367131755855091  0.41808493438346783  0.8648381200694253  1.0000
  H   H8        1.0  0.5113922782350345  0.43279603619844287  0.5474778675401812  1.0000
  C   C15       1.0  0.9019961428869221  0.06139377169217508  0.5256362195031454  1.0000
  C   C16       1.0  0.8802407250347967  0.04973627102566258  0.6580778373986294  1.0000
  C   C17       1.0  0.869157474600349  0.926691584375361  0.7251566285853086  1.0000
  C   C18       1.0  0.8801057602699544  0.8144506815690902  0.6580183172659275  1.0000
  C   C19       1.0  0.9018611448348723  0.8241159663966673  0.5255757684416194  1.0000
  C   C20       1.0  0.9126862669585961  0.9480259486505016  0.460126898485405  1.0000
  C   C21       1.0  0.8461460517479685  0.9154128240172918  0.8652734671924323  1.0000
  C   C22       1.0  0.791327612893587  0.8232279424018057  0.9128804568193014  1.0000
  C   C23       1.0  0.7697375338989815  0.8128879509322188  0.044615412422780776  1.0000
  C   C24       1.0  0.8024797771294605  0.8940529605421058  0.13044053769871955  1.0000
  C   C25       1.0  0.8574980924853833  0.9868523070916064  0.08469589675810496  1.0000
  C   C26       1.0  0.8788553085220648  0.9968253076987937  0.9524450691595077  1.0000
  O   O1        1.0  0.8922184200143405  0.07041900082178354  0.16694965725565514  1.0000
  C   C27       1.0  0.8761031260079065  0.07104264354030687  0.3030274462960054  1.0000
  H   H9        1.0  0.9103187653270279  0.39328806146540063  0.47519004366081585  1.0000
  H   H10       1.0  0.8708687624960004  0.13654893007257463  0.7089391900467898  1.0000
  H   H11       1.0  0.8726130499180436  0.7193827747012849  0.7097315486614142  1.0000
  H   H12       1.0  0.9294702308463706  0.9562508354561218  0.35795375908739824  1.0000
  H   H13       1.0  0.9101135593544281  0.5003465050081666  0.4750952166497471  1.0000
  H   H14       1.0  0.7644613161886213  0.7603281871568923  0.8479204049219589  1.0000
  H   H15       1.0  0.7273061240388129  0.7418967083096606  0.08026142330188324  1.0000
  H   H16       1.0  0.7846694205260496  0.8838986861621223  0.23192900169464614  1.0000
  H   H17       1.0  0.9218927766222501  0.0674054761757934  0.9182837289503007  1.0000
  H   H18       1.0  0.8890771824826816  0.9748426438157808  0.3530458091147126  1.0000
  H   H19       1.0  0.9115515439008176  0.14655419666625957  0.34359516298594794  1.0000
  H   H20       1.0  0.816129371684818  0.09450076414886643  0.3202449222850652  1.0000
  C   C28       1.0  0.9019539920137394  0.44264202331918034  0.14425341882941867  1.0000
  C   C29       1.0  0.8283465751885714  0.3917319805170165  0.15047955996544893  1.0000
  C   C30       1.0  0.7910284377098191  0.3660375455313387  0.036488477472679026  1.0000
  C   C31       1.0  0.8282954606049361  0.39195720473777906  0.9151770201219795  1.0000
  C   C32       1.0  0.9019032979850821  0.44286776517893744  0.9069585975939574  1.0000
  C   C33       1.0  0.9383211538833651  0.4679222349253749  0.02203559770670016  1.0000
  C   C34       1.0  0.7131581124569166  0.3121705613793908  0.04412997975479693  1.0000
  C   C35       1.0  0.659367933180544  0.35953104585717033  0.9554731365634703  1.0000
  C   C36       1.0  0.5861819367116565  0.3088238811847601  0.9629243265107035  1.0000
  C   C37       1.0  0.5657222306204935  0.2103936061399696  0.05856886767974867  1.0000
  C   C38       1.0  0.6187715034255633  0.16161053861683072  0.14812279219230517  1.0000
  C   C39       1.0  0.6920595085057086  0.2129597233492  0.14021543766921396  1.0000
  O   O2        1.0  0.6011058338818168  0.06260915486626639  0.24577270899800086  1.0000
  C   C40       1.0  0.5291048094486235  0.001587295648618925  0.26515576658442397  1.0000
  H   H21       1.0  0.9300115774872217  0.46198286529741606  0.4693380913837497  1.0000
  H   H22       1.0  0.7994876426269921  0.37360237307845834  0.244097090445337  1.0000
  H   H23       1.0  0.8001373266740488  0.3706790194152334  0.8271537601698675  1.0000
  H   H24       1.0  0.9951064982765643  0.5071963603001794  0.016463985573636597  1.0000
  H   H25       1.0  0.9299359036528889  0.46232779472254437  0.5763703492574486  1.0000
  H   H26       1.0  0.673641656723225  0.43694339374284197  0.8814854288065517  1.0000
  H   H27       1.0  0.545100354267946  0.3462213637289706  0.8944891779203057  1.0000
  H   H28       1.0  0.5086550686713955  0.1729736596412399  0.062048246897685067  1.0000
  H   H29       1.0  0.7328102408271662  0.1738041954124192  0.20849232360552516  1.0000
  H   H30       1.0  0.5136290450683543  0.9527559655210446  0.17701750773251423  1.0000
  H   H31       1.0  0.5310484254468246  0.9271590664439598  0.348743988638029  1.0000
  H   H32       1.0  0.4863033248747911  0.07480576510957793  0.2874122193002331  1.0000
  Zn  Zn1       1.0  0.819609686330995  0.44075721046316296  0.5294272942433313  1.0000
  Zn  Zn2       1.0  0.9842403853532177  0.4447517573897082  0.5217844783776457  1.0000
  C   C41       1.0  0.9019120985270754  0.4376513967169633  0.7627914903560167  1.0000
  C   C42       1.0  0.9019397706207007  0.4478592534014605  0.2884203261368785  1.0000
  C   C43       1.0  0.9018831208994319  0.679943634225894  0.520412462968975  1.0000
  C   C44       1.0  0.9019686923429999  0.2055654542588834  0.5307994254911128  1.0000
  O   O3        1.0  0.9644114910930887  0.45112044751827796  0.33390364886875634  1.0000
  O   O4        1.0  0.9643912695157751  0.4374209914639562  0.7115070734723514  1.0000
  O   O5        1.0  0.9643670274121856  0.633075017420414  0.5157843329780085  1.0000
  O   O6        1.0  0.9644356770242031  0.2554664294600888  0.5296262945998367  1.0000
  O   O7        1.0  0.8394143384796319  0.6300425370310512  0.5215854806224276  1.0000
  O   O8        1.0  0.839438580308188  0.4343900713465083  0.7173081517508646  1.0000
  O   O9        1.0  0.8394588020473062  0.4480894816843377  0.33970316581464766  1.0000
  O   O10       1.0  0.8394829879705181  0.2524354543661489  0.5354259089102773  1.0000
