data_image0
_chemical_formula_structural       NC10NC5H10C12NH11C12NH11Zn2C4O8
_chemical_formula_sum              "N4 C43 H32 Zn2 O8"
_cell_length_a       19.4436361288709
_cell_length_b       10.299770795358612
_cell_length_c       10.299774167527174
_cell_angle_alpha    85.57276865105108
_cell_angle_beta     89.69810155224394
_cell_angle_gamma    89.43566516156574

_space_group_name_H-M_alt    "P 1"
_space_group_IT_number       1

loop_
  _space_group_symop_operation_xyz
  'x, y, z'

loop_
  _atom_site_type_symbol
  _atom_site_label
  _atom_site_symmetry_multiplicity
  _atom_site_fract_x
  _atom_site_fract_y
  _atom_site_fract_z
  _atom_site_occupancy
  N   N1        1.0  0.6479616742037502  0.4088805965940858  0.5620662950040411  1.0000
  C   C1        1.0  0.5891273005445283  0.41878405406044594  0.576449058031743  1.0000
  C   C2        1.0  0.5157999641883527  0.4311349992217788  0.5944398617082896  1.0000
  C   C3        1.0  0.4736112555491318  0.39912755069532313  0.49977204279096954  1.0000
  C   C4        1.0  0.3977082330574259  0.4095663565214689  0.5050992534096101  1.0000
  C   C5        1.0  0.3579646078565979  0.3848309037275659  0.6121687655587504  1.0000
  C   C6        1.0  0.281844734629513  0.38874600830680084  0.5992096829042177  1.0000
  C   C7        1.0  0.24129061329098012  0.4464175283742484  0.6929729007440084  1.0000
  C   C8        1.0  0.1696278362669273  0.4500540457295492  0.6824292133017407  1.0000
  C   C9        1.0  0.1375243607368899  0.39562306780243395  0.5784088472125775  1.0000
  C   C10       1.0  0.06373234941428642  0.3993208101512027  0.5677098804388152  1.0000
  N   N2        1.0  0.0044085773455781  0.40229360098254197  0.559108620478471  1.0000
  C   C11       1.0  0.1773534770300281  0.33724450721782673  0.48502889204110766  1.0000
  C   C12       1.0  0.24903267556377381  0.333553737640081  0.4953208158620712  1.0000
  C   C13       1.0  0.3860903946311989  0.3443854459013935  0.7432604467250803  1.0000
  C   C14       1.0  0.44476062153456336  0.3875123158432574  0.7904983217358967  1.0000
  C   C15       1.0  0.4889839300966787  0.48536114538381847  0.7161279471301991  1.0000
  H   H1        1.0  0.4957060677192048  0.37000042958218016  0.40947077229502904  1.0000
  H   H2        1.0  0.3730138183266805  0.4320502004911402  0.41194338623610993  1.0000
  H   H3        1.0  0.2651675627161031  0.4897172304896682  0.7738151990358977  1.0000
  H   H4        1.0  0.1392898782377435  0.495376552726003  0.7553442507427433  1.0000
  H   H5        1.0  0.1530046745879963  0.29414049889794147  0.4045210507577959  1.0000
  H   H6        1.0  0.2787046574245679  0.28598794128249705  0.42310222075263004  1.0000
  H   H7        1.0  0.3551144143058373  0.2801762853751446  0.8075086439964261  1.0000
  H   H8        1.0  0.4599046753741227  0.3534565552516693  0.8884307894833887  1.0000
  H   H9        1.0  0.4588894679300342  0.5760716952528102  0.6908714971772381  1.0000
  H   H10       1.0  0.5322727905960262  0.5109540852735219  0.7792087291897911  1.0000
  C   C16       1.0  0.8261260864155515  0.02421966648304319  0.5606275626042596  1.0000
  C   C17       1.0  0.8061715396645964  0.033725779250438404  0.42938863860566956  1.0000
  C   C18       1.0  0.796123501338516  0.9214052678719543  0.3628532240684259  1.0000
  C   C19       1.0  0.8062974327133491  0.7984418196033637  0.42931904423942235  1.0000
  C   C20       1.0  0.8262507347691834  0.7869444381829162  0.5605585290885109  1.0000
  C   C21       1.0  0.8360536573110342  0.9003899728522241  0.6254777368910418  1.0000
  C   C22       1.0  0.7750130501656932  0.9325155830437765  0.22401005722735934  1.0000
  C   C23       1.0  0.7249344654866459  0.024605875322721182  0.1792404559926295  1.0000
  C   C24       1.0  0.705094799974383  0.034933133372742065  0.04855996182986666  1.0000
  C   C25       1.0  0.7349582512021159  0.9535958816071327  0.9605721390080411  1.0000
  C   C26       1.0  0.7848718459394952  0.8617064630056743  0.004452590464373296  1.0000
  C   C27       1.0  0.8047666101270912  0.8511221523371919  0.13510265577598535  1.0000
  N   N3        1.0  0.7146355393076753  0.964291260171489  0.8269112816053905  1.0000
  H   H11       1.0  0.8337004405820327  0.34805020122749086  0.6106530513541808  1.0000
  H   H12       1.0  0.7993085736500712  0.12874309898454595  0.37809565049538163  1.0000
  H   H13       1.0  0.7977079379573903  0.7115570690801577  0.3789804430068726  1.0000
  H   H14       1.0  0.8514471634397357  0.8922884109860205  0.726722759117413  1.0000
  H   H15       1.0  0.8338837715399331  0.45511040524186913  0.6105519109202797  1.0000
  H   H16       1.0  0.7004640868107228  0.08748826380078545  0.24564375384995807  1.0000
  H   H17       1.0  0.6663199582580059  0.1061213486857977  0.015971606194811194  1.0000
  H   H18       1.0  0.8084916721187426  0.7984940387883356  0.9373671079658812  1.0000
  H   H19       1.0  0.8440688081223053  0.7804340481368855  0.16624715776713295  1.0000
  H   H20       1.0  0.7366044916660417  0.9040708959538843  0.7605923483447743  1.0000
  H   H21       1.0  0.6774706066087209  0.03250941071166902  0.7932864458133535  1.0000
  C   C28       1.0  0.826211795469402  0.40546709527554037  0.1792407950022301  1.0000
  C   C29       1.0  0.7588434125055575  0.35741018731523666  0.1826249430482203  1.0000
  C   C30       1.0  0.724683257024769  0.33317563392849725  0.06719208770133966  1.0000
  C   C31       1.0  0.7587961987157807  0.3576423607514698  0.9473206031614585  1.0000
  C   C32       1.0  0.82616501881941  0.40569703413738134  0.9419453073248052  1.0000
  C   C33       1.0  0.8594954596563635  0.4293408050958436  0.05842775452203286  1.0000
  C   C34       1.0  0.6534114123995769  0.2823347772961704  0.07182566879643337  1.0000
  C   C35       1.0  0.6340656798080846  0.184238457083455  0.1672937019114651  1.0000
  C   C36       1.0  0.5669814342473579  0.1364426257285647  0.17152114548397068  1.0000
  C   C37       1.0  0.5181817222947518  0.18587007985914505  0.08061713863915321  1.0000
  C   C38       1.0  0.5370735267649117  0.28358462796394934  0.9853122714543727  1.0000
  C   C39       1.0  0.6041371362971452  0.33148210246843446  0.9808187099857566  1.0000
  N   N4        1.0  0.44957009823075095  0.13692642283411338  0.08507756063235017  1.0000
  H   H22       1.0  0.8518939221610952  0.4237250953694083  0.5054087881063438  1.0000
  H   H23       1.0  0.7324347141250512  0.34039507596402907  0.2751313130960358  1.0000
  H   H24       1.0  0.7330346865297575  0.337442884417706  0.8582057869575728  1.0000
  H   H25       1.0  0.9114672145968823  0.4664136074660059  0.05504905183346276  1.0000
  H   H26       1.0  0.8518252784956707  0.4240633136712637  0.6124395500794688  1.0000
  H   H27       1.0  0.6710565718195325  0.14328671560497197  0.23764017574180096  1.0000
  H   H28       1.0  0.5530945473896037  0.06065263908039875  0.24546149569755404  1.0000
  H   H29       1.0  0.4997952380517908  0.3228763709270901  0.9146982775555577  1.0000
  H   H30       1.0  0.6172201197992574  0.40815343928288517  0.9072169708273083  1.0000
  H   H31       1.0  0.4128337555841814  0.17316170016773436  0.017714673008461856  1.0000
  H   H32       1.0  0.435002685899759  0.06409428134695871  0.15577616017711438  1.0000
  Zn  Zn1       1.0  0.7508245510126165  0.4069762628564224  0.5612202861506883  1.0000
  Zn  Zn2       1.0  0.9015456896633683  0.404187330299546  0.5599653110050298  1.0000
  C   C40       1.0  0.8261714893277741  0.4004799145017621  0.7977783335788045  1.0000
  C   C41       1.0  0.8262003974783444  0.4106852868505291  0.3234073771853072  1.0000
  C   C42       1.0  0.8262239547225698  0.6427717193031572  0.5553967001480555  1.0000
  C   C43       1.0  0.8261478803937116  0.1683919227254005  0.565789080421023  1.0000
  O   O1        1.0  0.8833944579106101  0.4113725085226623  0.3713147431289636  1.0000
  O   O2        1.0  0.8833712855444789  0.39767497771924076  0.74891809679663  1.0000
  O   O3        1.0  0.8834128808766271  0.5933286889690297  0.5531932192091553  1.0000
  O   O4        1.0  0.8833528111550356  0.21571880748537997  0.5670395237734169  1.0000
  O   O5        1.0  0.7690173780872225  0.5954447866237258  0.5541460738037314  1.0000
  O   O6        1.0  0.7689757830111842  0.3997926356508077  0.7498708820076694  1.0000
  O   O7        1.0  0.7689989555113957  0.41349012072696034  0.372265967011157  1.0000
  O   O8        1.0  0.7689573087455205  0.21783641043030877  0.5679908450200626  1.0000
