data_image0
_chemical_formula_structural       NC10NC3NH7C12NCOCH13C13NH13Zn2C4O8
_chemical_formula_sum              "N5 C44 H33 O9 Zn2"
_cell_length_a       19.210446455230148
_cell_length_b       10.299155265289647
_cell_length_c       10.299780419254978
_cell_angle_alpha    85.55647119552991
_cell_angle_beta     89.97732542180437
_cell_angle_gamma    89.9251083167036

_space_group_name_H-M_alt    "P 1"
_space_group_IT_number       1

loop_
  _space_group_symop_operation_xyz
  'x, y, z'

loop_
  _atom_site_type_symbol
  _atom_site_label
  _atom_site_symmetry_multiplicity
  _atom_site_fract_x
  _atom_site_fract_y
  _atom_site_fract_z
  _atom_site_occupancy
  N   N1        1.0  0.6553535464414948  0.4199855754613684  0.5670269098408345  1.0000
  C   C1        1.0  0.5951243392218613  0.42219326695835524  0.5672574983230385  1.0000
  C   C2        1.0  0.520319084030505  0.42493040010027405  0.5675431681624723  1.0000
  C   C3        1.0  0.4846731888987999  0.5411707553718017  0.5826253533414956  1.0000
  C   C4        1.0  0.4120076710292775  0.5413222910974125  0.5825727205203353  1.0000
  C   C5        1.0  0.3751521162776231  0.42563942588618886  0.5676294710181569  1.0000
  C   C6        1.0  0.2978303949924328  0.42428284024202667  0.5674792233497254  1.0000
  C   C7        1.0  0.2600528131846382  0.5278470046227794  0.5040944156802323  1.0000
  C   C8        1.0  0.1872748747120131  0.5264446693344726  0.5039856953448696  1.0000
  C   C9        1.0  0.1512730378189489  0.42173568457174104  0.567210723963997  1.0000
  C   C10       1.0  0.076343908629065  0.4204334988928242  0.5670742254390451  1.0000
  N   N2        1.0  0.0161063705756076  0.419386497402483  0.5669645155103629  1.0000
  C   C11       1.0  0.1883269283652841  0.31829721519024345  0.630570492961475  1.0000
  C   C12       1.0  0.261106789909685  0.3194252761807088  0.63072952525585  1.0000
  C   C13       1.0  0.4134073169731227  0.31121949080590827  0.5528349845383653  1.0000
  N   N3        1.0  0.48417653932506927  0.3136646424467777  0.5529999311815805  1.0000
  H   H1        1.0  0.5127470115630407  0.6306120065719318  0.5946509800143747  1.0000
  H   H2        1.0  0.3847113651135991  0.6313457151353685  0.5959928645486239  1.0000
  H   H3        1.0  0.2867615919640659  0.6090951555676587  0.4530857848550165  1.0000
  H   H4        1.0  0.1591100674733262  0.6068653271687934  0.45430760580122764  1.0000
  H   H5        1.0  0.160978693428847  0.2369130841954845  0.6801493421549554  1.0000
  H   H6        1.0  0.2886265455227075  0.23912409287095215  0.6818452483651551  1.0000
  H   H7        1.0  0.387169684060177  0.22033308601641743  0.5393688104304275  1.0000
  C   C14       1.0  0.8358110159927652  0.03828845703882133  0.567114400637508  1.0000
  C   C15       1.0  0.8239370091216922  0.04799093914522601  0.43219717376342937  1.0000
  C   C16       1.0  0.8178492356676724  0.9357727155686947  0.3636735905185775  1.0000
  C   C17       1.0  0.8237706078598225  0.8127314063648188  0.4318894312006205  1.0000
  C   C18       1.0  0.8356555744863406  0.8010736827242885  0.566888243173578  1.0000
  C   C19       1.0  0.8416057071387703  0.9143694550142388  0.6336696182408033  1.0000
  C   C20       1.0  0.805288829465795  0.9470104379710672  0.22094745550536787  1.0000
  C   C21       1.0  0.8406010535556121  0.04105225077784369  0.13952731526735684  1.0000
  C   C22       1.0  0.8287866114763607  0.05149680114262489  0.005212510670776549  1.0000
  C   C23       1.0  0.781856562026446  0.9672252441420075  0.9494725065725187  1.0000
  C   C24       1.0  0.7456940692418549  0.875001120054061  0.0308246373958041  1.0000
  C   C25       1.0  0.757533868869701  0.8643005033649922  0.16510210377548185  1.0000
  N   N4        1.0  0.7678024186766952  0.9774719042114829  0.8119199029323658  1.0000
  C   C26       1.0  0.8186414281029007  0.014311376135873966  0.7136976817045348  1.0000
  O   O1        1.0  0.8824969738337688  0.016743235222554498  0.7415438342681875  1.0000
  C   C27       1.0  0.7964518289625263  0.040777162359244334  0.5751676952687417  1.0000
  H   H8        1.0  0.8403998743760059  0.36203261767628514  0.6190036393242633  1.0000
  H   H9        1.0  0.8184360818560955  0.1430385074791778  0.3803907554628023  1.0000
  H   H10       1.0  0.820032642067698  0.7259317634061723  0.3792639327568976  1.0000
  H   H11       1.0  0.8507667201891043  0.9061708587552599  0.7377336489342674  1.0000
  H   H12       1.0  0.8585046627258107  0.5717863130406896  0.8215605543746212  1.0000
  H   H13       1.0  0.8777664123921601  0.10604405738808764  0.17961145182727267  1.0000
  H   H14       1.0  0.8554984408796479  0.12690041748508585  0.9456300650356928  1.0000
  H   H15       1.0  0.7084620154090846  0.81071336298581  0.989873514396507  1.0000
  H   H16       1.0  0.7285851892611992  0.7925170566932606  0.22551784723603108  1.0000
  H   H17       1.0  0.7187781031195163  0.948680736729376  0.7808562989397743  1.0000
  H   H18       1.0  0.7462045665852367  0.09430569626173502  0.5707229407461054  1.0000
  H   H19       1.0  0.7900161216968776  0.9471723994900374  0.5299467197961496  1.0000
  H   H20       1.0  0.8360859496332727  0.1007954950954999  0.519767976663958  1.0000
  C   C28       1.0  0.8357807003523277  0.41959609326395264  0.18564719250442585  1.0000
  C   C29       1.0  0.886158719578852  0.5185489986702387  0.17694754558280446  1.0000
  C   C30       1.0  0.9116319687503288  0.5687846008111777  0.05539542651225471  1.0000
  C   C31       1.0  0.8860630808081479  0.5187214030121012  0.9416473351861612  1.0000
  C   C32       1.0  0.8356858890492588  0.41976597669784255  0.9483554293593084  1.0000
  C   C33       1.0  0.8108248818333328  0.370760873624729  0.07080949958614458  1.0000
  C   C34       1.0  0.9649299349879119  0.6734656987276844  0.04728352394900126  1.0000
  C   C35       1.0  0.9602030240015911  0.778059026453571  0.951427034503932  1.0000
  C   C36       1.0  0.010390867430457806  0.8764996674192602  0.943877623911034  1.0000
  C   C37       1.0  0.0658795575574942  0.8727041540862854  0.0325435971122503  1.0000
  C   C38       1.0  0.07127382644393321  0.7678308599431616  0.12734328130034633  1.0000
  C   C39       1.0  0.02110038080125487  0.6693654942427465  0.13506546739775604  1.0000
  C   C40       1.0  0.12082658674985503  0.9768384687436353  0.022047752003026888  1.0000
  N   N5        1.0  0.174195532008256  0.9440954808231685  0.9291703244484717  1.0000
  H   H21       1.0  0.8166126154023678  0.38184348976427085  0.5164189930402379  1.0000
  H   H22       1.0  0.9050197263677974  0.5580264907797932  0.2648024491215979  1.0000
  H   H23       1.0  0.9062347973210305  0.5558456736296555  0.8478253312979005  1.0000
  H   H24       1.0  0.7719607660680402  0.2944221659355324  0.0767523172504263  1.0000
  H   H25       1.0  0.8164766568573777  0.38208244150971304  0.6234562067109217  1.0000
  H   H26       1.0  0.9172714840176648  0.7844772037325562  0.8831308735386627  1.0000
  H   H27       1.0  0.005891342177900771  0.9559131625222961  0.8690155969861579  1.0000
  H   H28       1.0  0.11446371358028817  0.7620645616144794  0.19511267978841107  1.0000
  H   H29       1.0  0.026813329135060737  0.5889327503309192  0.20846169850514262  1.0000
  H   H30       1.0  0.09675498557912676  0.07191203207718022  0.9887432034572234  1.0000
  H   H31       1.0  0.14482967778516787  0.9881097938381092  0.11889693087201136  1.0000
  H   H32       1.0  0.20930641339374834  0.021734439928681404  0.9192017012110236  1.0000
  H   H33       1.0  0.2021384289478898  0.8637397243871161  0.969961773377324  1.0000
  Zn  Zn1       1.0  0.7594590177307936  0.41980923183106067  0.567016403988549  1.0000
  Zn  Zn2       1.0  0.9120008841809507  0.41955226005901625  0.5669856598653791  1.0000
  C   C41       1.0  0.8357032926150513  0.41455982894737553  0.8041888055611597  1.0000
  C   C42       1.0  0.8357582746992863  0.42480329890775503  0.3298133849327196  1.0000
  C   C43       1.0  0.8356819974347273  0.6568898634233884  0.5617560339776508  1.0000
  C   C44       1.0  0.8357795181371579  0.18247170411496438  0.5722462262252823  1.0000
  O   O2        1.0  0.8936395929393177  0.42644769907456626  0.3781852105314074  1.0000
  O   O3        1.0  0.8935977216783382  0.4127194132720595  0.7557932723432865  1.0000
  O   O4        1.0  0.8935797450137167  0.6084039824084482  0.5600270937944369  1.0000
  O   O5        1.0  0.8936575175619463  0.23076313929509285  0.5739512917170992  1.0000
  O   O6        1.0  0.7778023322947458  0.6085983526840888  0.5600507721404888  1.0000
  O   O7        1.0  0.7778203086467679  0.4129153439535822  0.7558168809839463  1.0000
  O   O8        1.0  0.7778621801574032  0.42664358414880144  0.37820725784529197  1.0000
  O   O9        1.0  0.7778801047669724  0.23095901510151728  0.5739734363978022  1.0000
