data_image0
_chemical_formula_structural       NC10NC5H10C12SCH12C13OH12Zn2C4O8
_chemical_formula_sum              "N2 C45 H34 S1 O9 Zn2"
_cell_length_a       19.4436361288709
_cell_length_b       10.299776766347529
_cell_length_c       10.299153481560891
_cell_angle_alpha    85.58387196387294
_cell_angle_beta     89.72153825952512
_cell_angle_gamma    89.39962546058797

_space_group_name_H-M_alt    "P 1"
_space_group_IT_number       1

loop_
  _space_group_symop_operation_xyz
  'x, y, z'

loop_
  _atom_site_type_symbol
  _atom_site_label
  _atom_site_symmetry_multiplicity
  _atom_site_fract_x
  _atom_site_fract_y
  _atom_site_fract_z
  _atom_site_occupancy
  N   N1        1.0  0.6471809249438715  0.4087584222411109  0.5621477854059951  1.0000
  C   C1        1.0  0.5883463590852734  0.4186630365679085  0.5765323912517817  1.0000
  C   C2        1.0  0.5150187946129284  0.43101542889830613  0.594525495948169  1.0000
  C   C3        1.0  0.4728202877269904  0.39900027576565344  0.4998492224973585  1.0000
  C   C4        1.0  0.3969149363040469  0.4094394916898998  0.5051778656406023  1.0000
  C   C5        1.0  0.3572027125735743  0.38471291832992094  0.6122501902104225  1.0000
  C   C6        1.0  0.28107873148724655  0.38862694569091305  0.599290869202221  1.0000
  C   C7        1.0  0.24052565486819114  0.4463060262064207  0.6930653373909081  1.0000
  C   C8        1.0  0.1688593851986849  0.4499416658968596  0.682521505991522  1.0000
  C   C9        1.0  0.1367515663077423  0.3955022745156498  0.578489716594482  1.0000
  C   C10       1.0  0.0629560083453366  0.3991991262531527  0.5677906045929999  1.0000
  N   N2        1.0  0.003629384996312  0.40217120109194116  0.5591892278848611  1.0000
  C   C11       1.0  0.1765799565288487  0.33711618694742085  0.48509845263234164  1.0000
  C   C12       1.0  0.2482626113563834  0.33342627446073525  0.4953905013454185  1.0000
  C   C13       1.0  0.3853703341256212  0.3442783597282666  0.7433441893652251  1.0000
  C   C14       1.0  0.44403639493215297  0.38740900040039694  0.7905892910047607  1.0000
  C   C15       1.0  0.4882109927357801  0.4852514431949446  0.7162258981813772  1.0000
  H   H1        1.0  0.49490528542259943  0.369865801607544  0.4095400429477327  1.0000
  H   H2        1.0  0.3721928796738321  0.43191560748999835  0.4120196581606461  1.0000
  H   H3        1.0  0.2644056473424674  0.48961226436149907  0.7739166240745254  1.0000
  H   H4        1.0  0.1385220814683053  0.4952700509934953  0.7554453448010854  1.0000
  H   H5        1.0  0.1522281181063887  0.2940056695835087  0.40458166197754397  1.0000
  H   H6        1.0  0.2779348375650499  0.28585466341593424  0.42316289250089434  1.0000
  H   H7        1.0  0.3544296582458578  0.28007466148398397  0.807588606106165  1.0000
  H   H8        1.0  0.4592129823438665  0.3533613925420942  0.8885230649747802  1.0000
  H   H9        1.0  0.45808082075911766  0.5759596679790986  0.6909781862194406  1.0000
  H   H10       1.0  0.5315049599272997  0.5108495053733808  0.7793127862566609  1.0000
  C   C16       1.0  0.8254732946328481  0.024098418489009177  0.5606663707666781  1.0000
  C   C17       1.0  0.8296274292856024  0.012511879442604235  0.6971462815964187  1.0000
  C   C18       1.0  0.831666143560427  0.8895034926517952  0.7663076469608079  1.0000
  C   C19       1.0  0.829495916240712  0.777226539221239  0.6971625635347505  1.0000
  C   C20       1.0  0.8253436183965244  0.7868210965270842  0.5606818880747422  1.0000
  C   C21       1.0  0.8233551641868115  0.9106957531426555  0.49319777558712574  1.0000
  C   C22       1.0  0.8360531696438331  0.8783102878854788  0.9106880563776978  1.0000
  C   C23       1.0  0.7967009933478794  0.7856052949283514  0.9850576363581134  1.0000
  C   C24       1.0  0.8008503542492179  0.7753052522114876  0.1209329955653704  1.0000
  C   C25       1.0  0.8441806858987125  0.8574354861497014  0.18424687465531098  1.0000
  C   C26       1.0  0.8836972084603452  0.949564178169011  0.11124900042130026  1.0000
  C   C27       1.0  0.8796486990097429  0.9602122419347557  0.9753623891094905  1.0000
  S   S1        1.0  0.8495807324727085  0.8437571749496499  0.3585930248979078  1.0000
  C   C28       1.0  0.7804696769881148  0.9611036164024837  0.378695429786875  1.0000
  H   H11       1.0  0.8239174395711959  0.3559663977322718  0.5086611048183338  1.0000
  H   H12       1.0  0.8303386416749523  0.09934998720603816  0.7500989021509297  1.0000
  H   H13       1.0  0.8320004466731139  0.6821866238846868  0.7499041625286176  1.0000
  H   H14       1.0  0.820150896187393  0.9188657783847983  0.3879093235833868  1.0000
  H   H15       1.0  0.8237270671732624  0.4630239250662904  0.5086817916832795  1.0000
  H   H16       1.0  0.7620705397941073  0.7222632461650479  0.9382307686548672  1.0000
  H   H17       1.0  0.7701084854731557  0.7038323165715015  0.17690985105317636  1.0000
  H   H18       1.0  0.9175958953552207  0.012976231146668127  0.1596708820461772  1.0000
  H   H19       1.0  0.9112588600713648  0.03130071914141208  0.9207913746634864  1.0000
  H   H20       1.0  0.7942307766711448  0.05716038959241132  0.32970337813127437  1.0000
  H   H21       1.0  0.7725162463309803  0.9719701086110877  0.48404110204125106  1.0000
  H   H22       1.0  0.7320655897489083  0.9264495749032609  0.3369749409562254  1.0000
  C   C29       1.0  0.8253494004866724  0.40531342211981336  0.1793020551839284  1.0000
  C   C30       1.0  0.7542443174653269  0.3822475213703749  0.18056324628415799  1.0000
  C   C31       1.0  0.7183172709879542  0.37071308457058505  0.06403410694837341  1.0000
  C   C32       1.0  0.7544065357896892  0.38256181876166573  0.9452539382697762  1.0000
  C   C33       1.0  0.8254675048312885  0.4056061008018388  0.9420461655147205  1.0000
  C   C34       1.0  0.8605240089483892  0.4168437393338993  0.05960713559025832  1.0000
  C   C35       1.0  0.6431416603066892  0.34633983035303006  0.06634056998829485  1.0000
  C   C36       1.0  0.5996309887396597  0.4123799067270537  0.9740353122542489  1.0000
  C   C37       1.0  0.5288862938454563  0.3894871782392928  0.9762837858737461  1.0000
  C   C38       1.0  0.5004616862889836  0.2993013008041332  0.06997800155048206  1.0000
  C   C39       1.0  0.5435107664054083  0.2343660215819725  0.16320564149398975  1.0000
  C   C40       1.0  0.6142587291692879  0.2572290426409709  0.1611352898509293  1.0000
  C   C41       1.0  0.4242461897260144  0.277423369016055  0.0745265513533242  1.0000
  O   O1        1.0  0.39333906906144167  0.36558155515977764  0.15429191168449474  1.0000
  H   H23       1.0  0.9594761564889018  0.44968269740993816  0.38415060626587816  1.0000
  H   H24       1.0  0.7265165155779572  0.374996320940272  0.2722688205085315  1.0000
  H   H25       1.0  0.72711978926855  0.3720139429652951  0.8553010900483038  1.0000
  H   H26       1.0  0.9153350879488369  0.4346221360792135  0.05784870836381928  1.0000
  H   H27       1.0  0.852790939002681  0.41455582556596005  0.613330368607333  1.0000
  H   H28       1.0  0.6201786229243827  0.4832555456908354  0.9013084473382666  1.0000
  H   H29       1.0  0.496244616411801  0.44237008830436064  0.9050748649580682  1.0000
  H   H30       1.0  0.5223285443415352  0.1657084800440094  0.23737769563753797  1.0000
  H   H31       1.0  0.6464870810116433  0.20415327301122788  0.23287085104049599  1.0000
  H   H32       1.0  0.41334738272613764  0.17583857427409466  0.1134339752933049  1.0000
  H   H33       1.0  0.4024736970262017  0.29119084902827774  0.9745766539559635  1.0000
  H   H34       1.0  0.34334405908800314  0.34715209864744767  0.15400312108329195  1.0000
  Zn  Zn1       1.0  0.7500442538247658  0.40685402404586113  0.5613015217444914  1.0000
  Zn  Zn2       1.0  0.9007660510880673  0.4040649957744791  0.5600461725988719  1.0000
  C   C42       1.0  0.8254445128286629  0.40037716301195503  0.7978711167444581  1.0000
  C   C43       1.0  0.8253674377026035  0.41054346500969063  0.32347669139132473  1.0000
  C   C44       1.0  0.8253637701308998  0.6426483607472366  0.555503752039594  1.0000
  C   C45       1.0  0.8254481292455951  0.16827070796065557  0.5658441257320548  1.0000
  O   O2        1.0  0.8825716286886538  0.41123462778363784  0.3713866177805343  1.0000
  O   O3        1.0  0.8826346786091831  0.39756821245442464  0.7490080355314996  1.0000
  O   O4        1.0  0.8825687070104388  0.5932052833493411  0.5532946801926113  1.0000
  O   O5        1.0  0.882637548839603  0.2155975670932222  0.5670998761725052  1.0000
  O   O6        1.0  0.7681727046392766  0.5953214536802875  0.554247818592416  1.0000
  O   O7        1.0  0.7682386759588391  0.3996859430522939  0.7499611047169956  1.0000
  O   O8        1.0  0.768175625850009  0.4133523125258587  0.37233812555115464  1.0000
  O   O9        1.0  0.7682415460147999  0.217715242584112  0.5680514813116007  1.0000
