data_image0
_chemical_formula_structural       NC10NC3NH7C16H10C12NH11Zn2C4O8
_chemical_formula_sum              "N4 C45 H28 Zn2 O8"
_cell_length_a       19.210446455230148
_cell_length_b       10.29914801576943
_cell_length_c       10.299774167527174
_cell_angle_alpha    85.55390253719857
_cell_angle_beta     89.98397518987284
_cell_angle_gamma    89.9607823085547

_space_group_name_H-M_alt    "P 1"
_space_group_IT_number       1

loop_
  _space_group_symop_operation_xyz
  'x, y, z'

loop_
  _atom_site_type_symbol
  _atom_site_label
  _atom_site_symmetry_multiplicity
  _atom_site_fract_x
  _atom_site_fract_y
  _atom_site_fract_z
  _atom_site_occupancy
  N   N1        1.0  0.6557384372693077  0.4198879500017947  0.566860245406837  1.0000
  C   C1        1.0  0.5955099813642011  0.42209568060131164  0.5670905613630839  1.0000
  C   C2        1.0  0.5207056576517257  0.4248328622063078  0.5673758933214281  1.0000
  C   C3        1.0  0.4850995040020313  0.5410755046809421  0.5824437133020319  1.0000
  C   C4        1.0  0.4124340334445114  0.5412270377750643  0.5823910621480879  1.0000
  C   C5        1.0  0.3755389319539661  0.425541901501326  0.567462108585443  1.0000
  C   C6        1.0  0.2982167484677479  0.42418529116512005  0.5673120284258368  1.0000
  C   C7        1.0  0.260469796021879  0.5277455286018944  0.5039148410801984  1.0000
  C   C8        1.0  0.1876913826590158  0.5263431714065563  0.50380629364863  1.0000
  C   C9        1.0  0.151658524301698  0.4216380901891461  0.5670438434842198  1.0000
  C   C10       1.0  0.0767289519257779  0.4203358814080773  0.5669075057087545  1.0000
  N   N2        1.0  0.0164910575381609  0.41928886134588983  0.5667979250279009  1.0000
  C   C11       1.0  0.1886818258882735  0.3182035470145059  0.6304159768497248  1.0000
  C   C12       1.0  0.2614620738939299  0.31933163118471986  0.6305748696671529  1.0000
  C   C13       1.0  0.4137550167551492  0.3111197190359942  0.5526817620523046  1.0000
  N   N3        1.0  0.4845250656077943  0.31356490696291583  0.552846407349832  1.0000
  H   H1        1.0  0.5132039319495167  0.6305185484303271  0.594458284365398  1.0000
  H   H2        1.0  0.3851686138904447  0.6312523682272282  0.5958000714273777  1.0000
  H   H3        1.0  0.2872025244082167  0.6089904992434965  0.45289650514405233  1.0000
  H   H4        1.0  0.1595503315512827  0.6067607442992167  0.4541185934150882  1.0000
  H   H5        1.0  0.1613095070213687  0.23682248400451633  0.6800045556603567  1.0000
  H   H6        1.0  0.2889582026780576  0.23903364558628892  0.6817001809454177  1.0000
  H   H7        1.0  0.3874862065370963  0.220231395971777  0.5392268289824909  1.0000
  C   C14       1.0  0.8360684940211386  0.038187173203438896  0.5669946364615248  1.0000
  C   C15       1.0  0.8201830845371403  0.047773546721797455  0.4335295313145333  1.0000
  C   C16       1.0  0.8121800080331866  0.9355041482230934  0.3656952848468902  1.0000
  C   C17       1.0  0.8202760317069943  0.8125214596287405  0.43312494353814945  1.0000
  C   C18       1.0  0.836167640684106  0.8009796583122997  0.5666747966158541  1.0000
  C   C19       1.0  0.8439672682741909  0.914328614578823  0.6327873315562682  1.0000
  C   C20       1.0  0.795375332407026  0.9466909806583179  0.22450529950456  1.0000
  C   C21       1.0  0.8283143985511053  0.8656264035056803  0.1392858317409449  1.0000
  C   C22       1.0  0.8124740984252851  0.8762802818020969  0.00640326422780646  1.0000
  C   C23       1.0  0.7635321087795042  0.9678987917664422  0.95693602019966  1.0000
  C   C24       1.0  0.7304661955742819  0.04894352162664961  0.040871627966695856  1.0000
  C   C25       1.0  0.7462568638341429  0.038530997541117884  0.17377514966958807  1.0000
  C   C26       1.0  0.7472501939397089  0.9787432188431751  0.8201209641923088  1.0000
  C   C27       1.0  0.7336142657525869  0.9878253229473504  0.7055403340519857  1.0000
  C   C28       1.0  0.7176467548852383  0.998460344285943  0.5713675845527733  1.0000
  C   C29       1.0  0.7040131152491285  0.00754107279368843  0.4568054609305454  1.0000
  H   H8        1.0  0.842142903306677  0.36197450667049424  0.6183451324736118  1.0000
  H   H9        1.0  0.8149350817528823  0.1428224888264802  0.38162274094261384  1.0000
  H   H10       1.0  0.8132312775776729  0.7256249458897737  0.3817130223730565  1.0000
  H   H11       1.0  0.8562180563045132  0.9062185115263977  0.7357332489798007  1.0000
  H   H12       1.0  0.8657311343976775  0.5718893175930113  0.8189214473236446  1.0000
  H   H13       1.0  0.8669807484108563  0.7951679466154552  0.17512719934633902  1.0000
  H   H14       1.0  0.8385209698700087  0.813295444362321  0.9422268591506469  1.0000
  H   H15       1.0  0.6923535957831856  0.11996501242910984  0.0036603349596939783  1.0000
  H   H16       1.0  0.7193985828913444  0.10112714169318737  0.23714894444756807  1.0000
  H   H17       1.0  0.6920416820617283  0.015514719411054312  0.35621025646027116  1.0000
  C   C30       1.0  0.8361417398138843  0.41946885253190414  0.18548265590587087  1.0000
  C   C31       1.0  0.7679613242808249  0.3702759837826286  0.1883358734012992  1.0000
  C   C32       1.0  0.7333894107043545  0.3454654358138569  0.07263375763965918  1.0000
  C   C33       1.0  0.7679135319813356  0.37050738398298066  0.9530310736232703  1.0000
  C   C34       1.0  0.8360943900134534  0.41969802530973643  0.9481867126232428  1.0000
  C   C35       1.0  0.8698265878463833  0.44390380035591215  0.06493188088999258  1.0000
  C   C36       1.0  0.6612584826648186  0.2934227985538178  0.0767056447968848  1.0000
  C   C37       1.0  0.6416825486630859  0.19499301738155328  0.17204905326518327  1.0000
  C   C38       1.0  0.5737896933487653  0.1460660213669669  0.1757477862922885  1.0000
  C   C39       1.0  0.524398785876852  0.1946778679511041  0.08443136855510591  1.0000
  C   C40       1.0  0.5435153223346305  0.292718217923881  0.9892475677504406  1.0000
  C   C41       1.0  0.6113872887617094  0.3417465191392408  0.9852825157649483  1.0000
  N   N4        1.0  0.4549601436898069  0.14457728670535785  0.08835106197201137  1.0000
  H   H18       1.0  0.8621334311828572  0.43815989742924  0.5118530705225217  1.0000
  H   H19       1.0  0.7412342410505348  0.352815727798367  0.28063351418256577  1.0000
  H   H20       1.0  0.741841564971131  0.3498733620412702  0.8637138327482865  1.0000
  H   H21       1.0  0.9224247903608215  0.48185294660394096  0.06196276818130664  1.0000
  H   H22       1.0  0.862063946404345  0.4384969915881518  0.6188831636450858  1.0000
  H   H23       1.0  0.6791216988749746  0.15465921837164842  0.24270929149544318  1.0000
  H   H24       1.0  0.5597377519973769  0.0700362050026011  0.2496004523090889  1.0000
  H   H25       1.0  0.5057853627673328  0.3313870471384288  0.9183180249921841  1.0000
  H   H26       1.0  0.6246255853063511  0.41864425551242457  0.9117616447795109  1.0000
  H   H27       1.0  0.4177787845041833  0.18019849223207252  0.020678033653828587  1.0000
  H   H28       1.0  0.4402193521589045  0.07149413686458783  0.15895547693243528  1.0000
  Zn  Zn1       1.0  0.7598438490380742  0.4197116038624753  0.5668497612799339  1.0000
  Zn  Zn2       1.0  0.9123856277935942  0.41945462723584037  0.566819048899643  1.0000
  C   C42       1.0  0.8361011233967387  0.4144805653910071  0.8040215143721208  1.0000
  C   C43       1.0  0.8361300193915188  0.4246873016979038  0.3296474222456989  1.0000
  C   C44       1.0  0.8361456438777225  0.6567941035414666  0.5615602888608158  1.0000
  C   C45       1.0  0.8360854466515528  0.18237220322109615  0.5721087176573996  1.0000
  O   O1        1.0  0.8940148952337231  0.4263354733969056  0.3780187819785439  1.0000
  O   O2        1.0  0.8939919279493144  0.41263637446056656  0.7556264712346399  1.0000
  O   O3        1.0  0.8940270983480895  0.6083076227103179  0.5598373157716823  1.0000
  O   O4        1.0  0.8939796727900229  0.23066423449659967  0.5738078400777249  1.0000
  O   O5        1.0  0.7782497519866236  0.6085019966908214  0.5598609701055011  1.0000
  O   O6        1.0  0.7782145817918086  0.41283230885652333  0.7556500556717125  1.0000
  O   O7        1.0  0.7782375492135358  0.42653136206391085  0.3780408051029611  1.0000
  O   O8        1.0  0.7782023267597388  0.23086011390326466  0.573829960569568  1.0000
