data_image0
_chemical_formula_structural       NC10NC3NCH9C12OCH12C13OH12Zn2C4O8
_chemical_formula_sum              "N3 C44 H33 O10 Zn2"
_cell_length_a       19.437513618241372
_cell_length_b       10.29979075500242
_cell_length_c       10.299153481560891
_cell_angle_alpha    85.5777986716743
_cell_angle_beta     90.36417058255482
_cell_angle_gamma    89.50469088654314

_space_group_name_H-M_alt    "P 1"
_space_group_IT_number       1

loop_
  _space_group_symop_operation_xyz
  'x, y, z'

loop_
  _atom_site_type_symbol
  _atom_site_label
  _atom_site_symmetry_multiplicity
  _atom_site_fract_x
  _atom_site_fract_y
  _atom_site_fract_z
  _atom_site_occupancy
  N   N1        1.0  0.6473954504739705  0.40994066889469716  0.5756114535255346  1.0000
  C   C1        1.0  0.5884587933371098  0.4269496176019565  0.5726354074387605  1.0000
  C   C2        1.0  0.5150141762394852  0.44820074936919285  0.5689413540168942  1.0000
  C   C3        1.0  0.47326578399250446  0.3470079685064589  0.5572819149248425  1.0000
  C   C4        1.0  0.397372788446429  0.35707036693048866  0.5500604813409051  1.0000
  C   C5        1.0  0.3577983973552087  0.43793890071393493  0.6158037936315286  1.0000
  C   C6        1.0  0.28161589615999844  0.42932806128861767  0.607359588373888  1.0000
  C   C7        1.0  0.2485005171360715  0.3079859121688424  0.6120030077347518  1.0000
  C   C8        1.0  0.1767654425120019  0.3016119636390022  0.6048348623893223  1.0000
  C   C9        1.0  0.1371752686759983  0.4161075963963754  0.5933855337152998  1.0000
  C   C10       1.0  0.0633257417671166  0.4093954184262867  0.5860492949242178  1.0000
  N   N2        1.0  0.0039558201579292  0.40399941754143165  0.5801514173473934  1.0000
  C   C11       1.0  0.169574250284968  0.5371394080754723  0.5894873993958094  1.0000
  C   C12       1.0  0.24129370137202544  0.5437673647529968  0.5967175669481852  1.0000
  C   C13       1.0  0.3864855589272355  0.530250611666842  0.7057248297235417  1.0000
  N   N3        1.0  0.44345657036068004  0.5934563182140713  0.6853203984407541  1.0000
  C   C14       1.0  0.4872756852245855  0.5841608502052424  0.5722114894339816  1.0000
  H   H1        1.0  0.49566222667501075  0.25194896311783244  0.5451605512274582  1.0000
  H   H2        1.0  0.37265760737995046  0.2875411081920465  0.49174164194744785  1.0000
  H   H3        1.0  0.2779672015141246  0.2180782927161471  0.623023971337874  1.0000
  H   H4        1.0  0.152187448238075  0.20738780943309898  0.6087220647540281  1.0000
  H   H5        1.0  0.139422858254321  0.6263928265828387  0.5807786109733926  1.0000
  H   H6        1.0  0.26539010599974777  0.638404309821724  0.5928149046771407  1.0000
  H   H7        1.0  0.3564963784656142  0.5506615454314854  0.7900924881528124  1.0000
  H   H8        1.0  0.530018443249519  0.6544743430331899  0.577974969684308  1.0000
  H   H9        1.0  0.45758566829916886  0.6122418847989273  0.4815648432408506  1.0000
  C   C15       1.0  0.8257407673436871  0.02560118914681908  0.5779212344051685  1.0000
  C   C16       1.0  0.8058454727342758  0.014815254535387234  0.7091074104164385  1.0000
  C   C17       1.0  0.7957097731830461  0.8922145517159293  0.7755465966009094  1.0000
  C   C18       1.0  0.8057218575371106  0.7795349967513323  0.7090400506500778  1.0000
  C   C19       1.0  0.8256171214608197  0.7883287167605246  0.5778529417231966  1.0000
  C   C20       1.0  0.8355167757105618  0.9118050613243345  0.5130287843350076  1.0000
  C   C21       1.0  0.7746658702741547  0.8818576779899057  0.9143355146123588  1.0000
  C   C22       1.0  0.72447275784793  0.7918444872576319  0.9587624635781828  1.0000
  C   C23       1.0  0.7047287300663293  0.7823694636568624  0.08925153595001856  1.0000
  C   C24       1.0  0.7347329894759029  0.8622471172209468  0.17698269292384006  1.0000
  C   C25       1.0  0.7851095530661647  0.9528670285243317  0.13442980588563658  1.0000
  C   C26       1.0  0.8046402108361508  0.961984225019639  0.0034113113070176615  1.0000
  O   O1        1.0  0.8169245952140696  0.03506784392071838  0.21870423986269516  1.0000
  C   C27       1.0  0.8021953784319704  0.036340342382308544  0.3538542689587524  1.0000
  H   H10       1.0  0.8333518396193195  0.3571620766154482  0.5279553456754997  1.0000
  H   H11       1.0  0.7972734917720016  0.10200284422286443  0.759427574459195  1.0000
  H   H12       1.0  0.7988711021345283  0.6847677841806946  0.76032125400554  1.0000
  H   H13       1.0  0.8508656844250827  0.9193575488774671  0.41182419887641175  1.0000
  H   H14       1.0  0.8331638890612675  0.4642286262821403  0.5278485987117234  1.0000
  H   H15       1.0  0.6998542631998462  0.7300015249818804  0.8922387552845275  1.0000
  H   H16       1.0  0.6658772267067967  0.7130590837311183  0.12243601298003648  1.0000
  H   H17       1.0  0.7184439502354668  0.8528057690715788  0.27744296991336415  1.0000
  H   H18       1.0  0.8440470699815337  0.0308596929843008  0.9717467795126467  1.0000
  H   H19       1.0  0.8140879683567068  0.9396315980635883  0.404628823961969  1.0000
  H   H20       1.0  0.8346682193817407  0.11045366531054612  0.3964825100490833  1.0000
  H   H21       1.0  0.7472744086230942  0.06217140805210941  0.36759061593779574  1.0000
  C   C28       1.0  0.8256198694649238  0.4068185206926611  0.19651382171058018  1.0000
  C   C29       1.0  0.7544922654330273  0.3836236096421095  0.19628178386872142  1.0000
  C   C30       1.0  0.7185538407893848  0.37202398900795863  0.07899815259479848  1.0000
  C   C31       1.0  0.7546545372199917  0.38393820310808047  0.9609758546957834  1.0000
  C   C32       1.0  0.8257380132417955  0.4071114153617408  0.9592603852517465  1.0000
  C   C33       1.0  0.8608056196848747  0.4184126581534875  0.0775575671337474  1.0000
  C   C34       1.0  0.6433544199494416  0.34751433916965  0.07972590295039517  1.0000
  C   C35       1.0  0.5998306054912238  0.41347600814801466  0.9864983938531422  1.0000
  C   C36       1.0  0.5290635041796594  0.39045492361008827  0.9872612008174686  1.0000
  C   C37       1.0  0.500629249103175  0.30021693156657303  0.08036709063556446  1.0000
  C   C38       1.0  0.5436913359000388  0.23535923064623154  0.1745071551265167  1.0000
  C   C39       1.0  0.61446170587134  0.258350613478487  0.17392254203290247  1.0000
  C   C40       1.0  0.42438963557321246  0.2782007363952821  0.08331478895365341  1.0000
  O   O2        1.0  0.3934735074716725  0.3663035032544062  0.16242066139598266  1.0000
  H   H22       1.0  0.9597891140859852  0.45143115611568163  0.4041789852323028  1.0000
  H   H23       1.0  0.7267556952401872  0.3763221126385736  0.2874048804131486  1.0000
  H   H24       1.0  0.7273591347013351  0.37334080794107005  0.8704501564502918  1.0000
  H   H25       1.0  0.9156340589046039  0.4362905019793528  0.0769501898760272  1.0000
  H   H26       1.0  0.8530701022116893  0.4161107152810044  0.631118379833346  1.0000
  H   H27       1.0  0.6203852589321138  0.4843893578619709  0.9141962155417143  1.0000
  H   H28       1.0  0.49641199354780063  0.44327903485903075  0.9153600528032109  1.0000
  H   H29       1.0  0.5225019128871133  0.16666284321612723  0.24824093866006836  1.0000
  H   H30       1.0  0.6466997595318787  0.20533289234940466  0.24634165659797191  1.0000
  H   H31       1.0  0.41348659595300175  0.17659551078953983  0.12200374892264598  1.0000
  H   H32       1.0  0.4026104127514682  0.29192885271210844  0.9829054499073284  1.0000
  H   H33       1.0  0.3434626450431104  0.34778332293056646  0.16108219487203912  1.0000
  Zn  Zn1       1.0  0.7502910782741774  0.408222665761129  0.5769290983685895  1.0000
  Zn  Zn2       1.0  0.9010602019499192  0.4057067552274092  0.5788444434539  1.0000
  C   C41       1.0  0.8257149723841524  0.4018824008955133  0.8150854082454584  1.0000
  C   C42       1.0  0.8256379539881461  0.41204863128727  0.3406882818138357  1.0000
  C   C43       1.0  0.8256361332556931  0.644155074442665  0.5726906121262578  1.0000
  C   C44       1.0  0.8257167419333488  0.16977439832322228  0.5830831466584974  1.0000
  O   O3        1.0  0.8828601209330259  0.41284346350543255  0.38980141165936644  1.0000
  O   O4        1.0  0.8829230818500591  0.3991770709307756  0.7674256072389487  1.0000
  O   O5        1.0  0.8828586471655602  0.5948153321656156  0.5716900844698622  1.0000
  O   O6        1.0  0.8829245041536486  0.2172052123819288  0.5855368363982592  1.0000
  O   O7        1.0  0.7684267246203442  0.5967242094665774  0.5702367047637866  1.0000
  O   O8        1.0  0.7684911590379961  0.4010875085086012  0.7659721581469672  1.0000
  O   O9        1.0  0.7684281979322379  0.41475385522696184  0.3883464011534177  1.0000
  O   O10       1.0  0.768492581166633  0.21911559485208998  0.5840819232620598  1.0000
