data_image0
_chemical_formula_structural       NC10NC3NCH9C13OH12C13OH12Zn2C4O8
_chemical_formula_sum              "N3 C44 H33 O10 Zn2"
_cell_length_a       19.437513618241372
_cell_length_b       10.299150109392551
_cell_length_c       10.299153481560891
_cell_angle_alpha    85.56204594622189
_cell_angle_beta     90.36417058255482
_cell_angle_gamma    89.50394211810362

_space_group_name_H-M_alt    "P 1"
_space_group_IT_number       1

loop_
  _space_group_symop_operation_xyz
  'x, y, z'

loop_
  _atom_site_type_symbol
  _atom_site_label
  _atom_site_symmetry_multiplicity
  _atom_site_fract_x
  _atom_site_fract_y
  _atom_site_fract_z
  _atom_site_occupancy
  N   N1        1.0  0.6473842384870219  0.4100586016204306  0.5752224694018466  1.0000
  C   C1        1.0  0.5884474460933274  0.42706897301995417  0.5722417307693839  1.0000
  C   C2        1.0  0.5150026600046116  0.4483218823115571  0.5685418144392047  1.0000
  C   C3        1.0  0.47325507245258247  0.34712063730509346  0.5569102931071384  1.0000
  C   C4        1.0  0.3973619968893246  0.35718387738586777  0.5496860834395543  1.0000
  C   C5        1.0  0.3577869627235655  0.43805917531678884  0.6154070851631865  1.0000
  C   C6        1.0  0.2816045300025977  0.42944761564856604  0.6069652555231178  1.0000
  C   C7        1.0  0.2484901159033816  0.30809531701632764  0.6116421515901882  1.0000
  C   C8        1.0  0.176755091965578  0.30172083534552563  0.604475764733494  1.0000
  C   C9        1.0  0.13716400764903544  0.41622604494705495  0.5929948482172616  1.0000
  C   C10       1.0  0.0633145341160535  0.4095133055452258  0.5856604612279772  1.0000
  N   N2        1.0  0.0039446554163961  0.40411685331861835  0.5797640723369695  1.0000
  C   C11       1.0  0.1695620268011282  0.5372679801808282  0.5890633228095903  1.0000
  C   C12       1.0  0.2412814251820218  0.5438964912455082  0.5962916617957175  1.0000
  C   C13       1.0  0.3864733902237826  0.5303786075674286  0.7053026536658298  1.0000
  N   N3        1.0  0.44344389903922876  0.5935896008770161  0.6848807847582428  1.0000
  C   C14       1.0  0.48726308782161043  0.5842933553603786  0.5717744402490823  1.0000
  H   H1        1.0  0.49565227105365417  0.2520536808247238  0.5448151549415976  1.0000
  H   H2        1.0  0.37264736872635373  0.2876488029594455  0.4913864262559433  1.0000
  H   H3        1.0  0.2779575152356723  0.2181801773531291  0.6226879195253916  1.0000
  H   H4        1.0  0.1521778469713977  0.20748879987796287  0.60838896230556  1.0000
  H   H5        1.0  0.139409925018514  0.6265288641788762  0.5803299105405466  1.0000
  H   H6        1.0  0.2653770772474438  0.6385413521032708  0.5923628904337317  1.0000
  H   H7        1.0  0.3564840474524074  0.5507912485791262  0.7896646809863885  1.0000
  H   H8        1.0  0.5300052867067294  0.6546127294725874  0.577518521929671  1.0000
  H   H9        1.0  0.4575728475930432  0.6123767387571188  0.48112004686709753  1.0000
  C   C15       1.0  0.8257326116621034  0.025686974276945218  0.5776382844991088  1.0000
  C   C16       1.0  0.8244864858194012  0.013954826429942946  0.7144339165801996  1.0000
  C   C17       1.0  0.8237947685801712  0.8908726779212971  0.7835277467139568  1.0000
  C   C18       1.0  0.8243537805371709  0.7787015569329817  0.7140688292196682  1.0000
  C   C19       1.0  0.8256028801388952  0.788478281413824  0.5773596344772021  1.0000
  C   C20       1.0  0.82628688831284  0.9124317946902596  0.5099433041667765  1.0000
  C   C21       1.0  0.8224704960508437  0.8794432125641596  0.9281518154907684  1.0000
  C   C22       1.0  0.7801753189911674  0.7872932773512065  0.9956348830531541  1.0000
  C   C23       1.0  0.7789063859540589  0.776619951017138  0.13172569689960045  1.0000
  C   C24       1.0  0.820360947666435  0.8569317062507184  0.20279941053596706  1.0000
  C   C25       1.0  0.861997993272023  0.9500464840899111  0.13595053536189805  1.0000
  C   C26       1.0  0.8632828967845879  0.9608953412118353  0.999859636222163  1.0000
  C   C27       1.0  0.8175507310739322  0.8478408249785413  0.34885071476675966  1.0000
  O   O1        1.0  0.7661342217225122  0.9318881293100252  0.38843668911389695  1.0000
  H   H10       1.0  0.8276377490748631  0.2551322377142724  0.319424425148795  1.0000
  H   H11       1.0  0.8230971851960708  0.10076989102726785  0.767425098428459  1.0000
  H   H12       1.0  0.8247545007002355  0.6835907521387773  0.766907747551606  1.0000
  H   H13       1.0  0.827248409397148  0.9206891158351547  0.40449538680144004  1.0000
  H   H14       1.0  0.8260370199951103  0.4647640562207791  0.5247758936862663  1.0000
  H   H15       1.0  0.7472644334031758  0.7248150239093003  0.9431066963557777  1.0000
  H   H16       1.0  0.7454460828344335  0.7058653678718403  0.18167534820176123  1.0000
  H   H17       1.0  0.8936416930489971  0.014099082844245991  0.18920879144407088  1.0000
  H   H18       1.0  0.8967663766121111  0.03209525054724005  0.9507169279647836  1.0000
  H   H19       1.0  0.8681646403542674  0.8748404796673921  0.3896656357483439  1.0000
  H   H20       1.0  0.8063757710435969  0.7460188452425819  0.38652117160525445  1.0000
  H   H21       1.0  0.7664040063189135  0.9222398538836702  0.48506735386823685  1.0000
  C   C28       1.0  0.8256086823056049  0.4069361922702086  0.19612569894660048  1.0000
  C   C29       1.0  0.7544812627219237  0.38373934111030117  0.1959000602762444  1.0000
  C   C30       1.0  0.7185429303196059  0.37213875024037435  0.07861962918539778  1.0000
  C   C31       1.0  0.7546435320072099  0.3840539608900495  0.9605940443110983  1.0000
  C   C32       1.0  0.8257268237533495  0.40722911143809704  0.9588721816819716  1.0000
  C   C33       1.0  0.8607943403278338  0.418531299508178  0.0771662456994262  1.0000
  C   C34       1.0  0.6433437043828103  0.3476270503230261  0.07935414143167163  1.0000
  C   C35       1.0  0.5998193653909094  0.41359423658278294  0.9861084343757591  1.0000
  C   C36       1.0  0.5290524471452749  0.39057122647500186  0.9868775925551354  1.0000
  C   C37       1.0  0.5006189096501831  0.30032568658738135  0.08000837785077342  1.0000
  C   C38       1.0  0.5436815122018673  0.23546256072567684  0.17416633573008888  1.0000
  C   C39       1.0  0.6144516993434297  0.2584558666434249  0.17357537961573555  1.0000
  C   C40       1.0  0.4243794711951713  0.2783076498989512  0.08296215014812636  1.0000
  O   O2        1.0  0.3934626424917593  0.36641778600393815  0.1620437161935142  1.0000
  H   H22       1.0  0.9597775721625993  0.45155255926138205  0.40377855442779476  1.0000
  H   H23       1.0  0.7267447505913064  0.37643723338217017  0.28702517120785487  1.0000
  H   H24       1.0  0.7273482137600823  0.3734556793171604  0.8700712697478323  1.0000
  H   H25       1.0  0.9156226373811897  0.4364106387039539  0.0765539361792591  1.0000
  H   H26       1.0  0.8530588411599246  0.41622916409255883  0.6307276934748476  1.0000
  H   H27       1.0  0.6203734549218642  0.4845135177552795  0.9137866920019535  1.0000
  H   H28       1.0  0.4964005164508852  0.4433997561307337  0.9149618710619523  1.0000
  H   H29       1.0  0.522492635469375  0.16676042727207196  0.24791907169522398  1.0000
  H   H30       1.0  0.6466901746061042  0.20543371091329665  0.24600912107415462  1.0000
  H   H31       1.0  0.4134772395497134  0.17669392565105446  0.121679141665195  1.0000
  H   H32       1.0  0.4026001392060952  0.29203691448691593  0.9825490236947036  1.0000
  H   H33       1.0  0.3434519273374937  0.34789605658275335  0.16071035914422627  1.0000
  Zn  Zn1       1.0  0.750279879948959  0.4083404547866365  0.5765405882194161  1.0000
  Zn  Zn2       1.0  0.9010490236314687  0.40582433381272387  0.5784566274114191  1.0000
  C   C41       1.0  0.825703824477344  0.4019996595974875  0.8146986472921391  1.0000
  C   C42       1.0  0.8256267252384731  0.41216674033088396  0.34029871613099294  1.0000
  C   C43       1.0  0.825623058772743  0.6442925977397338  0.5722370113223745  1.0000
  C   C44       1.0  0.8257074397722179  0.16987224264130707  0.5827604212564415  1.0000
  O   O3        1.0  0.8828488858627689  0.4129616390317947  0.38941162669274765  1.0000
  O   O4        1.0  0.8829119554563006  0.3992941033488049  0.7670395926506564  1.0000
  O   O5        1.0  0.8828459650370962  0.5949487285015844  0.5712500958532405  1.0000
  O   O6        1.0  0.8829148248180169  0.2173070239911974  0.5852010254571804  1.0000
  O   O7        1.0  0.7684140273122999  0.5968577654682032  0.5697961895129726  1.0000
  O   O8        1.0  0.7684800174522501  0.40120470072279457  0.7655856164940236  1.0000
  O   O9        1.0  0.768416947670358  0.4148721905456527  0.3879560891347986  1.0000
  O   O10       1.0  0.7684828866394521  0.21921756625291322  0.5837455852715334  1.0000
