data_image0
_chemical_formula_structural       NC12NC2H8C16H10C12NCOH11Zn2C4O8
_chemical_formula_sum              "N3 C47 H29 O9 Zn2"
_cell_length_a       17.80743265337812
_cell_length_b       10.29914801576943
_cell_length_c       10.299148425239203
_cell_angle_alpha    85.5134079146002
_cell_angle_beta     91.51916060690998
_cell_angle_gamma    89.44985071264975

_space_group_name_H-M_alt    "P 1"
_space_group_IT_number       1

loop_
  _space_group_symop_operation_xyz
  'x, y, z'

loop_
  _atom_site_type_symbol
  _atom_site_label
  _atom_site_symmetry_multiplicity
  _atom_site_fract_x
  _atom_site_fract_y
  _atom_site_fract_z
  _atom_site_occupancy
  N   N1        1.0  0.7078163440174399  0.4073289293626088  0.6007155922573952  1.0000
  C   C1        1.0  0.6570103567661832  0.4369161396537895  0.5320019837496974  1.0000
  C   C2        1.0  0.5938026923219484  0.47372048020604995  0.44653090402613405  1.0000
  C   C3        1.0  0.6055547904912552  0.527793489724101  0.319883922363722  1.0000
  C   C4        1.0  0.5442539315573426  0.5630932101554462  0.23680952743381534  1.0000
  C   C5        1.0  0.47104680131216115  0.5445836567570717  0.2797220771436888  1.0000
  C   C6        1.0  0.4583178472380601  0.4903916575767169  0.40683727056240104  1.0000
  C   C7        1.0  0.5204760250488082  0.45509519755308836  0.4898951517259553  1.0000
  C   C8        1.0  0.3805419513855395  0.47076680424856643  0.45261068749318967  1.0000
  C   C9        1.0  0.3617421841908124  0.4979075435103051  0.57965078846101  1.0000
  C   C10       1.0  0.2885051080811795  0.4794395515919905  0.6226038869751978  1.0000
  C   C11       1.0  0.23312467883209412  0.43357621195749996  0.5393549929818138  1.0000
  C   C12       1.0  0.15775072784082872  0.41455482101643604  0.5837093024514708  1.0000
  N   N2        1.0  0.0971554088972143  0.39926290200443715  0.6193671159962064  1.0000
  C   C13       1.0  0.2512328547151095  0.40626634177614807  0.41285795387246904  1.0000
  C   C14       1.0  0.3244171130205493  0.4247492166904434  0.3696489499488649  1.0000
  H   H1        1.0  0.6620272427239328  0.5426314436248847  0.2854394770472424  1.0000
  H   H2        1.0  0.5534712479870268  0.6052305554733397  0.13900930120063593  1.0000
  H   H3        1.0  0.424420548413751  0.5742463128332875  0.21411653861724078  1.0000
  H   H4        1.0  0.5119569222695717  0.4115724753986185  0.5875714639891434  1.0000
  H   H5        1.0  0.403414583736124  0.5350652381684322  0.6452127108757626  1.0000
  H   H6        1.0  0.2750512077881512  0.5012500565154125  0.7206091441118081  1.0000
  H   H7        1.0  0.20884369001249733  0.37037587910905834  0.34770851443503115  1.0000
  H   H8        1.0  0.3373423705062803  0.4014029228643663  0.27194763942893974  1.0000
  C   C15       1.0  0.9024359518100277  0.021895517871341363  0.610204503616826  1.0000
  C   C16       1.0  0.885302607526436  0.031905097328815524  0.47590039110063276  1.0000
  C   C17       1.0  0.8766708692018427  0.9198493306571904  0.40764338569761316  1.0000
  C   C18       1.0  0.8854029528081723  0.7966513725567735  0.47550057954263547  1.0000
  C   C19       1.0  0.9025429809545125  0.7846861770371022  0.6098897710848501  1.0000
  C   C20       1.0  0.9109552887190696  0.8978269303554276  0.6764143181683708  1.0000
  C   C21       1.0  0.8585460426744593  0.9314838603808039  0.26556584065639965  1.0000
  C   C22       1.0  0.894102162130321  0.8497977761911993  0.18204551220942244  1.0000
  C   C23       1.0  0.8770174543941822  0.8608735146904619  0.0483263426508751  1.0000
  C   C24       1.0  0.8242012639401748  0.9535400340581663  0.9963147190257629  1.0000
  C   C25       1.0  0.7885083502229617  0.03520980459507417  0.07854446344056609  1.0000
  C   C26       1.0  0.8055394915043365  0.02437643278430124  0.21228201491692822  1.0000
  C   C27       1.0  0.806640266925766  0.9648182436088788  0.8586397116460742  1.0000
  C   C28       1.0  0.7919331211627255  0.9742636355026368  0.7433388815567952  1.0000
  C   C29       1.0  0.774711227180027  0.9853240626831292  0.6083227864021725  1.0000
  C   C30       1.0  0.7600065498118589  0.9947680185209676  0.4930405836227547  1.0000
  H   H9        1.0  0.9089875323233633  0.3455207992278866  0.6618758622987067  1.0000
  H   H10       1.0  0.8796429641161803  0.12709937975317587  0.4237155449995058  1.0000
  H   H11       1.0  0.8778041411954822  0.7099370389402296  0.42371745280959217  1.0000
  H   H12       1.0  0.9241684794836971  0.8893904392367703  0.7800072779885256  1.0000
  H   H13       1.0  0.9344286262330375  0.5548054985983241  0.8636982868689163  1.0000
  H   H14       1.0  0.9358295662708824  0.7785136369484091  0.21989668971457155  1.0000
  H   H15       1.0  0.9051335240359384  0.7973949430956584  0.9854939077588241  1.0000
  H   H16       1.0  0.7473786872458279  0.10704648500989777  0.03935193238650192  1.0000
  H   H17       1.0  0.7765477805469875  0.08748367366120036  0.2742696581900277  1.0000
  H   H18       1.0  0.747094659306481  0.003060608285171851  0.3918130916329372  1.0000
  C   C31       1.0  0.9025459976861238  0.403445535599984  0.22865355350971583  1.0000
  C   C32       1.0  0.9787725620377145  0.4374282687840414  0.2283208807740944  1.0000
  C   C33       1.0  0.0173016637900405  0.45444647673034777  0.1110144434183633  1.0000
  C   C34       1.0  0.9786141425658846  0.4370913713793285  0.993056279275359  1.0000
  C   C35       1.0  0.9024329334046077  0.4031361746603066  0.9914406566781531  1.0000
  C   C36       1.0  0.8648457927109205  0.3865033548580228  0.10976643453182944  1.0000
  C   C37       1.0  0.09789482306668984  0.4903728039173054  0.11175301314498398  1.0000
  C   C38       1.0  0.14836800702617192  0.4319513136974136  0.030596976338116644  1.0000
  C   C39       1.0  0.22416979825043515  0.46589729247584843  0.031439288635460416  1.0000
  C   C40       1.0  0.2512730347383918  0.5576166071146502  0.11420796972268366  1.0000
  C   C41       1.0  0.20072555392815317  0.6178860092175182  0.19379127634232596  1.0000
  C   C42       1.0  0.12488982717770725  0.5840474111219744  0.19304413485232486  1.0000
  N   N3        1.0  0.32929863759497935  0.5922101883111432  0.11139524113150667  1.0000
  C   C43       1.0  0.3725164362820683  0.6279909935532402  0.22218032913947172  1.0000
  O   O1        1.0  0.3470950221172151  0.6143539039719457  0.3353286192584961  1.0000
  H   H19       1.0  0.7587915309336488  0.3385383776241888  0.4366403681895279  1.0000
  H   H20       1.0  0.008580532779590477  0.44900718627058733  0.3196701361761154  1.0000
  H   H21       1.0  0.0077645596329152244  0.4518804477625247  0.902213391894251  1.0000
  H   H22       1.0  0.8060861999576506  0.36030930902892133  0.10923540355743921  1.0000
  H   H23       1.0  0.8731337926925908  0.39003974801434826  0.663346227525818  1.0000
  H   H24       1.0  0.1294170782206876  0.3588278954665083  0.9675471080179472  1.0000
  H   H25       1.0  0.2621226147711948  0.41956920134943054  0.9683216226336482  1.0000
  H   H26       1.0  0.2192504692817323  0.6931829751515493  0.2544132198261868  1.0000
  H   H27       1.0  0.0870260307901709  0.6330401381097408  0.25427237312956286  1.0000
  H   H28       1.0  0.3581911103184341  0.5826715401041687  0.025600024580832548  1.0000
  H   H29       1.0  0.42893017275582923  0.6638651809775702  0.20904345159905935  1.0000
  Zn  Zn1       1.0  0.8201711896974161  0.40499777750046473  0.6061055079606066  1.0000
  Zn  Zn2       1.0  0.9848005576665644  0.4015834552383315  0.613987798400546  1.0000
  C   C44       1.0  0.902451909488265  0.3980205787106923  0.8472596458850361  1.0000
  C   C45       1.0  0.9025216358343556  0.408562255446667  0.37283387334895624  1.0000
  C   C46       1.0  0.9025196566247912  0.6405046952038858  0.6047735489014261  1.0000
  C   C47       1.0  0.9024538322921063  0.1660765796593593  0.6153200375298966  1.0000
  O   O2        1.0  0.9649894461503858  0.40897808965633575  0.42421339627166255  1.0000
  O   O3        1.0  0.9649339801144678  0.39501237325453276  0.8018622255565617  1.0000
  O   O4        1.0  0.964987844377645  0.5908213808721712  0.6060529457310919  1.0000
  O   O5        1.0  0.9649355257260943  0.21316909253425642  0.6200225760226432  1.0000
  O   O6        1.0  0.8400361654579638  0.5934121413710973  0.600070727641838  1.0000
  O   O7        1.0  0.8399823014205878  0.3976046942141309  0.7958799375733061  1.0000
  O   O8        1.0  0.8400377677315548  0.41157036598850105  0.4182295468078441  1.0000
  O   O9        1.0  0.8399838472884553  0.2157613595374206  0.6140388239366434  1.0000
