data_image0
_chemical_formula_structural       NC10NC3NCH9C12NCOCH13C13F3H9Zn2C4O8
_chemical_formula_sum              "N4 C45 H31 O9 F3 Zn2"
_cell_length_a       19.437513618241372
_cell_length_b       10.299155265289647
_cell_length_c       10.2985328690268
_cell_angle_alpha    85.56203192291568
_cell_angle_beta     90.35299087610198
_cell_angle_gamma    89.500514822395

_space_group_name_H-M_alt    "P 1"
_space_group_IT_number       1

loop_
  _space_group_symop_operation_xyz
  'x, y, z'

loop_
  _atom_site_type_symbol
  _atom_site_label
  _atom_site_symmetry_multiplicity
  _atom_site_fract_x
  _atom_site_fract_y
  _atom_site_fract_z
  _atom_site_occupancy
  N   N1        1.0  0.647486738670544  0.41014416586094105  0.5752245905941535  1.0000
  C   C1        1.0  0.5885497184278933  0.42715464436896555  0.5722447879687198  1.0000
  C   C2        1.0  0.5151046451636734  0.44840768590416413  0.5685460426477027  1.0000
  C   C3        1.0  0.4733614399013535  0.3472077157795048  0.5569070708923465  1.0000
  C   C4        1.0  0.3974687924037345  0.3572713748072269  0.5496830650238569  1.0000
  C   C5        1.0  0.3578844401934027  0.4381419797491317  0.6154136366139642  1.0000
  C   C6        1.0  0.2817031484782974  0.4295310138071413  0.6069706954528129  1.0000
  C   C7        1.0  0.2485920695960943  0.30817903117443146  0.6116398510616861  1.0000
  C   C8        1.0  0.1768579848313901  0.3018050487399031  0.6044725826330817  1.0000
  C   C9        1.0  0.13726448198737684  0.41631042039931954  0.5929985169116443  1.0000
  C   C10       1.0  0.0634159755839508  0.40959819290280053  0.5856632151735912  1.0000
  N   N2        1.0  0.0040468743906566  0.40420215221520506  0.5797660908930451  1.0000
  C   C11       1.0  0.1696590988581742  0.5373519926856947  0.589074759163575  1.0000
  C   C12       1.0  0.2413775436896297  0.5439799991810976  0.5963040005222364  1.0000
  C   C13       1.0  0.38655869793082226  0.5304550863607198  0.7053210823522935  1.0000
  N   N3        1.0  0.44352932330235323  0.593667086213097  0.6849020928071634  1.0000
  C   C14       1.0  0.4873604626476048  0.5843782531685171  0.5717878843585333  1.0000
  H   H1        1.0  0.495762875617137  0.25214203300166527  0.5448048590197383  1.0000
  H   H2        1.0  0.3727623606300385  0.2877404521395681  0.4913750648874917  1.0000
  H   H3        1.0  0.2780611587987912  0.2182636320465221  0.6226803695249217  1.0000
  H   H4        1.0  0.15228330067144552  0.2075732403204491  0.6083797876530213  1.0000
  H   H5        1.0  0.1395050894455414  0.6266129889246315  0.5803467011981069  1.0000
  H   H6        1.0  0.2654706235401473  0.6386246318938544  0.5923812480660104  1.0000
  H   H7        1.0  0.3565600176624531  0.5508621297468286  0.7896898681480458  1.0000
  H   H8        1.0  0.5300998575000393  0.6546968936751636  0.5775369931175065  1.0000
  H   H9        1.0  0.4576786829870224  0.6124673959342124  0.48112954236706207  1.0000
  C   C15       1.0  0.8258469536923257  0.02577434669974288  0.5776150940723173  1.0000
  C   C16       1.0  0.8140873785298738  0.03563996820223658  0.44253070567012665  1.0000
  C   C17       1.0  0.8080583871430184  0.9235054469069192  0.37392149419329024  1.0000
  C   C18       1.0  0.8139228574201717  0.8003828709261002  0.44222080384984075  1.0000
  C   C19       1.0  0.8256932792156187  0.7885618532613068  0.5773869266681859  1.0000
  C   C20       1.0  0.8315859251254577  0.9017757975323805  0.6442519716218438  1.0000
  C   C21       1.0  0.7956190258846566  0.9349157383646551  0.23101853343423584  1.0000
  C   C22       1.0  0.8305066300627547  0.028426872560096683  0.150039619135671  1.0000
  C   C23       1.0  0.8188060326644256  0.03903373693402634  0.015558482946606889  1.0000
  C   C24       1.0  0.7724116657069084  0.9554519921828746  0.9592131010163847  1.0000
  C   C25       1.0  0.7366836627443147  0.8637711334027015  0.04011314687440093  1.0000
  C   C26       1.0  0.7484093164644817  0.8529078236191749  0.1745572641359534  1.0000
  N   N4        1.0  0.7584968311769896  0.9658938325560755  0.8214652076832847  1.0000
  C   C27       1.0  0.8087278339729344  0.001971078129531678  0.7238804197019695  1.0000
  O   O1        1.0  0.8718461172004764  0.0034598152640774593  0.752544723216078  1.0000
  C   C28       1.0  0.7867719228778793  0.028752444619164264  0.5850512054979333  1.0000
  H   H10       1.0  0.8303915446295795  0.3494554363877769  0.6295689053277715  1.0000
  H   H11       1.0  0.808641333207138  0.13076412371277835  0.3906480845475546  1.0000
  H   H12       1.0  0.8102191414219001  0.7136336271329674  0.38954150668060095  1.0000
  H   H13       1.0  0.8406586472946544  0.893451333698254  0.7484449673502658  1.0000
  H   H14       1.0  0.8483213027696748  0.5589600886636664  0.8323803328435284  1.0000
  H   H15       1.0  0.8672470564772973  0.09287201279598478  0.19060270315915373  1.0000
  H   H16       1.0  0.845197010255793  0.11403611230786015  0.9563100338967714  1.0000
  H   H17       1.0  0.6998771650137435  0.8000309487494738  0.9986821248401014  1.0000
  H   H18       1.0  0.7198076308171986  0.7815588259116067  0.23461056078207365  1.0000
  H   H19       1.0  0.7100368481037499  0.937825822081469  0.7897723566322843  1.0000
  H   H20       1.0  0.7371078558466186  0.08302475858610014  0.579964679448933  1.0000
  H   H21       1.0  0.7804031118876336  0.9352387347561063  0.539742860198495  1.0000
  H   H22       1.0  0.8259357400066806  0.08817854212191745  0.530150882483222  1.0000
  C   C29       1.0  0.8257503551100556  0.4070464574169752  0.19610332019076937  1.0000
  C   C30       1.0  0.8947470974795438  0.3650022242365585  0.19920737526705867  1.0000
  C   C31       1.0  0.9297082397775261  0.3438167720376757  0.08360933233920531  1.0000
  C   C32       1.0  0.8947876629386557  0.36525718399105744  0.9639071396260785  1.0000
  C   C33       1.0  0.8257898508515815  0.407289729294968  0.9588987251718795  1.0000
  C   C34       1.0  0.7917118296665536  0.42791077263555843  0.07549987678701764  1.0000
  C   C35       1.0  0.002654224403024763  0.2993781795381947  0.08782549216686975  1.0000
  C   C36       1.0  0.05014934498198098  0.35319118892127954  0.9968725864245935  1.0000
  C   C37       1.0  0.11880127547000341  0.3114706443036801  0.000862013703988973  1.0000
  C   C38       1.0  0.14120767018629365  0.21369392463359138  0.09464779639329413  1.0000
  C   C39       1.0  0.0941104362762768  0.1616934647839292  0.18718255752164303  1.0000
  C   C40       1.0  0.025462977685173804  0.20344699230531615  0.18330409837914408  1.0000
  C   C41       1.0  0.21580971148774974  0.17216114213770317  0.10189348334448334  1.0000
  F   F1        1.0  0.25107735643730766  0.250893866586676  0.18180385109009167  1.0000
  F   F2        1.0  0.24510777108268522  0.18284688860118203  0.979406132538486  1.0000
  F   F3        1.0  0.22220711551091332  0.043923897765681064  0.15189905327571696  1.0000
  H   H23       1.0  0.6955031421821539  0.4873108260950496  0.39750116450396145  1.0000
  H   H24       1.0  0.9216929332776067  0.35039257738072016  0.29163379019112323  1.0000
  H   H25       1.0  0.9212138977445011  0.3474339779586675  0.8746182093688089  1.0000
  H   H26       1.0  0.7385344525919117  0.46030984865659264  0.07237439473310237  1.0000
  H   H27       1.0  0.6952830885252026  0.48597477019921564  0.7421644874974378  1.0000
  H   H28       1.0  0.03445596189598099  0.4292226031608475  0.9239209431333082  1.0000
  H   H29       1.0  0.15446141815554237  0.35610601769996375  0.9308175242824306  1.0000
  H   H30       1.0  0.11035328366414965  0.08854464407545692  0.26258321996295564  1.0000
  H   H31       1.0  0.9900504462140547  0.1597615900782361  0.2543711357450067  1.0000
  Zn  Zn1       1.0  0.7503822983171324  0.408425941983416  0.5765426800433906  1.0000
  Zn  Zn2       1.0  0.9011513236564166  0.4059097091125521  0.5784586753131307  1.0000
  C   C42       1.0  0.8257818947873167  0.402069671522318  0.8147155805243078  1.0000
  C   C43       1.0  0.8257533732557023  0.41226759088479836  0.3402859227407393  1.0000
  C   C44       1.0  0.8257184985754423  0.6443771586207232  0.5722544603060453  1.0000
  C   C45       1.0  0.8258167183386499  0.16995854424253287  0.5827471120157899  1.0000
  O   O2        1.0  0.8829704466915399  0.41305928752687393  0.3894020331951944  1.0000
  O   O3        1.0  0.8829950232042837  0.39936723243460404  0.7670532925652835  1.0000
  O   O4        1.0  0.8829430587315236  0.5950336059661174  0.5712642123305218  1.0000
  O   O5        1.0  0.88302235971013  0.21739292411387412  0.5851910153913602  1.0000
  O   O6        1.0  0.7685112108133494  0.5969427278421722  0.5698103393044938  1.0000
  O   O7        1.0  0.7685631749649668  0.40127791471459684  0.7655993498218001  1.0000
  O   O8        1.0  0.7685385984262426  0.41496992404863997  0.3879465289473001  1.0000
  O   O9        1.0  0.7685905114489333  0.21930355137720525  0.5837356085213943  1.0000
