data_image0
_chemical_formula_structural       NC9NC5H8C16H10C12NCOCH13Zn2C4O8
_chemical_formula_sum              "N3 C48 H31 O9 Zn2"
_cell_length_a       17.807436237873137
_cell_length_b       10.29914801576943
_cell_length_c       10.299158637457994
_cell_angle_alpha    85.55741753884429
_cell_angle_beta     89.37443015321585
_cell_angle_gamma    88.40369483635645

_space_group_name_H-M_alt    "P 1"
_space_group_IT_number       1

loop_
  _space_group_symop_operation_xyz
  'x, y, z'

loop_
  _atom_site_type_symbol
  _atom_site_label
  _atom_site_symmetry_multiplicity
  _atom_site_fract_x
  _atom_site_fract_y
  _atom_site_fract_z
  _atom_site_occupancy
  N   N1        1.0  0.7078730527464084  0.387336350608241  0.556523947723319  1.0000
  C   C1        1.0  0.6472826330603544  0.3521399117105313  0.5455146794561103  1.0000
  C   C2        1.0  0.5719148104249308  0.30835941775018005  0.5318203450824195  1.0000
  C   C3        1.0  0.5538328393930965  0.23690064388882903  0.4268460016690949  1.0000
  C   C4        1.0  0.4806545723643978  0.1942816230116775  0.4134671026715999  1.0000
  C   C5        1.0  0.4245095109635526  0.22274380557858375  0.5050302538788607  1.0000
  C   C6        1.0  0.34673987804719464  0.17756571807529697  0.4908939762328135  1.0000
  C   C7        1.0  0.2845701788824283  0.25933759946332935  0.5167988587124679  1.0000
  C   C8        1.0  0.2112495760011995  0.21651552991107526  0.5034337265084621  1.0000
  C   C9        1.0  0.1480300969106605  0.3009791021906809  0.529701384364589  1.0000
  N   N2        1.0  0.0972146233304784  0.36888197117447774  0.5508198572420251  1.0000
  C   C10       1.0  0.1995150959703145  0.09166357000673342  0.4641384702935123  1.0000
  C   C11       1.0  0.2608274249256587  0.00987783220454097  0.43822520382220964  1.0000
  C   C12       1.0  0.3340285780379401  0.05230525671272579  0.45138796070634934  1.0000
  C   C13       1.0  0.443282915151297  0.2946970635578303  0.6102236220908144  1.0000
  C   C14       1.0  0.5165140556702986  0.3371256187628393  0.6234469481510645  1.0000
  H   H1        1.0  0.5962378948120214  0.21438757909055206  0.35514164113169855  1.0000
  H   H2        1.0  0.4677498590085251  0.14056503792385677  0.3305680079094475  1.0000
  H   H3        1.0  0.2930759536200468  0.356820456408834  0.5456352852461883  1.0000
  H   H4        1.0  0.1430472639246268  0.057621059539592956  0.45355776216696864  1.0000
  H   H5        1.0  0.2516236428495998  0.913214700226557  0.4081880027519402  1.0000
  H   H6        1.0  0.3806637266032885  0.9865482587055905  0.43236696197572577  1.0000
  H   H7        1.0  0.4015944246828065  0.3166715093230874  0.683222727321475  1.0000
  H   H8        1.0  0.5299474826001971  0.3920625034496834  0.7053038866158345  1.0000
  C   C15       1.0  0.9024938991857457  0.9967102266143179  0.5538382067645584  1.0000
  C   C16       1.0  0.8853653053991304  0.00707389034833783  0.42061395319296335  1.0000
  C   C17       1.0  0.8767359820241435  0.8951960511439193  0.352901014111231  1.0000
  C   C18       1.0  0.8854656660546123  0.7718171757418903  0.42020788886959615  1.0000
  C   C19       1.0  0.9026009406606887  0.7594977830524022  0.5535167982305049  1.0000
  C   C20       1.0  0.9110108947676316  0.8724651341686668  0.6195111097358221  1.0000
  C   C21       1.0  0.8586161809508359  0.9072051543815868  0.21196581800180048  1.0000
  C   C22       1.0  0.8941756307608425  0.8245045573527738  0.1262263860814794  1.0000
  C   C23       1.0  0.8770956526200369  0.835933532266131  0.9935839977588943  1.0000
  C   C24       1.0  0.8242809259824727  0.9299710866972116  0.9448793378881692  1.0000
  C   C25       1.0  0.7885847277872806  0.012658028568204749  0.02933682066047827  1.0000
  C   C26       1.0  0.8056111383680326  0.00147286577826522  0.16200094054351988  1.0000
  C   C27       1.0  0.806724798716965  0.9416122041757541  0.8083111441386905  1.0000
  C   C28       1.0  0.7920217312977655  0.9513615279383286  0.6939372585072294  1.0000
  C   C29       1.0  0.7748046130142693  0.9627778556046751  0.5600066043757606  1.0000
  C   C30       1.0  0.7601040133318214  0.972525691741176  0.4456511905228706  1.0000
  H   H9        1.0  0.9090436516941579  0.320200353802798  0.6050966216067066  1.0000
  H   H10       1.0  0.8797075159497081  0.10237909879929652  0.36878628843263206  1.0000
  H   H11       1.0  0.8778686779921863  0.6852658909497433  0.3689032203838136  1.0000
  H   H12       1.0  0.924220421306793  0.8637555880522887  0.7222712840470018  1.0000
  H   H13       1.0  0.9344776044156116  0.528961127706577  0.8053154320658231  1.0000
  H   H14       1.0  0.9359019964020946  0.7521347303866905  0.1614650943376743  1.0000
  H   H15       1.0  0.905214238819086  0.7716552123630169  0.9289966085345283  1.0000
  H   H16       1.0  0.7474561570129742  0.08556338995580437  0.9927194492658646  1.0000
  H   H17       1.0  0.7766169344844911  0.06540259891849476  0.2257983633492462  1.0000
  H   H18       1.0  0.7471957033786966  0.981085112533305  0.3452374938465992  1.0000
  C   C31       1.0  0.9026178380672585  0.3779626938688545  0.17230342281567723  1.0000
  C   C32       1.0  0.9043825360193696  0.5145939213640685  0.16090669523954726  1.0000
  C   C33       1.0  0.9052183188503444  0.5840105071176693  0.03797156926998757  1.0000
  C   C34       1.0  0.90423877160815  0.5149606359585361  0.9255971719559124  1.0000
  C   C35       1.0  0.902477010957079  0.37824535322234865  0.9350515855366757  1.0000
  C   C36       1.0  0.9016806764359026  0.310586856060181  0.05879204150948225  1.0000
  C   C37       1.0  0.9070860530407884  0.7285495371974442  0.02688875534099  1.0000
  C   C38       1.0  0.9532058968501668  0.7942031734706338  0.10875201115544164  1.0000
  C   C39       1.0  0.9549696558055615  0.9302217335704699  0.09819155177784822  1.0000
  C   C40       1.0  0.9111249744379609  0.0032913198292723322  0.004654572699212212  1.0000
  C   C41       1.0  0.864110515985075  0.9380405059243822  0.9245873516744392  1.0000
  C   C42       1.0  0.8623776041652481  0.8020483955241564  0.9348863605643483  1.0000
  N   N3        1.0  0.9108577346189167  0.14336185655979738  0.9933643778451242  1.0000
  C   C43       1.0  0.9752344789048822  0.21930507016796508  0.015619666887138006  1.0000
  O   O1        1.0  0.040000227372976704  0.16681838123134307  0.02320767218828368  1.0000
  C   C44       1.0  0.9664422810026111  0.36354917600619086  0.02029072422423628  1.0000
  H   H19       1.0  0.9019625961457689  0.32540550187530637  0.504162521037302  1.0000
  H   H20       1.0  0.9040615416595722  0.5674308698678658  0.2478401027204582  1.0000
  H   H21       1.0  0.9058749185655736  0.5679011900474664  0.8305793605067713  1.0000
  H   H22       1.0  0.9003220954160274  0.20519987622249602  0.06686766893842955  1.0000
  H   H23       1.0  0.8996078565452633  0.12016541276163673  0.7455974049760492  1.0000
  H   H24       1.0  0.988359786297909  0.7403054396202795  0.18045143188702517  1.0000
  H   H25       1.0  0.9896432095304882  0.97792201635782  0.16469439167639943  1.0000
  H   H26       1.0  0.8289781399367823  0.9928123017115069  0.8534565393753928  1.0000
  H   H27       1.0  0.8252428306195428  0.7544179878305362  0.8721038402691597  1.0000
  H   H28       1.0  0.8621654531590028  0.1931288445424868  0.9591111090380422  1.0000
  H   H29       1.0  0.9136198728468264  0.38776942412357274  0.07247329440205008  1.0000
  H   H30       1.0  0.964428996630477  0.41031590858891587  0.9195818534203895  1.0000
  H   H31       1.0  0.014376941094590645  0.40204823043738447  0.07222612121169925  1.0000
  Zn  Zn1       1.0  0.8202286167100923  0.382007352565914  0.5548853827797264  1.0000
  Zn  Zn2       1.0  0.9848590377125528  0.3742003861701082  0.5524691034031035  1.0000
  C   C45       1.0  0.9025012259158048  0.37301790047092553  0.7908780300873985  1.0000
  C   C46       1.0  0.9025882264723645  0.3831913918083887  0.3164765564873462  1.0000
  C   C47       1.0  0.9025778024206145  0.615312973989836  0.5484023441346935  1.0000
  C   C48       1.0  0.902511593558926  0.1408947605543538  0.5589523131616811  1.0000
  O   O2        1.0  0.9650546745472067  0.38197782135572855  0.3639454141422258  1.0000
  O   O3        1.0  0.9649854580247107  0.3683051841323295  0.7415748988563604  1.0000
  O   O4        1.0  0.9650464520598807  0.5639615606773185  0.5457740786860761  1.0000
  O   O5        1.0  0.964993624354109  0.18632145672959544  0.559746137757124  1.0000
  O   O6        1.0  0.8400939738882544  0.5698862846719719  0.5476083492434318  1.0000
  O   O7        1.0  0.8400329800814321  0.374231468527654  0.7434090995098117  1.0000
  O   O8        1.0  0.8401021969358322  0.38790405991059274  0.36577805339224034  1.0000
  O   O9        1.0  0.8400411467203809  0.19224768603114994  0.5615788743802501  1.0000
