data_image0
_chemical_formula_structural       NC10NC3NCH9C12OCH12C12NH11Zn2C4O8
_chemical_formula_sum              "N4 C43 H32 O9 Zn2"
_cell_length_a       19.437513618241372
_cell_length_b       10.29979075500242
_cell_length_c       10.299774167527174
_cell_angle_alpha    85.5728606880388
_cell_angle_beta     90.34073838346127
_cell_angle_gamma    89.50469088654314

_space_group_name_H-M_alt    "P 1"
_space_group_IT_number       1

loop_
  _space_group_symop_operation_xyz
  'x, y, z'

loop_
  _atom_site_type_symbol
  _atom_site_label
  _atom_site_symmetry_multiplicity
  _atom_site_fract_x
  _atom_site_fract_y
  _atom_site_fract_z
  _atom_site_occupancy
  N   N1        1.0  0.6477035472666257  0.41005845411147956  0.5756917798768717  1.0000
  C   C1        1.0  0.5887675338517724  0.4270676489132712  0.5727159016199526  1.0000
  C   C2        1.0  0.5153237157819228  0.44831908614834104  0.5690220565189368  1.0000
  C   C3        1.0  0.4735778454843056  0.3471272694253176  0.5573632749442479  1.0000
  C   C4        1.0  0.3976864119421731  0.3571902650025063  0.5501422486027112  1.0000
  C   C5        1.0  0.3580978005009609  0.438053362354784  0.6158818533934296  1.0000
  C   C6        1.0  0.281917125796537  0.4294432211957855  0.6074381243346465  1.0000
  C   C7        1.0  0.2488007423959492  0.30810068810342295  0.612081281836528  1.0000
  C   C8        1.0  0.1770672182495184  0.30172733232024296  0.6049135407283854  1.0000
  C   C9        1.0  0.1374795209157664  0.41622391184292296  0.5934648577228496  1.0000
  C   C10       1.0  0.0636315808433187  0.4095123405194394  0.5861290326484434  1.0000
  N   N2        1.0  0.0042629349514694  0.40411682734054843  0.5802314876739754  1.0000
  C   C11       1.0  0.16987934569543153  0.5372560458656648  0.5895669432330595  1.0000
  C   C12       1.0  0.2415972328893792  0.5438834046678029  0.596796703050495  1.0000
  C   C13       1.0  0.3867655120550268  0.5303576375776331  0.7057978185174432  1.0000
  N   N3        1.0  0.44374093698916234  0.5935650314034975  0.6853945379133242  1.0000
  C   C14       1.0  0.4875845174331737  0.5842789165710895  0.5722920075214226  1.0000
  H   H1        1.0  0.49597691003097055  0.25206926637376714  0.5452425948138033  1.0000
  H   H2        1.0  0.3729838453041191  0.287665828752393  0.49182669801664747  1.0000
  H   H3        1.0  0.2782650429275818  0.21819215730768793  0.6231016239281977  1.0000
  H   H4        1.0  0.1524883831694898  0.20750285667467683  0.6088005238798828  1.0000
  H   H5        1.0  0.1397298373851974  0.6265101845182015  0.5808586459302885  1.0000
  H   H6        1.0  0.2656944816671978  0.6385206724545993  0.592894260864498  1.0000
  H   H7        1.0  0.3567580827770764  0.5507615948308733  0.7901607191534918  1.0000
  H   H8        1.0  0.5303260288110571  0.6545919328066263  0.5780551627485373  1.0000
  H   H9        1.0  0.4579141074759724  0.6123674468968192  0.4816504732160327  1.0000
  C   C15       1.0  0.8260483645282247  0.02571878336372113  0.5780014304997219  1.0000
  C   C16       1.0  0.8061246942061822  0.014922000734578056  0.709180208454548  1.0000
  C   C17       1.0  0.7959746237866803  0.8923158039409039  0.7756156478963026  1.0000
  C   C18       1.0  0.8060010935790078  0.7796417485206215  0.7091128524868451  1.0000
  C   C19       1.0  0.8259247334171386  0.7884463166246698  0.5779331416690185  1.0000
  C   C20       1.0  0.8358384092026672  0.9119280216130983  0.5131126399463106  1.0000
  C   C21       1.0  0.7749007006837895  0.8819474535129406  0.9143967391055658  1.0000
  C   C22       1.0  0.7246979786601571  0.7919305890374114  0.9588211826772535  1.0000
  C   C23       1.0  0.704925725950201  0.7824447750636676  0.08930289630480659  1.0000
  C   C24       1.0  0.7349110090150504  0.8623151739826846  0.1770291058057244  1.0000
  C   C25       1.0  0.7852967768410853  0.9529386040598176  0.13447861847661935  1.0000
  C   C26       1.0  0.8048557740540263  0.9620666347069613  0.0034675124982899153  1.0000
  O   O1        1.0  0.8170935903372117  0.03513245065369652  0.21874829991771472  1.0000
  C   C27       1.0  0.8023351404567456  0.03639377331952898  0.3538907074215125  1.0000
  H   H10       1.0  0.8336702444799632  0.3572838026003644  0.5280383595247615  1.0000
  H   H11       1.0  0.797541828937666  0.10210542935838651  0.759497534763748  1.0000
  H   H12       1.0  0.7991392459963346  0.6848702954162693  0.7603911639123155  1.0000
  H   H13       1.0  0.8512092085791557  0.9194888779530112  0.4119137617753146  1.0000
  H   H14       1.0  0.8334823170113957  0.4643503610941525  0.5279316185808272  1.0000
  H   H15       1.0  0.70009387316257  0.7300931277251592  0.8923012258928182  1.0000
  H   H16       1.0  0.6660670447521748  0.7131316510546251  0.12248550194378649  1.0000
  H   H17       1.0  0.718600240107378  0.8528655185947248  0.2774837174818582  1.0000
  H   H18       1.0  0.8442694822720944  0.03094472106795254  0.9718047663798233  1.0000
  H   H19       1.0  0.8142167477899809  0.9396808303627451  0.4046623990664451  1.0000
  H   H20       1.0  0.8347987608715789  0.11050357124285748  0.39651654455326124  1.0000
  H   H21       1.0  0.7474111994610694  0.06222370310641967  0.36762627975894835  1.0000
  C   C28       1.0  0.8260099654878837  0.4069676541654059  0.19661552672972493  1.0000
  C   C29       1.0  0.7586363729336447  0.3587886169223822  0.19858279475863672  1.0000
  C   C30       1.0  0.724473532407352  0.33449213648970755  0.08243148868325045  1.0000
  C   C31       1.0  0.758589068930715  0.3590207056640822  0.9632774612249833  1.0000
  C   C32       1.0  0.8259630994876557  0.40719750911659114  0.9593190546055279  1.0000
  C   C33       1.0  0.8592961608533026  0.4309017029701996  0.07650250211568133  1.0000
  C   C34       1.0  0.6531961761529436  0.28352207415657005  0.08556609283870142  1.0000
  C   C35       1.0  0.6338763944829231  0.18539039835859028  0.18062745750280995  1.0000
  C   C36       1.0  0.5667869422927286  0.137472953018702  0.18344399684247503  1.0000
  C   C37       1.0  0.5179560285074524  0.186812224555291  0.09151343555057534  1.0000
  C   C38       1.0  0.5368218658272985  0.28456130514267985  0.9966056900228244  1.0000
  C   C39       1.0  0.6038906425050352  0.3325803566147494  0.9935225984871359  1.0000
  N   N4        1.0  0.44933909867722954  0.13774418442888003  0.09453082989761086  1.0000
  H   H22       1.0  0.8516940984347809  0.4252722120869272  0.5233236619721517  1.0000
  H   H23       1.0  0.7322250386681873  0.34172563651712506  0.2905337372023409  1.0000
  H   H24       1.0  0.7328261580591  0.33877452122608354  0.8736208379029913  1.0000
  H   H25       1.0  0.911271935088778  0.46806872272612776  0.07421686026593965  1.0000
  H   H26       1.0  0.8516253233932626  0.425610307254473  0.6303529792901834  1.0000
  H   H27       1.0  0.6708920726618169  0.14450548880690284  0.25175208312992803  1.0000
  H   H28       1.0  0.5529204334234641  0.06165756904268771  0.25709244274556675  1.0000
  H   H29       1.0  0.4995192424674252  0.3237856902586793  0.9252075034335339  1.0000
  H   H30       1.0  0.616952712164743  0.40927563830524005  0.9201958525018643  1.0000
  H   H31       1.0  0.4125795843571638  0.17391307476490891  0.026395156177454915  1.0000
  H   H32       1.0  0.4347908905687937  0.0648854235403924  0.16492320395931648  1.0000
  Zn  Zn1       1.0  0.7505988900588194  0.4083403420195204  0.5770093504132336  1.0000
  Zn  Zn2       1.0  0.9013675994433349  0.4058242731025168  0.5789245874854023  1.0000
  C   C40       1.0  0.8259712706998007  0.4019803835859832  0.8151522298062168  1.0000
  C   C41       1.0  0.8259968649184917  0.41218584271804093  0.340781856320864  1.0000
  C   C42       1.0  0.8259448618295216  0.6442731011890062  0.5727711031942608  1.0000
  C   C43       1.0  0.8260232225906484  0.16989156569243957  0.5831630516544051  1.0000
  O   O2        1.0  0.8832084086399398  0.41297661368433536  0.38989221650180217  1.0000
  O   O3        1.0  0.8831896890325296  0.39927899469477324  0.7674951165059019  1.0000
  O   O4        1.0  0.8831675921546095  0.5949334416473642  0.571770631961189  1.0000
  O   O5        1.0  0.8832304540751875  0.2173221768511866  0.5856166030218493  1.0000
  O   O6        1.0  0.7687359839770058  0.596842439130874  0.5703173342163796  1.0000
  O   O7        1.0  0.7687580806030869  0.4011895524608837  0.7660417493790996  1.0000
  O   O8        1.0  0.7687768003595077  0.4148871257232656  0.3884372880490863  1.0000
  O   O9        1.0  0.7687988457874667  0.21923267963069692  0.5841617719333922  1.0000
