data_image0
_chemical_formula_structural       NC12NC2H8C12OCH12C13NH13Zn2C4O8
_chemical_formula_sum              "N3 C44 H33 O9 Zn2"
_cell_length_a       19.240039667572717
_cell_length_b       10.29979075500242
_cell_length_c       10.299780419254978
_cell_angle_alpha    85.56841767701755
_cell_angle_beta     89.9865849046833
_cell_angle_gamma    89.9807799165636

_space_group_name_H-M_alt    "P 1"
_space_group_IT_number       1

loop_
  _space_group_symop_operation_xyz
  'x, y, z'

loop_
  _atom_site_type_symbol
  _atom_site_label
  _atom_site_symmetry_multiplicity
  _atom_site_fract_x
  _atom_site_fract_y
  _atom_site_fract_z
  _atom_site_occupancy
  N   N1        1.0  0.6544015038318789  0.42096302300947896  0.5674372961948662  1.0000
  C   C1        1.0  0.5942531350097899  0.4209631069729376  0.5674372142570363  1.0000
  C   C2        1.0  0.5194350978647795  0.42096322422890875  0.5674370769520125  1.0000
  C   C3        1.0  0.4829599954792275  0.3565202018035234  0.6708481374750905  1.0000
  C   C4        1.0  0.4102892564402171  0.3564093393928225  0.6709346816554136  1.0000
  C   C5        1.0  0.3731028629393703  0.4209633167452276  0.567436849274793  1.0000
  C   C6        1.0  0.4102921477677707  0.4855174811246905  0.4639392114182186  1.0000
  C   C7        1.0  0.4829628453194141  0.485406383241507  0.46402587810557505  1.0000
  C   C8        1.0  0.2958977725258304  0.420963238064048  0.5674367538667267  1.0000
  C   C9        1.0  0.25872505261032747  0.30771179582726993  0.6093110807793176  1.0000
  C   C10       1.0  0.1860543564793649  0.30781867621457737  0.6092197539855289  1.0000
  C   C11       1.0  0.1495654856181929  0.4209631089046213  0.5674368147805942  1.0000
  C   C12       1.0  0.074747448452491  0.4209629952150653  0.5674370634368688  1.0000
  N   N2        1.0  0.014599131581593098  0.4209629544359783  0.567437271849901  1.0000
  C   C13       1.0  0.186024125606648  0.5341076174107453  0.5256538226834766  1.0000
  C   C14       1.0  0.2586948140657401  0.5342146778837442  0.5255623332931818  1.0000
  H   H1        1.0  0.510673701505075  0.30662715607024316  0.7515885362633465  1.0000
  H   H2        1.0  0.3831945065766215  0.30731461256170145  0.7527905064696385  1.0000
  H   H3        1.0  0.3832003668447548  0.5346122349973337  0.3820833357563156  1.0000
  H   H4        1.0  0.5106789107400768  0.5352993287712557  0.3832857551065194  1.0000
  H   H5        1.0  0.2858304296451707  0.21856337221731525  0.6404815835523525  1.0000
  H   H6        1.0  0.15835132538668586  0.21956964855587136  0.6414231413130562  1.0000
  H   H7        1.0  0.1582973332541192  0.6223566205357791  0.4934504499069434  1.0000
  H   H8        1.0  0.285775915839502  0.623363180660502  0.49439178574671994  1.0000
  C   C15       1.0  0.8345661094587906  0.039595251509299434  0.5674762163414178  1.0000
  C   C16       1.0  0.8144309830380247  0.02845624727036533  0.6989093794460635  1.0000
  C   C17       1.0  0.8041732111864134  0.9056757369988887  0.7654744127172846  1.0000
  C   C18       1.0  0.8143061253013898  0.7931739405142562  0.6988435968360052  1.0000
  C   C19       1.0  0.8344412209850816  0.8023207297926083  0.5674095012514357  1.0000
  C   C20       1.0  0.8444600856413844  0.9259726832467694  0.5024624242996221  1.0000
  C   C21       1.0  0.7828756221963233  0.894945405236859  0.9045245756450713  1.0000
  C   C22       1.0  0.7321578452042495  0.804088469419675  0.9495884569164894  1.0000
  C   C23       1.0  0.712175724821006  0.7942630113685409  0.08032262402040569  1.0000
  C   C24       1.0  0.7424615486390594  0.8746262888733917  0.16766752659216955  1.0000
  C   C25       1.0  0.7933641230004761  0.9660926950304929  0.12447528111771722  1.0000
  C   C26       1.0  0.8131308445715575  0.9755568570520817  0.9932144340320164  1.0000
  O   O1        1.0  0.8254801777179532  0.04880987769372114  0.20834057192241828  1.0000
  C   C27       1.0  0.8105627345155951  0.04981474792735807  0.34367162081728386  1.0000
  H   H9        1.0  0.8422688691374807  0.3712911718999139  0.5174158304988616  1.0000
  H   H10       1.0  0.8057574096105135  0.11549273258257142  0.7493362581129488  1.0000
  H   H11       1.0  0.8073710721425608  0.698284149788382  0.7502095532800672  1.0000
  H   H12       1.0  0.8599940198668999  0.9337975579232254  0.40106729199160984  1.0000
  H   H13       1.0  0.8420790305768919  0.47835460692008136  0.5173114817290341  1.0000
  H   H14       1.0  0.7073067950469701  0.7418461571371444  0.8833814070762955  1.0000
  H   H15       1.0  0.6729184475864382  0.7242997360086652  0.11400017051944322  1.0000
  H   H16       1.0  0.7259780991042174  0.8648970086140159  0.26833035636469815  1.0000
  H   H17       1.0  0.8529487182831386  0.04509422601831936  0.96104968850634  1.0000
  H   H18       1.0  0.8225624365773085  0.9532958624603514  0.39429230710143115  1.0000
  H   H19       1.0  0.8433549859029758  0.12446223151051727  0.3858843517168732  1.0000
  H   H20       1.0  0.7550774657367457  0.07472831400700852  0.3581065766661068  1.0000
  C   C28       1.0  0.8345509952390883  0.4208731313504943  0.18608873539283888  1.0000
  C   C29       1.0  0.8848554239775188  0.5199019695434395  0.17741850190532737  1.0000
  C   C30       1.0  0.9102914706798996  0.5701759508538138  0.05588129750336024  1.0000
  C   C31       1.0  0.8847599392308609  0.5200742016665587  0.9421183110006162  1.0000
  C   C32       1.0  0.8344563365865407  0.4210428441358649  0.9487969913557879  1.0000
  C   C33       1.0  0.8096316386075927  0.3720002825254942  0.07123651021420763  1.0000
  C   C34       1.0  0.9635115807848417  0.6749373832372767  0.04780051169489763  1.0000
  C   C35       1.0  0.9587961006979785  0.7795147145316643  0.9519650746042987  1.0000
  C   C36       1.0  0.008910625927752935  0.8780310124466433  0.9444449374038717  1.0000
  C   C37       1.0  0.06431377744976374  0.8743279217530255  0.03311972390174511  1.0000
  C   C38       1.0  0.0696955773582093  0.7694717538555857  0.12789841273563218  1.0000
  C   C39       1.0  0.019595426776188418  0.6709307570364831  0.13559132276330232  1.0000
  C   C40       1.0  0.11918039114766543  0.9785453513866138  0.022655166721453845  1.0000
  N   N3        1.0  0.17246590923718497  0.945893521902702  0.9297801324714676  1.0000
  H   H21       1.0  0.8154109062985441  0.3830916445432391  0.5168493231228839  1.0000
  H   H22       1.0  0.9036889758529892  0.559407700745103  0.265284925763146  1.0000
  H   H23       1.0  0.9049020903416712  0.5572290708551724  0.8483075622942562  1.0000
  H   H24       1.0  0.7708242941541397  0.29560299661591594  0.07715663657467098  1.0000
  H   H25       1.0  0.8152751664678206  0.3833303519432649  0.6238865632200357  1.0000
  H   H26       1.0  0.915930880214079  0.7858611132777609  0.8836628228110865  1.0000
  H   H27       1.0  0.004421180913768863  0.9574308502962721  0.869598737032081  1.0000
  H   H28       1.0  0.11281877335016244  0.7637776122041551  0.19567408308978318  1.0000
  H   H29       1.0  0.02529638710828186  0.5905137644095011  0.20897172427411448  1.0000
  H   H30       1.0  0.0951496107433778  0.07357154226629836  0.9893663307092542  1.0000
  H   H31       1.0  0.14314699343548853  0.9898556503120928  0.11951085819229412  1.0000
  H   H32       1.0  0.20752584658434148  0.023584726499088937  0.919833822613414  1.0000
  H   H33       1.0  0.20036261308531045  0.8655904187667796  0.9705596166497874  1.0000
  Zn  Zn1       1.0  0.7583467673131862  0.42095953769567407  0.5674447776083622  1.0000
  Zn  Zn2       1.0  0.9106538872905472  0.42095584866087465  0.5674403898517533  1.0000
  C   C41       1.0  0.8344735064569546  0.4158371308690112  0.8046292819515426  1.0000
  C   C42       1.0  0.8345288110516179  0.4260798940901793  0.3302560127789458  1.0000
  C   C43       1.0  0.8344618752616625  0.6581482510897187  0.562247178530938  1.0000
  C   C44       1.0  0.834540390522067  0.18376721358834458  0.5726381855733789  1.0000
  O   O2        1.0  0.8923211250396916  0.427820265536458  0.3786382034185287  1.0000
  O   O3        1.0  0.8922787725916874  0.41409297972798087  0.7562433873602963  1.0000
  O   O4        1.0  0.8922686009183767  0.6097622740679682  0.5605181238589785  1.0000
  O   O5        1.0  0.8923312447514653  0.23215098046625204  0.5743633695496342  1.0000
  O   O6        1.0  0.7766693578773234  0.6097644058929677  0.5605217979051473  1.0000
  O   O7        1.0  0.7766795293005329  0.414096671836778  0.7562469920273029  1.0000
  O   O8        1.0  0.7767218819959962  0.42782391204193604  0.3786402467492671  1.0000
  O   O9        1.0  0.7767320016943624  0.23215461770461965  0.5743655102452505  1.0000
