data_image0
_chemical_formula_structural       NC12NC2H8C12NCOCH13C12BrH9Zn2C4O8
_chemical_formula_sum              "N3 C44 H30 O9 Br1 Zn2"
_cell_length_a       17.80743265337812
_cell_length_b       10.299155265289647
_cell_length_c       10.299148005577397
_cell_angle_alpha    85.5359577284707
_cell_angle_beta     91.50743167608279
_cell_angle_gamma    89.41399588169462

_space_group_name_H-M_alt    "P 1"
_space_group_IT_number       1

loop_
  _space_group_symop_operation_xyz
  'x, y, z'

loop_
  _atom_site_type_symbol
  _atom_site_label
  _atom_site_symmetry_multiplicity
  _atom_site_fract_x
  _atom_site_fract_y
  _atom_site_fract_z
  _atom_site_occupancy
  N   N1        1.0  0.7074777492904581  0.4069407191728085  0.6009017628279094  1.0000
  C   C1        1.0  0.6566693742691068  0.43650897462801375  0.5321931242538243  1.0000
  C   C2        1.0  0.5934587391718926  0.47328973774590977  0.44672822666838186  1.0000
  C   C3        1.0  0.6052066019932025  0.5273278126134262  0.3200903566410487  1.0000
  C   C4        1.0  0.543903025978898  0.5626046180425015  0.23702192060577865  1.0000
  C   C5        1.0  0.47069739843976993  0.5441069022756821  0.2799313631537599  1.0000
  C   C6        1.0  0.45797266621762023  0.48994996667609914  0.40703741979412555  1.0000
  C   C7        1.0  0.5201335619221225  0.454676417109964  0.4900893428509956  1.0000
  C   C8        1.0  0.3801983304916465  0.47033773983691574  0.452807534945878  1.0000
  C   C9        1.0  0.36137349046853756  0.4975132983347277  0.5798470873000623  1.0000
  C   C10       1.0  0.2881378972089821  0.479057155071118  0.6227970819503019  1.0000
  C   C11       1.0  0.23278401447365302  0.4331710757574456  0.53954558330648  1.0000
  C   C12       1.0  0.1574115770291952  0.4141619198615625  0.5838966928376497  1.0000
  N   N2        1.0  0.0968174748836257  0.3988798369842834  0.6195519338488893  1.0000
  C   C13       1.0  0.2509172587435167  0.40582653596713203  0.4130490603628185  1.0000
  C   C14       1.0  0.3241000596447051  0.4242974918966751  0.369843168751002  1.0000
  H   H1        1.0  0.6616778549132112  0.5421562649020102  0.2856484033282749  1.0000
  H   H2        1.0  0.5531169345927125  0.6047149848307518  0.1392287708140001  1.0000
  H   H3        1.0  0.42406835641250096  0.5737514569967579  0.21433071900579215  1.0000
  H   H4        1.0  0.5116183810199333  0.4111806432606042  0.5877584357509174  1.0000
  H   H5        1.0  0.4030246094032939  0.5346888985675768  0.6454111706092753  1.0000
  H   H6        1.0  0.2746643400036555  0.5008945189405138  0.7208020079922635  1.0000
  H   H7        1.0  0.2085488684167863  0.36991827753559514  0.34789758272604954  1.0000
  H   H8        1.0  0.33704549078699814  0.4009244268335732  0.2721420190277022  1.0000
  C   C15       1.0  0.9022350841809188  0.021510974183388543  0.610349729709408  1.0000
  C   C16       1.0  0.8894382711597711  0.031507125948088355  0.47480539954892387  1.0000
  C   C17       1.0  0.8828772902741359  0.9194392351545394  0.4059603557799836  1.0000
  C   C18       1.0  0.8892587251952577  0.7962511446626225  0.4744890001010784  1.0000
  C   C19       1.0  0.9020673554926156  0.7842994956051708  0.6101154906177031  1.0000
  C   C20       1.0  0.9084800225578035  0.8974484027794001  0.6772110421840962  1.0000
  C   C21       1.0  0.8693407346858452  0.9309876068214223  0.26257086578405175  1.0000
  C   C22       1.0  0.9074621170572004  0.02432802650214705  0.1829756454115412  1.0000
  C   C23       1.0  0.8947295079826744  0.03506479985830624  0.04803687716230742  1.0000
  C   C24       1.0  0.8440880957357444  0.9517838058472473  0.9898579522295798  1.0000
  C   C25       1.0  0.80504907649848  0.8602786861343952  0.06934105345071928  1.0000
  C   C26       1.0  0.8178090575279935  0.8492853352590254  0.2042437957021117  1.0000
  N   N3        1.0  0.8289387409694907  0.9623701685794604  0.8515649413692312  1.0000
  C   C27       1.0  0.8838195442842667  0.9981930762852741  0.7559716329192336  1.0000
  O   O1        1.0  0.9527314151183744  0.9992942219062471  0.7871323315558034  1.0000
  C   C28       1.0  0.8598901922056824  0.02516718774065807  0.6162791658059792  1.0000
  H   H9        1.0  0.9071806062715893  0.34514173200887166  0.6624812994660492  1.0000
  H   H10       1.0  0.8835083945672539  0.12668693288663135  0.4227093473271861  1.0000
  H   H11       1.0  0.8852316213125375  0.7095475668984478  0.42166524598412347  1.0000
  H   H12       1.0  0.9183530010335449  0.8890232446635133  0.7817588922649619  1.0000
  H   H13       1.0  0.9266928591972816  0.5544487818481333  0.865994122958254  1.0000
  H   H14       1.0  0.9475671639434734  0.08853682139390884  0.22499090231693053  1.0000
  H   H15       1.0  0.9235660474114488  0.10993713416685913  0.9898350533605282  1.0000
  H   H16       1.0  0.7648721659756799  0.7967756291892429  0.026455278681367878  1.0000
  H   H17       1.0  0.7865583026834119  0.7780791409149194  0.2631629592847644  1.0000
  H   H18       1.0  0.7760337941753851  0.9346040906003076  0.8179558318703979  1.0000
  H   H19       1.0  0.8056618146997331  0.07973662319344887  0.609227678208994  1.0000
  H   H20       1.0  0.8529505770626576  0.9317116523436407  0.5707206148120663  1.0000
  H   H21       1.0  0.9026724541476637  0.08438546265623703  0.5629307051933878  1.0000
  C   C29       1.0  0.902253594137948  0.4029551424367763  0.22884931213849846  1.0000
  C   C30       1.0  0.8315759399365308  0.4652028696509125  0.22000865469706454  1.0000
  C   C31       1.0  0.7956350896384026  0.4967127184568003  0.09838293578948365  1.0000
  C   C32       1.0  0.8313252237117397  0.4651352499377963  0.9847196315786211  1.0000
  C   C33       1.0  0.902048806908765  0.4028553026352799  0.9916158867147042  1.0000
  C   C34       1.0  0.9370773583276085  0.3721467754265826  0.11408349943343388  1.0000
  C   C35       1.0  0.7208671979948598  0.5625652223827284  0.0900755285349415  1.0000
  C   C36       1.0  0.7050645268078574  0.664217839480638  0.16936651361876365  1.0000
  C   C37       1.0  0.6346590722847273  0.726089045893261  0.1613511668961065  1.0000
  C   C38       1.0  0.5792559681268519  0.6872893730522589  0.07434444861506484  1.0000
  C   C39       1.0  0.5943039214349133  0.5864393067491167  0.9951646123621822  1.0000
  C   C40       1.0  0.6646455544492955  0.5243474394406424  0.0027844292759438005  1.0000
  Br  Br1       1.0  0.48312630292799247  0.7719565565046431  0.06366489348392124  1.0000
  H   H22       1.0  0.9294545947612132  0.3790643558474178  0.5597220168739552  1.0000
  H   H23       1.0  0.803849414560629  0.48772481849519234  0.30801350210296374  1.0000
  H   H24       1.0  0.8043396803969931  0.4907908170102433  0.8906030539699104  1.0000
  H   H25       1.0  0.9915938836421753  0.3241374660671599  0.12018652821956577  1.0000
  H   H26       1.0  0.035745467413772936  0.28603612259790445  0.7972931321897816  1.0000
  H   H27       1.0  0.7474465749077875  0.6969600214247647  0.23629430659049566  1.0000
  H   H28       1.0  0.6232971072946311  0.8043965303515435  0.22258825748376232  1.0000
  H   H29       1.0  0.5514769881609182  0.555858484911091  0.9279078692836249  1.0000
  H   H30       1.0  0.6747505851992484  0.44537663497937174  0.9416884275405382  1.0000
  Zn  Zn1       1.0  0.8198327859869141  0.40461105416197785  0.6062912875983499  1.0000
  Zn  Zn2       1.0  0.9844624351792303  0.40119890630698163  0.6141730057823305  1.0000
  C   C41       1.0  0.9020869874224353  0.39770011196620625  0.8474382086783412  1.0000
  C   C42       1.0  0.90221003109974  0.40811144997538085  0.37302629773851725  1.0000
  C   C43       1.0  0.9020965614710912  0.6401169582176187  0.6049842263613703  1.0000
  C   C44       1.0  0.9022004011990759  0.16569304445260014  0.6154803470864012  1.0000
  O   O2        1.0  0.9646715060861433  0.4085413953685004  0.424404483893694  1.0000
  O   O3        1.0  0.9645756072180661  0.39467944555141576  0.8020416906949805  1.0000
  O   O4        1.0  0.9645824958132667  0.5904341319578756  0.6062583438355469  1.0000
  O   O5        1.0  0.9646645613380945  0.2127867194300832  0.6201877306824359  1.0000
  O   O6        1.0  0.8396306036480317  0.5930232422046897  0.6002765600017692  1.0000
  O   O7        1.0  0.8396237147248216  0.39727011623541153  0.7960598371338141  1.0000
  O   O8        1.0  0.8397196140720111  0.41113202099629764  0.4184210688892138  1.0000
  O   O9        1.0  0.8397126692967927  0.2153773357556512  0.614204413052172  1.0000
