data_image0
_chemical_formula_structural       NC8NC6H8C12NCOCH13C12IH9Zn2C4O8
_chemical_formula_sum              "N3 C44 H30 O9 I1 Zn2"
_cell_length_a       17.457602349358154
_cell_length_b       10.299155265289647
_cell_length_c       10.29977335064465
_cell_angle_alpha    85.52787819197464
_cell_angle_beta     92.8856157993103
_cell_angle_gamma    91.66712233072684

_space_group_name_H-M_alt    "P 1"
_space_group_IT_number       1

loop_
  _space_group_symop_operation_xyz
  'x, y, z'

loop_
  _atom_site_type_symbol
  _atom_site_label
  _atom_site_symmetry_multiplicity
  _atom_site_fract_x
  _atom_site_fract_y
  _atom_site_fract_z
  _atom_site_occupancy
  N   N1        1.0  0.7219666404127157  0.4532976735156442  0.6260350691887671  1.0000
  C   C1        1.0  0.6608980091689775  0.40737267007953304  0.6154337036183537  1.0000
  C   C2        1.0  0.5849260485004314  0.35024767788861366  0.602255145101708  1.0000
  C   C3        1.0  0.5263955839568304  0.3903912284762985  0.6771409026163033  1.0000
  C   C4        1.0  0.451861288982479  0.3353844547201579  0.6645761210836363  1.0000
  C   C5        1.0  0.3897398484751449  0.3777700659142331  0.7438830187318117  1.0000
  C   C6        1.0  0.3151836813561761  0.39625495909659936  0.688113153246666  1.0000
  C   C7        1.0  0.2566532656663288  0.43621454351640443  0.7631069234057315  1.0000
  C   C8        1.0  0.1806585944008421  0.4553059373806143  0.705121384715264  1.0000
  N   N2        1.0  0.11957179665890331  0.4706490379310466  0.6585011646663022  1.0000
  C   C9        1.0  0.2721868485658889  0.457932250203517  0.8943790050116787  1.0000
  C   C10       1.0  0.3459582614646157  0.43983625969852347  0.9505363498785047  1.0000
  C   C11       1.0  0.4044770757099859  0.40005661385931135  0.8760002487664242  1.0000
  C   C12       1.0  0.4371461190704931  0.23955706652994513  0.5756928617766655  1.0000
  C   C13       1.0  0.49566484123778665  0.19969210197313148  0.5012070237002788  1.0000
  C   C14       1.0  0.5694143980913782  0.2548111061208669  0.5143217249726042  1.0000
  H   H1        1.0  0.5387291217854856  0.46557161494385535  0.743748581324007  1.0000
  H   H2        1.0  0.3028322507808353  0.3813119713369926  0.5860923989062807  1.0000
  H   H3        1.0  0.22732458431942504  0.488800601035843  0.9532056862493758  1.0000
  H   H4        1.0  0.3577955951310373  0.45633710320660237  0.05218334958091275  1.0000
  H   H5        1.0  0.4609704851104224  0.38505118316988085  0.922111868653424  1.0000
  H   H6        1.0  0.3806706298682759  0.19422177613144265  0.5650551932857719  1.0000
  H   H7        1.0  0.4838447472699728  0.12562857411558248  0.4334006605956209  1.0000
  H   H8        1.0  0.6142769507594568  0.2230728646816802  0.4560064475018679  1.0000
  C   C15       1.0  0.9208585856899719  0.08057971912208939  0.6423941197713301  1.0000
  C   C16       1.0  0.9077401636933143  0.089757563052413  0.5063983246267383  1.0000
  C   C17       1.0  0.9010145327604367  0.9772700408324428  0.437321800135009  1.0000
  C   C18       1.0  0.9075566921657887  0.8544899014493366  0.5060755598954214  1.0000
  C   C19       1.0  0.9206872125114183  0.8433573212958856  0.6421539331444139  1.0000
  C   C20       1.0  0.9272607361227189  0.9569163982035775  0.7094757364888946  1.0000
  C   C21       1.0  0.8871377733978076  0.9879528021508399  0.2934547476086975  1.0000
  C   C22       1.0  0.9260383109639286  0.08379162526261541  0.21521388017547127  1.0000
  C   C23       1.0  0.9129856789147741  0.09371420573575051  0.07982591348062984  1.0000
  C   C24       1.0  0.8612485482016609  0.007134847690670076  0.01985103630045848  1.0000
  C   C25       1.0  0.8214108677312486  0.9130714389729936  0.09794722299592751  1.0000
  C   C26       1.0  0.8344914390041027  0.9028940722347871  0.23330013573384623  1.0000
  N   N3        1.0  0.8457266659480741  0.016749683189996478  0.8810231305728338  1.0000
  C   C27       1.0  0.9017361972139414  0.05616699048318963  0.7873792220739424  1.0000
  O   O1        1.0  0.9721213319722931  0.06176251427243895  0.8209847569486217  1.0000
  C   C28       1.0  0.8772475619398039  0.08159662743212026  0.6468403155264122  1.0000
  H   H9        1.0  0.9259283053184495  0.40452675598177934  0.6947001699232833  1.0000
  H   H10       1.0  0.9016652229810623  0.18455683178877247  0.4540928599573837  1.0000
  H   H11       1.0  0.9034246156653181  0.7675300822028047  0.4531099304210209  1.0000
  H   H12       1.0  0.9373818318498107  0.949122583155783  0.8143719007044226  1.0000
  H   H13       1.0  0.9459297691567183  0.6150819375916755  0.8989014374788542  1.0000
  H   H14       1.0  0.9670096006571466  0.15061304181489965  0.2586515059401788  1.0000
  H   H15       1.0  0.9424123454259157  0.17047618040824553  0.022648537208909136  1.0000
  H   H16       1.0  0.7803658678599  0.8469511786857092  0.053636546192644685  1.0000
  H   H17       1.0  0.8025996132249928  0.8296405571817793  0.2911091655551048  1.0000
  H   H18       1.0  0.7916870813848186  0.9855344021468219  0.8455372634194251  1.0000
  H   H19       1.0  0.8218663041967784  0.13262713743755672  0.637864587059469  1.0000
  H   H20       1.0  0.8701438841975991  0.987693821413363  0.6010363921245183  1.0000
  H   H21       1.0  0.9209175583098187  0.14361425416603613  0.5950110933182953  1.0000
  C   C29       1.0  0.920736285906135  0.4620729905891767  0.2609018174845781  1.0000
  C   C30       1.0  0.9902672324479793  0.5341159902226089  0.2602216284331522  1.0000
  C   C31       1.0  0.025536021314624513  0.5705145173507522  0.14274998130567695  1.0000
  C   C32       1.0  0.990341078990153  0.5339050402439174  0.024958108443910998  1.0000
  C   C33       1.0  0.92080948947775  0.46186401764846585  0.023646286197771094  1.0000
  C   C34       1.0  0.8863967385250732  0.42635034874372235  0.1421180198865739  1.0000
  C   C35       1.0  0.09909366141633913  0.6467276665581432  0.14308439199281708  1.0000
  C   C36       1.0  0.11113916930897516  0.7502801781654862  0.22384802980938634  1.0000
  C   C37       1.0  0.18041179761983628  0.8219006043723969  0.2239642575682983  1.0000
  C   C38       1.0  0.23840880939421072  0.7910694534309948  0.1437204957901792  1.0000
  C   C39       1.0  0.22710315836426576  0.6884354929924559  0.06315974812909642  1.0000
  C   C40       1.0  0.15790841068792938  0.6165924765533854  0.06264400500790512  1.0000
  I   I1        1.0  0.34284686001332987  0.8992736893587718  0.14419931647433537  1.0000
  H   H22       1.0  0.8942195243534009  0.43468537244955563  0.588607648148467  1.0000
  H   H23       1.0  0.017696005450448027  0.5605618557738619  0.3514306804159668  1.0000
  H   H24       1.0  0.016756551917305185  0.5632476319912227  0.9339938805203216  1.0000
  H   H25       1.0  0.8327563478198107  0.3707735716404261  0.1418743597991594  1.0000
  H   H26       1.0  0.8943267278234845  0.4343778857568974  0.6956966546605199  1.0000
  H   H27       1.0  0.06664575945116691  0.7769185654137809  0.2855971860654014  1.0000
  H   H28       1.0  0.18888478898708216  0.9015532721257573  0.28621846848466914  1.0000
  H   H29       1.0  0.27197286279263655  0.6640499237122359  0.00114951404592456  1.0000
  H   H30       1.0  0.15076877945940215  0.5364570687739811  0.0006597387875311167  1.0000
  Zn  Zn1       1.0  0.8367069012958084  0.4583014174918729  0.6354115826674074  1.0000
  Zn  Zn2       1.0  0.004831524939060472  0.46563464252770004  0.649135287160012  1.0000
  C   C41       1.0  0.9207950996409838  0.45672942478825873  0.8794727081557576  1.0000
  C   C42       1.0  0.9207451621535518  0.46720835400138094  0.4050744384856624  1.0000
  C   C43       1.0  0.9207151387924575  0.699177334555011  0.6370238056253836  1.0000
  C   C44       1.0  0.9208250659901696  0.22475888130904997  0.6475234060636434  1.0000
  O   O2        1.0  0.9845505608602437  0.471709083447563  0.45866816324410786  1.0000
  O   O3        1.0  0.9845924003248188  0.4577934637810517  0.8362945840215235  1.0000
  O   O4        1.0  0.9845269709708683  0.6535731792049271  0.6405153092284779  1.0000
  O   O5        1.0  0.9846159328332161  0.27592937483886115  0.654447335975747  1.0000
  O   O6        1.0  0.8569224360289691  0.648006682679658  0.630099529161614  1.0000
  O   O7        1.0  0.8569878650221446  0.45222852768030686  0.8258787342169946  1.0000
  O   O8        1.0  0.8569460254689173  0.4661441025179234  0.44825075204379283  1.0000
  O   O9        1.0  0.8570113974501842  0.2703643845929935  0.6440300221467812  1.0000
