data_image0
_chemical_formula_structural       NC8NC6H8C12SCH12C13F3H9Zn2C4O8
_chemical_formula_sum              "N2 C44 H29 S1 F3 Zn2 O8"
_cell_length_a       17.457602349358154
_cell_length_b       10.299776766347529
_cell_length_c       10.2985328690268
_cell_angle_alpha    85.58005012136331
_cell_angle_beta     92.88104695485512
_cell_angle_gamma    91.66964631390691

_space_group_name_H-M_alt    "P 1"
_space_group_IT_number       1

loop_
  _space_group_symop_operation_xyz
  'x, y, z'

loop_
  _atom_site_type_symbol
  _atom_site_label
  _atom_site_symmetry_multiplicity
  _atom_site_fract_x
  _atom_site_fract_y
  _atom_site_fract_z
  _atom_site_occupancy
  N   N1        1.0  0.7220700267237612  0.45235757245914465  0.6264000188396563  1.0000
  C   C1        1.0  0.6610001920612106  0.4064300686652731  0.6157832818923503  1.0000
  C   C2        1.0  0.5850267341752575  0.34930197124230977  0.6025856038789734  1.0000
  C   C3        1.0  0.5264948147818519  0.3894868315180984  0.6774894607487421  1.0000
  C   C4        1.0  0.451959073328073  0.33447714226804703  0.6649062775689236  1.0000
  C   C5        1.0  0.3898360875975944  0.3769065126552087  0.7442323024027362  1.0000
  C   C6        1.0  0.3152826983830148  0.39535661633354646  0.6884643575338425  1.0000
  C   C7        1.0  0.2567508172741054  0.4353575901461577  0.7634761761669804  1.0000
  C   C8        1.0  0.1807590297971912  0.45441282299760033  0.7054925936912424  1.0000
  N   N2        1.0  0.1196745503919695  0.46972685071578857  0.6588739444189966  1.0000
  C   C9        1.0  0.2722801459376252  0.4571517586650351  0.8947644991145889  1.0000
  C   C10       1.0  0.34604877974987447  0.43909075633854866  0.9509200746889637  1.0000
  C   C11       1.0  0.40456904823238  0.3992699790140464  0.8763660149008192  1.0000
  C   C12       1.0  0.4372439428066203  0.23860473098812962  0.5759861999358962  1.0000
  C   C13       1.0  0.49576411430282435  0.19869867201210312  0.5014823795981667  1.0000
  C   C14       1.0  0.5695151005584485  0.25382091019667663  0.5146155573195961  1.0000
  H   H1        1.0  0.5388284410790333  0.4647006773032685  0.7441258028391557  1.0000
  H   H2        1.0  0.3029346418548201  0.3803540437107331  0.5864315969372431  1.0000
  H   H3        1.0  0.2274167154876605  0.4880526158660514  0.9536051861918873  1.0000
  H   H4        1.0  0.3578828082073974  0.4556508322673145  0.052579549955960925  1.0000
  H   H5        1.0  0.4610601705516671  0.38429328982268185  0.9224761353495274  1.0000
  H   H6        1.0  0.3807672722256943  0.19326686952860017  0.5653333451950906  1.0000
  H   H7        1.0  0.4839440167737837  0.12460087723205793  0.4336476234271811  1.0000
  H   H8        1.0  0.6143787694276218  0.22205053967010935  0.4562860334632044  1.0000
  C   C15       1.0  0.9209482935156007  0.07968037831441288  0.6426415951174491  1.0000
  C   C16       1.0  0.9255663797045973  0.06836322519190996  0.779542086774623  1.0000
  C   C17       1.0  0.9278325355784153  0.9454868875230763  0.8489099816704013  1.0000
  C   C18       1.0  0.925419680225847  0.8330690450501694  0.779545296628668  1.0000
  C   C19       1.0  0.920803643012146  0.8423943399355848  0.6426442228855584  1.0000
  C   C20       1.0  0.9185933574731376  0.9661402048082393  0.5749586708481047  1.0000
  C   C21       1.0  0.9327094948799883  0.9345781532493254  0.9937345646985445  1.0000
  C   C22       1.0  0.8888051484745988  0.839223029370459  0.06419652269415166  1.0000
  C   C23       1.0  0.8934179792193456  0.829192095178416  0.20049195434998612  1.0000
  C   C24       1.0  0.9417439755206417  0.9142299322434511  0.26811661048948787  1.0000
  C   C25       1.0  0.985831486031062  0.009019702040895083  0.19904277180370133  1.0000
  C   C26       1.0  0.9813311523896754  0.019405436131301412  0.06274611250704398  1.0000
  S   S1        1.0  0.9477474749193466  0.9009020217981895  0.4430093108469484  1.0000
  C   C27       1.0  0.8706545115877132  0.013602191641532091  0.45624288739390173  1.0000
  H   H9        1.0  0.9192187761081124  0.41144752788154837  0.5904787585388112  1.0000
  H   H10       1.0  0.9263536226827596  0.1552453276807777  0.8325683696678345  1.0000
  H   H11       1.0  0.9282073229065325  0.7381936652172324  0.8325388101309728  1.0000
  H   H12       1.0  0.9150312248866396  0.9741024418693949  0.46934580536400694  1.0000
  H   H13       1.0  0.9190064208394623  0.5184922591495383  0.5904805226782248  1.0000
  H   H14       1.0  0.8501816275668717  0.7735568957677081  0.0139246084971415  1.0000
  H   H15       1.0  0.8591202048300817  0.7556490330790678  0.25341606192076893  1.0000
  H   H16       1.0  0.023638566802554717  0.07470654456393788  0.2508370482803771  1.0000
  H   H17       1.0  0.01659731094246486  0.09262229512207876  0.011314236894150786  1.0000
  H   H18       1.0  0.8860101058989701  0.1105873430974409  0.4086160088911187  1.0000
  H   H19       1.0  0.8617706654325461  0.023926579456978958  0.5608038502507153  1.0000
  H   H20       1.0  0.8166664593848995  0.9756979977597974  0.4097084760118074  1.0000
  C   C28       1.0  0.9208539283432275  0.46091445561808353  0.2612436129629876  1.0000
  C   C29       1.0  0.9977915946713382  0.4233845175960729  0.26973975281527296  1.0000
  C   C30       1.0  0.0367764640279975  0.40448648113438157  0.15687395553661387  1.0000
  C   C31       1.0  0.997836838656468  0.4236421081869566  0.034442776380999574  1.0000
  C   C32       1.0  0.9208979790634276  0.46116028936989073  0.02404218962478155  1.0000
  C   C33       1.0  0.8828978694463404  0.47955169970312084  0.1379801030092096  1.0000
  C   C34       1.0  0.11811789641696135  0.36482057244637245  0.166790836688117  1.0000
  C   C35       1.0  0.17108218989361035  0.42173419186958117  0.07957600833346246  1.0000
  C   C36       1.0  0.2476353634742281  0.384505372728972  0.08893060954370569  1.0000
  C   C37       1.0  0.27261759281721165  0.2882016491651245  0.18444067200456926  1.0000
  C   C38       1.0  0.22009705127042078  0.23312644111117597  0.27326910463999443  1.0000
  C   C39       1.0  0.1435488655136825  0.27038853277076  0.26402583241060107  1.0000
  C   C40       1.0  0.3558058166899636  0.2515495767023552  0.1975177469905678  1.0000
  F   F1        1.0  0.39513597041512516  0.3325814428910403  0.2802161771132554  1.0000
  F   F2        1.0  0.3884768272124539  0.2641498523827386  0.0773291190323031  1.0000
  F   F3        1.0  0.36293515151649824  0.12374124325628966  0.2479836957586794  1.0000
  H   H21       1.0  0.7756164272869848  0.5326569798343395  0.45246294293791833  1.0000
  H   H22       1.0  0.027838724820515637  0.4105377230364351  0.36427255684651016  1.0000
  H   H23       1.0  0.027304442629734638  0.4075480518523189  0.9472185048286383  1.0000
  H   H24       1.0  0.8236002393543512  0.5084715050118171  0.1306988154244415  1.0000
  H   H25       1.0  0.7753709958828023  0.5313066486453748  0.7971086008208554  1.0000
  H   H26       1.0  0.15358496302659974  0.49673329531332877  0.005419086593136946  1.0000
  H   H27       1.0  0.28740200220527035  0.43146838473945737  0.021694079015694978  1.0000
  H   H28       1.0  0.23820709367583848  0.16104561370255976  0.34991901019102234  1.0000
  H   H29       1.0  0.1040583744455228  0.22439160097048583  0.33230461206595274  1.0000
  Zn  Zn1       1.0  0.8368101046499602  0.45736649074442637  0.635778791340206  1.0000
  Zn  Zn2       1.0  0.004934460849665756  0.4647072882309835  0.6495058052562499  1.0000
  C   C41       1.0  0.920888924335878  0.4559401457114116  0.8798567601146607  1.0000
  C   C42       1.0  0.9208574767730354  0.46613535205612466  0.4054281138625544  1.0000
  C   C43       1.0  0.9208267166487073  0.698223330557028  0.6374678001233072  1.0000
  C   C44       1.0  0.9209196273910749  0.22385060445373317  0.6478171384086555  1.0000
  O   O1        1.0  0.9846609857235252  0.4706676613451479  0.4590270797289959  1.0000
  O   O2        1.0  0.9846879117724104  0.4569783520350361  0.8366759063098665  1.0000
  O   O3        1.0  0.9846368182705413  0.6526250507683018  0.6409450359540712  1.0000
  O   O4        1.0  0.9847120218485536  0.2750209693656369  0.6547578480183014  1.0000
  O   O5        1.0  0.85703248627848  0.6470528071061308  0.6305267438869668  1.0000
  O   O6        1.0  0.857083579476888  0.45140766862599735  0.8262575449968268  1.0000
  O   O7        1.0  0.8570566533974293  0.4650969321799907  0.448607156894945  1.0000
  O   O8        1.0  0.8571076895267059  0.26945023094308285  0.6443380225595534  1.0000
