data_image0
_chemical_formula_structural       NC9NC5H8C12OCH12C12ClH9Zn2C4O8
_chemical_formula_sum              "N2 C43 H29 O9 Cl1 Zn2"
_cell_length_a       17.807436237873137
_cell_length_b       10.29979075500242
_cell_length_c       10.299771906710086
_cell_angle_alpha    85.53978707277841
_cell_angle_beta     89.40099058273775
_cell_angle_gamma    88.37243818242351

_space_group_name_H-M_alt    "P 1"
_space_group_IT_number       1

loop_
  _space_group_symop_operation_xyz
  'x, y, z'

loop_
  _atom_site_type_symbol
  _atom_site_label
  _atom_site_symmetry_multiplicity
  _atom_site_fract_x
  _atom_site_fract_y
  _atom_site_fract_z
  _atom_site_occupancy
  N   N1        1.0  0.7070308299607109  0.3881784480055819  0.5570111922448602  1.0000
  C   C1        1.0  0.6464485095344037  0.3529917828357323  0.5459902322354502  1.0000
  C   C2        1.0  0.5710907614814198  0.30922344632764887  0.5322813546222609  1.0000
  C   C3        1.0  0.5530022190256506  0.2378385294034766  0.42728443510220715  1.0000
  C   C4        1.0  0.47983374597204403  0.195231374741063  0.41389137936247433  1.0000
  C   C5        1.0  0.4237051607580323  0.2236316153367277  0.5054628233046101  1.0000
  C   C6        1.0  0.3459459227002226  0.17846607651148272  0.491311538226169  1.0000
  C   C7        1.0  0.2837574976295303  0.2602150367929017  0.5172435795313095  1.0000
  C   C8        1.0  0.2104467569749996  0.2174048393195782  0.503864222048922  1.0000
  C   C9        1.0  0.1472077990999855  0.30184505628814984  0.5301599396067704  1.0000
  N   N2        1.0  0.0963766662291175  0.36972914850295147  0.5513009705278746  1.0000
  C   C10       1.0  0.1987409398982491  0.09258770798958271  0.46452749524364556  1.0000
  C   C11       1.0  0.2600719968199984  0.010824897789298626  0.4385870654008883  1.0000
  C   C12       1.0  0.3332633565323517  0.05324061140901537  0.4517639175776793  1.0000
  C   C13       1.0  0.4424850405070821  0.29551083699524483  0.6106789309790561  1.0000
  C   C14       1.0  0.5157064041395408  0.33792764163257605  0.6239163518610868  1.0000
  H   H1        1.0  0.5953944427606409  0.21537398860646229  0.35557350503638263  1.0000
  H   H2        1.0  0.4669229817842169  0.14157291632896118  0.3309753698831599  1.0000
  H   H3        1.0  0.2922403787975607  0.3576719060522202  0.5461124117193055  1.0000
  H   H4        1.0  0.1422809604104201  0.05855460661099565  0.45393547774252907  1.0000
  H   H5        1.0  0.2508905137709094  0.9141884784831598  0.4085177514610956  1.0000
  H   H6        1.0  0.3799140678861523  0.9875008618825661  0.4327210535809387  1.0000
  H   H7        1.0  0.4008099132611569  0.3174359517633878  0.6836844062477427  1.0000
  H   H8        1.0  0.5291452044619233  0.3928069916105381  0.7057906304244062  1.0000
  C   C15       1.0  0.9017748535300094  0.9975826753891083  0.5541940111448476  1.0000
  C   C16       1.0  0.8800403044110168  0.9874076730941603  0.6859511463262091  1.0000
  C   C17       1.0  0.8689676224552673  0.8651184716930128  0.7526812117893775  1.0000
  C   C18       1.0  0.8799053278490653  0.7521317952073712  0.6858873406634192  1.0000
  C   C19       1.0  0.9016398435310531  0.7603145845936518  0.5541292734555223  1.0000
  C   C20       1.0  0.9124546541621958  0.8834866372995603  0.48902101042805346  1.0000
  C   C21       1.0  0.8459782777947028  0.8554077818300728  0.8920740517471273  1.0000
  C   C22       1.0  0.7911665550218987  0.76712551697741  0.937943585987643  1.0000
  C   C23       1.0  0.7695972342352451  0.7582565819350554  0.06899927420782781  1.0000
  C   C24       1.0  0.8023537835478531  0.837023894138099  0.15586723685024317  1.0000
  C   C25       1.0  0.857365684722741  0.9259052055000971  0.11186647686119244  1.0000
  C   C26       1.0  0.8787020559589047  0.934424146920173  0.9802875041855772  1.0000
  O   O1        1.0  0.892099778846595  0.006934461029290961  0.19522568714266508  1.0000
  C   C27       1.0  0.8760060307463735  0.008634088611197521  0.33079813515415113  1.0000
  H   H9        1.0  0.910089527805025  0.32890970104995687  0.5040096966912033  1.0000
  H   H10       1.0  0.8706763390620439  0.0748625902476292  0.7365173569773864  1.0000
  H   H11       1.0  0.8724207826565017  0.657570908846464  0.737365102899884  1.0000
  H   H12       1.0  0.9292225187094191  0.8905677978078447  0.3873759388710287  1.0000
  H   H13       1.0  0.9098843032014308  0.4359829129909487  0.503908353591592  1.0000
  H   H14       1.0  0.7642893953838752  0.7061899766188513  0.8721280879905793  1.0000
  H   H15       1.0  0.7271708299245226  0.6902868054424502  0.10330037967083161  1.0000
  H   H16       1.0  0.7845593993713776  0.8280873370075875  0.25679503168558415  1.0000
  H   H17       1.0  0.9217347666501802  0.0019385286400694923  0.9474903676678927  1.0000
  H   H18       1.0  0.888988322658719  0.9114746562838875  0.3812304324014232  1.0000
  H   H19       1.0  0.9114615445406887  0.08158034286289984  0.3724925526644338  1.0000
  H   H20       1.0  0.816034034495356  0.0363822019047928  0.3461132089881862  1.0000
  C   C28       1.0  0.9016715609218913  0.3790566574336014  0.17279291345485692  1.0000
  C   C29       1.0  0.9698017173152096  0.4447111561656798  0.16545999827737234  1.0000
  C   C30       1.0  0.0043604760689235356  0.4778689279845354  0.04461348550845634  1.0000
  C   C31       1.0  0.9698742258814306  0.44449255838648183  0.9301891773938715  1.0000
  C   C32       1.0  0.9017431031021949  0.37884066533398  0.9355304505600377  1.0000
  C   C33       1.0  0.8680236477914297  0.346489518817779  0.05729470772667811  1.0000
  C   C34       1.0  0.07643699973637208  0.547324493564219  0.03790961296321704  1.0000
  C   C35       1.0  0.08829232982477153  0.6497677367389503  0.11752883995925822  1.0000
  C   C36       1.0  0.15616631186251873  0.7150387561205644  0.11103114035344253  1.0000
  C   C37       1.0  0.21295509016737757  0.6788770305785861  0.025213130192792033  1.0000
  C   C38       1.0  0.20181681813352137  0.5772592752348933  0.9457121068093044  1.0000
  C   C39       1.0  0.13401020994397594  0.5117847417176997  0.9518332045835467  1.0000
  Cl  Cl1       1.0  0.2980681946834145  0.7608940613080375  0.017297727563440946  1.0000
  H   H21       1.0  0.8756907290518501  0.3540972508823932  0.5030363454528215  1.0000
  H   H22       1.0  0.9966762406265314  0.4686371827627607  0.25404445662770514  1.0000
  H   H23       1.0  0.9957586189504191  0.4714070775541799  0.8366975287004537  1.0000
  H   H24       1.0  0.8154639114843614  0.2958412367754124  0.06218351835039626  1.0000
  H   H25       1.0  0.875796336872467  0.3537776753336912  0.6101156393254712  1.0000
  H   H26       1.0  0.04473476514136032  0.6804848246787003  0.18353909176408822  1.0000
  H   H27       1.0  0.16445922816484138  0.7939196603186471  0.1725362040993259  1.0000
  H   H28       1.0  0.24571684570011776  0.5486731041671482  0.8793530696383378  1.0000
  H   H29       1.0  0.12696433986884936  0.4323044685348494  0.8905294338169254  1.0000
  Zn  Zn1       1.0  0.8193876280999425  0.3828509112640184  0.5553708566879763  1.0000
  Zn  Zn2       1.0  0.9840198527684422  0.37504609598981586  0.5529519835900272  1.0000
  C   C40       1.0  0.9017288270935171  0.37370783962108445  0.7913571608704721  1.0000
  C   C41       1.0  0.9016804512754989  0.38419072099668505  0.31696578032093004  1.0000
  C   C42       1.0  0.9016609922122849  0.6161436918742302  0.5489664357537072  1.0000
  C   C43       1.0  0.9017482302619902  0.1417533110762148  0.559356575634024  1.0000
  O   O2        1.0  0.9641605072360898  0.3829462071354599  0.36443356222251677  1.0000
  O   O3        1.0  0.9642008204643231  0.36902769965844406  0.7420531364936749  1.0000
  O   O4        1.0  0.964145200845713  0.5647977559178678  0.5463209232673434  1.0000
  O   O5        1.0  0.9642160706660944  0.18717616285714156  0.5601656788988314  1.0000
  O   O6        1.0  0.8391913540213912  0.5707208470615088  0.5481571621977834  1.0000
  O   O7        1.0  0.8392469733538428  0.3749523511342261  0.7438893060463971  1.0000
  O   O8        1.0  0.8392066600371134  0.38887081379488775  0.36626817037832127  1.0000
  O   O9        1.0  0.839262223474824  0.19310076020028033  0.562000384423265  1.0000
