data_image0
_chemical_formula_structural       NC11NC3H8C13OH12C12BrH9Zn2C4O8
_chemical_formula_sum              "N2 C43 H29 O9 Br1 Zn2"
_cell_length_a       17.807433833752565
_cell_length_b       10.299150109392551
_cell_length_c       10.299148005577397
_cell_angle_alpha    85.53215182685325
_cell_angle_beta     88.49799670841169
_cell_angle_gamma    90.66566965777596

_space_group_name_H-M_alt    "P 1"
_space_group_IT_number       1

loop_
  _space_group_symop_operation_xyz
  'x, y, z'

loop_
  _atom_site_type_symbol
  _atom_site_label
  _atom_site_symmetry_multiplicity
  _atom_site_fract_x
  _atom_site_fract_y
  _atom_site_fract_z
  _atom_site_occupancy
  N   N1        1.0  0.7075376091525779  0.43879526836350435  0.5340815608841734  1.0000
  C   C1        1.0  0.6567067953782606  0.40405631541606835  0.6006595001961181  1.0000
  C   C2        1.0  0.5934681391561804  0.360843921866439  0.6834739609581721  1.0000
  C   C3        1.0  0.6051742668521786  0.2972711998828086  0.8062209607481778  1.0000
  C   C4        1.0  0.5438433023632502  0.2557390367914798  0.8867507911266612  1.0000
  C   C5        1.0  0.47065174949493105  0.2774662109601369  0.845174560275959  1.0000
  C   C6        1.0  0.45796892273611484  0.3411935626288132  0.7219672848040768  1.0000
  C   C7        1.0  0.3802096468552504  0.3642513580391642  0.6776097932432075  1.0000
  C   C8        1.0  0.3614638105745083  0.34739671159861585  0.5480278857446756  1.0000
  C   C9        1.0  0.2882423341349111  0.3690851613411612  0.5064075940898898  1.0000
  C   C10       1.0  0.2328237802701029  0.4079469275312897  0.5935487810746696  1.0000
  C   C11       1.0  0.157465824046683  0.43029408832507055  0.550566894058782  1.0000
  N   N2        1.0  0.0968834001574361  0.44825954540186763  0.5160125851227408  1.0000
  C   C12       1.0  0.2508781559239814  0.4250122435098751  0.7225994528359785  1.0000
  C   C13       1.0  0.3240468088818674  0.4032888241240573  0.7644752000920885  1.0000
  C   C14       1.0  0.5201571955709092  0.38272115807088536  0.6414538727337344  1.0000
  H   H1        1.0  0.6616343707823861  0.2798506068980442  0.839594314530913  1.0000
  H   H2        1.0  0.5530252537740411  0.20626939549952095  0.9815091198249124  1.0000
  H   H3        1.0  0.42400194184649115  0.24289845138425825  0.9086289816830342  1.0000
  H   H4        1.0  0.4031663826713165  0.3157625712112868  0.4793182895643071  1.0000
  H   H5        1.0  0.2748301471325741  0.3552179582223869  0.4063721716236979  1.0000
  H   H6        1.0  0.2084591645168266  0.45542334384091476  0.7907946683979485  1.0000
  H   H7        1.0  0.3369303258697511  0.418701574270272  0.8643273311960822  1.0000
  H   H8        1.0  0.5116734065529911  0.43355321600097896  0.5469294089307559  1.0000
  C   C15       1.0  0.9022848631977404  0.06212954683446781  0.5251877312093891  1.0000
  C   C16       1.0  0.9008642901399486  0.05027053841719864  0.662070800568145  1.0000
  C   C17       1.0  0.9000787316503388  0.9271216213025014  0.7312127458067208  1.0000
  C   C18       1.0  0.9007195417663245  0.8150117290113411  0.6617141061281389  1.0000
  C   C19       1.0  0.9021433242096413  0.8249153964382095  0.524917290847339  1.0000
  C   C20       1.0  0.902919730694471  0.9489344498689456  0.45745343749151846  1.0000
  C   C21       1.0  0.8985694003243987  0.9155577401534729  0.8759296890487427  1.0000
  C   C22       1.0  0.8523554609321286  0.8215440327813668  0.9460990166776115  1.0000
  C   C23       1.0  0.8509102918764382  0.8107432364541645  0.08227867073941497  1.0000
  C   C24       1.0  0.8961456865667203  0.8928084871624785  0.15072795486473733  1.0000
  C   C25       1.0  0.9416406988309262  0.9877582580096764  0.08123459342204198  1.0000
  C   C26       1.0  0.9431033069567073  0.9987352753227331  0.9450538413091085  1.0000
  C   C27       1.0  0.8930131473701114  0.8835182143671656  0.29696645109856723  1.0000
  O   O1        1.0  0.8368513354790882  0.9653224639531646  0.339815389999926  1.0000
  H   H9        1.0  0.9044781782436316  0.2917949525145114  0.2668371745863303  1.0000
  H   H10       1.0  0.8993240486732844  0.13699728310657422  0.715153343509876  1.0000
  H   H11       1.0  0.9011339882066918  0.7198900400206275  0.7145308637115926  1.0000
  H   H12       1.0  0.9040158108738914  0.9572896017896063  0.35193805923702737  1.0000
  H   H13       1.0  0.9026403952730244  0.50124799711736  0.4723027846444434  1.0000
  H   H14       1.0  0.8164412566273058  0.7576715945496145  0.8956546112338666  1.0000
  H   H15       1.0  0.8143513054020853  0.7385160316801521  0.13435324831419548  1.0000
  H   H16       1.0  0.9761708743985144  0.0531498913906594  0.132489470552546  1.0000
  H   H17       1.0  0.9796872482321495  0.07140837717223292  0.8937847866915773  1.0000
  H   H18       1.0  0.9482633739108577  0.9126833287021074  0.3345742497480515  1.0000
  H   H19       1.0  0.8807941151268863  0.7811932115030327  0.33534787486622586  1.0000
  H   H20       1.0  0.837103643432305  0.9556342736473521  0.4364348911390984  1.0000
  C   C28       1.0  0.9023164838411213  0.4435770290475485  0.14365953464990588  1.0000
  C   C29       1.0  0.8316398199826628  0.502643777519606  0.1414804335058506  1.0000
  C   C30       1.0  0.7956994683342846  0.5325360408472992  0.0232422448732561  1.0000
  C   C31       1.0  0.8313890973574037  0.5025648719825344  0.9062150607415989  1.0000
  C   C32       1.0  0.9021116898508049  0.4434679705951474  0.9064454300889473  1.0000
  C   C33       1.0  0.937139755328725  0.41433596914967197  0.02561149926860118  1.0000
  C   C34       1.0  0.7209326244288217  0.5950234773343721  0.02198190947616596  1.0000
  C   C35       1.0  0.7051331901491601  0.6959654365406902  0.10275635038804665  1.0000
  C   C36       1.0  0.6347287174534687  0.75466791417233  0.1013769137570173  1.0000
  C   C37       1.0  0.5793233789461268  0.7133741523216242  0.01959806320249613  1.0000
  C   C38       1.0  0.5943681106600047  0.613200777330513  0.9390058958744683  1.0000
  C   C39       1.0  0.6647087532250839  0.5542747645971393  0.9399958369391874  1.0000
  Br  Br1       1.0  0.4831950608358548  0.7937148421534415  0.017978983669583615  1.0000
  H   H21       1.0  0.9295171055850785  0.42091047430349704  0.4719684684623875  1.0000
  H   H22       1.0  0.8039136178941635  0.5239178303910543  0.23209870894682116  1.0000
  H   H23       1.0  0.8044039970812447  0.5270059169765693  0.8146418132375057  1.0000
  H   H24       1.0  0.9916555169193209  0.3687802770235471  0.026576200670625827  1.0000
  H   H25       1.0  0.035806508985816166  0.33266606246285146  0.699521347292615  1.0000
  H   H26       1.0  0.7475170526931165  0.7306155567683885  0.16568474079040807  1.0000
  H   H27       1.0  0.6233692591900412  0.8324644765544023  0.16368023820072652  1.0000
  H   H28       1.0  0.5515394299954648  0.5806920058360556  0.875790366202919  1.0000
  H   H29       1.0  0.6748112340135232  0.4757583000447647  0.8779521915564343  1.0000
  Zn  Zn1       1.0  0.8198943925387094  0.44152297830362786  0.5288747310137349  1.0000
  Zn  Zn2       1.0  0.9845266011392558  0.44552121354786967  0.5212300054400247  1.0000
  C   C40       1.0  0.9021496937993242  0.4383144650019608  0.762264502980647  1.0000
  C   C41       1.0  0.9022730973189383  0.44873140923621224  0.28784027688638303  1.0000
  C   C42       1.0  0.9021675999655567  0.6807333187999483  0.519793072950288  1.0000
  C   C43       1.0  0.9022551352461965  0.20631099364267302  0.5303117793216314  1.0000
  O   O2        1.0  0.964735602633088  0.4519729095789504  0.3333275195829586  1.0000
  O   O3        1.0  0.9646392257651654  0.4381065529531254  0.7109747169383327  1.0000
  O   O4        1.0  0.9646528426375778  0.6338628225526888  0.5151773602936209  1.0000
  O   O5        1.0  0.9647219296072743  0.2562166479199135  0.529124781452194  1.0000
  O   O6        1.0  0.8396990078898  0.6308275425685974  0.520979957603503  1.0000
  O   O7        1.0  0.8396853907430053  0.43507283340159986  0.7167772444452631  1.0000
  O   O8        1.0  0.8397817680884994  0.4489391449924993  0.3391284856044634  1.0000
  O   O9        1.0  0.8397680950351957  0.25318287402994977  0.5349258448511132  1.0000
