data_image0
_chemical_formula_structural       NC10NC3NH7C12OCH12C12SCH12Zn2C4O8
_chemical_formula_sum              "N3 C43 H31 O9 S1 Zn2"
_cell_length_a       19.210446455230148
_cell_length_b       10.29979075500242
_cell_length_c       10.299780138516091
_cell_angle_alpha    85.57237843546018
_cell_angle_beta     89.98277112440113
_cell_angle_gamma    89.92936594805748

_space_group_name_H-M_alt    "P 1"
_space_group_IT_number       1

loop_
  _space_group_symop_operation_xyz
  'x, y, z'

loop_
  _atom_site_type_symbol
  _atom_site_label
  _atom_site_symmetry_multiplicity
  _atom_site_fract_x
  _atom_site_fract_y
  _atom_site_fract_z
  _atom_site_occupancy
  N   N1        1.0  0.6553371260373896  0.4197756868617535  0.5673314904097893  1.0000
  C   C1        1.0  0.5951080184596713  0.42198322221428075  0.5675625392743269  1.0000
  C   C2        1.0  0.5203028867949601  0.4247201617506007  0.5678487799047058  1.0000
  C   C3        1.0  0.484662387799448  0.5409524992198944  0.5829551895984224  1.0000
  C   C4        1.0  0.4119968732837296  0.5411040194889416  0.5829025887442574  1.0000
  C   C5        1.0  0.375135951666768  0.4254291382366213  0.5679352305519845  1.0000
  C   C6        1.0  0.2978141687178747  0.4240726479481478  0.5677847000329006  1.0000
  C   C7        1.0  0.2600374832441705  0.527624351249617  0.5044218863067544  1.0000
  C   C8        1.0  0.1872594834006013  0.5262221177580386  0.504312873332482  1.0000
  C   C9        1.0  0.1512566964561295  0.4215256722618588  0.5675156694876011  1.0000
  C   C10       1.0  0.0763275084685644  0.42022357864946813  0.5673788994131523  1.0000
  N   N2        1.0  0.0160899231417874  0.41917665118647407  0.5672689711492451  1.0000
  C   C11       1.0  0.1883096943982357  0.3180996524276205  0.630853470957887  1.0000
  C   C12       1.0  0.2610896089546396  0.319227636485645  0.6310127382726216  1.0000
  C   C13       1.0  0.4133858433560755  0.31101709895792506  0.5531168986578319  1.0000
  N   N3        1.0  0.48415517146257314  0.31346207139884874  0.5532823556863338  1.0000
  H   H1        1.0  0.5127403839415757  0.6303876102301524  0.5949994535958549  1.0000
  H   H2        1.0  0.3847048350265543  0.6311213544807599  0.5963414843629136  1.0000
  H   H3        1.0  0.2867468999442431  0.6088626374904831  0.45343051702955894  1.0000
  H   H4        1.0  0.1590953488784721  0.6066330674974811  0.45465186519149503  1.0000
  H   H5        1.0  0.1609607433307446  0.23672529776814355  0.6804150378227805  1.0000
  H   H6        1.0  0.2886087698041025  0.23893625146973507  0.6821113972665986  1.0000
  H   H7        1.0  0.3871439060805066  0.2201368473040648  0.5396317927612377  1.0000
  C   C14       1.0  0.8357794023494903  0.038108330590795214  0.5673391699209778  1.0000
  C   C15       1.0  0.8156199355987596  0.027011905924260837  0.6987751210188116  1.0000
  C   C16       1.0  0.8053497436319045  0.9042530604579788  0.7653415767278045  1.0000
  C   C17       1.0  0.8154948820827944  0.7917298022348919  0.6987093604110703  1.0000
  C   C18       1.0  0.835654318001603  0.8008340119274096  0.5672724768436332  1.0000
  C   C19       1.0  0.8456853169476678  0.9244648098390144  0.5023240102211672  1.0000
  C   C20       1.0  0.7840264105444867  0.8935677685222225  0.9043946884531773  1.0000
  C   C21       1.0  0.7332327619844852  0.8027982882901828  0.9494671229745795  1.0000
  C   C22       1.0  0.7132265014945096  0.7930151070002712  0.08020405528153218  1.0000
  C   C23       1.0  0.7435634487557252  0.8733340696043742  0.16754323884458633  1.0000
  C   C24       1.0  0.794542274786635  0.9647128424397435  0.12434239805948732  1.0000
  C   C25       1.0  0.8143327776774794  0.9741350494201735  0.9930788259395356  1.0000
  O   O1        1.0  0.8267120965274046  0.04738242593668751  0.208201671117352  1.0000
  C   C26       1.0  0.8117785529176892  0.04842146930781155  0.3435345824011594  1.0000
  H   H8        1.0  0.8434914846938585  0.36978797723929024  0.5172777163459357  1.0000
  H   H9        1.0  0.8069355619524317  0.11406630466887746  0.7492032337952099  1.0000
  H   H10       1.0  0.8085517559154769  0.6968550990386513  0.7500762444804405  1.0000
  H   H11       1.0  0.8612380295337575  0.9322568352848872  0.40092672700145204  1.0000
  H   H12       1.0  0.843301348242284  0.476851720710285  0.5171734010524625  1.0000
  H   H13       1.0  0.7083400406446735  0.7405927168329446  0.8832647366279198  1.0000
  H   H14       1.0  0.6739104358251602  0.7231194419245577  0.11388822872643634  1.0000
  H   H15       1.0  0.7270597201879034  0.863639166791142  0.2682083880934166  1.0000
  H   H16       1.0  0.8542103808351399  0.043603980628030614  0.960907348164475  1.0000
  H   H17       1.0  0.8237993261671253  0.9518861340463157  0.3941529170248588  1.0000
  H   H18       1.0  0.8446234927714853  0.12301734612120407  0.38574140122461087  1.0000
  H   H19       1.0  0.7562085054909158  0.07342829848428756  0.3579790821047193  1.0000
  C   C27       1.0  0.8357448467907931  0.41935983595226056  0.185953732763122  1.0000
  C   C28       1.0  0.7695685449928209  0.3614583634879607  0.18946468922060045  1.0000
  C   C29       1.0  0.7360089293157455  0.33223353829791114  0.07409679692052018  1.0000
  C   C30       1.0  0.7695115193452535  0.36168389639602605  0.9541607829053782  1.0000
  C   C31       1.0  0.8356888595006533  0.41958254366282377  0.9486579882176698  1.0000
  C   C32       1.0  0.8684349177150296  0.44809707709783164  0.06507755505149837  1.0000
  C   C33       1.0  0.6659989945839423  0.27099366288031224  0.0788739025222136  1.0000
  C   C34       1.0  0.6144388275852006  0.3127401162589736  0.9879227216902082  1.0000
  C   C35       1.0  0.5485607405946712  0.2550710214924352  0.9926554417423437  1.0000
  C   C36       1.0  0.5332819056284304  0.15528691595578414  0.08822954257664306  1.0000
  C   C37       1.0  0.5842226889093051  0.11274256080016087  0.17877525011971795  1.0000
  C   C38       1.0  0.6501438692072271  0.1702381547402434  0.17440494567798637  1.0000
  S   S1        1.0  0.4487798381482643  0.08115629049925421  0.09385206224336828  1.0000
  C   C39       1.0  0.4130640777520337  0.19543046516744234  0.20257722751568652  1.0000
  H   H20       1.0  0.8609712058733626  0.44137540893195815  0.5120729094600323  1.0000
  H   H21       1.0  0.7435574849820852  0.3405793052128714  0.2820203721976109  1.0000
  H   H22       1.0  0.7442731123169292  0.3377244808911293  0.8650950452844217  1.0000
  H   H23       1.0  0.9194872795819052  0.4927648145614767  0.06160062956982881  1.0000
  H   H24       1.0  0.8608900263448319  0.44170300648722916  0.6191033261625232  1.0000
  H   H25       1.0  0.6247768926216664  0.39109050314363714  0.9142358252990661  1.0000
  H   H26       1.0  0.5093342362907547  0.2884693191337606  0.9223280222727341  1.0000
  H   H27       1.0  0.5728205934563091  0.035089913092281266  0.2525871346395916  1.0000
  H   H28       1.0  0.6889961910892674  0.1347894968705159  0.24463179413709324  1.0000
  H   H29       1.0  0.4425000875604786  0.18935150397451306  0.2955867636458782  1.0000
  H   H30       1.0  0.3578276186838283  0.1703935131286629  0.22336134350556147  1.0000
  H   H31       1.0  0.4157382638292471  0.2961476979676019  0.1559766674671561  1.0000
  Zn  Zn1       1.0  0.7594425897704741  0.41959935625151346  0.5673209477412244  1.0000
  Zn  Zn2       1.0  0.9119844444237025  0.41934240238420095  0.5672901500511789  1.0000
  C   C40       1.0  0.8356987310911071  0.4143667796529895  0.8044909823550652  1.0000
  C   C41       1.0  0.8357299685772486  0.42457661482900844  0.33012024241868354  1.0000
  C   C42       1.0  0.8356747412748217  0.6566611415438834  0.5621101781702338  1.0000
  C   C43       1.0  0.8357539065925049  0.18228069274780023  0.5725011159859414  1.0000
  O   O2        1.0  0.8936138151045292  0.42622423509683727  0.37849215296861605  1.0000
  O   O3        1.0  0.8935906228555148  0.41252315751646584  0.7560953233270395  1.0000
  O   O4        1.0  0.8935704703070997  0.6081789206825843  0.5603711091029493  1.0000
  O   O5        1.0  0.8936339156063672  0.23056848128016494  0.5742162698320254  1.0000
  O   O6        1.0  0.777793066532761  0.6083732774446471  0.5603948279640569  1.0000
  O   O7        1.0  0.7778132188271571  0.4127190745579403  0.7561189728093998  1.0000
  O   O8        1.0  0.7778364112445177  0.42642010642650474  0.3785142411230207  1.0000
  O   O9        1.0  0.7778565117378847  0.23076434334948392  0.5742384553507902  1.0000
