data_image0
_chemical_formula_structural       NC10NC3NH7C12ClH9C12NCOH11Zn2C4O8
_chemical_formula_sum              "N4 C42 H27 Cl1 O9 Zn2"
_cell_length_a       19.210446455230148
_cell_length_b       10.299768534541528
_cell_length_c       10.299148425239203
_cell_angle_alpha    85.5385229165027
_cell_angle_beta     89.97590399293749
_cell_angle_gamma    89.96529235611058

_space_group_name_H-M_alt    "P 1"
_space_group_IT_number       1

loop_
  _space_group_symop_operation_xyz
  'x, y, z'

loop_
  _atom_site_type_symbol
  _atom_site_label
  _atom_site_symmetry_multiplicity
  _atom_site_fract_x
  _atom_site_fract_y
  _atom_site_fract_z
  _atom_site_occupancy
  N   N1        1.0  0.6559061623760073  0.4207694812720557  0.5673186773938652  1.0000
  C   C1        1.0  0.5956777820999783  0.4229768397901523  0.5675499906092121  1.0000
  C   C2        1.0  0.520873552170099  0.42571356023660467  0.5678365589610133  1.0000
  C   C3        1.0  0.4852711590907414  0.5419345269669793  0.5829572274530563  1.0000
  C   C4        1.0  0.4126056988798769  0.5420860830478074  0.5829046368278725  1.0000
  C   C5        1.0  0.3757068498392472  0.42642247135261147  0.5679230959237034  1.0000
  C   C6        1.0  0.2983846205246241  0.42506609571776743  0.5677724019766863  1.0000
  C   C7        1.0  0.2606468037351659  0.5286614746087135  0.504413409195853  1.0000
  C   C8        1.0  0.187868339489542  0.5272593270026935  0.5043042326698548  1.0000
  C   C9        1.0  0.1518263092852912  0.4225193257759534  0.5675030661490303  1.0000
  C   C10       1.0  0.0768966923370425  0.4212173368095351  0.567366140093349  1.0000
  N   N2        1.0  0.0166587621087842  0.42017049345777635  0.5672560864198053  1.0000
  C   C11       1.0  0.188840482395625  0.31904964701650695  0.630837057311574  1.0000
  C   C12       1.0  0.2616207659420894  0.3201775118550201  0.630996464466216  1.0000
  C   C13       1.0  0.4139192290855362  0.31202158866759966  0.5530907344906291  1.0000
  N   N3        1.0  0.4846893685129354  0.31446642860073526  0.5532564738456287  1.0000
  H   H1        1.0  0.5133784489370087  0.6313605941455318  0.5950125115329414  1.0000
  H   H2        1.0  0.3853430607316293  0.6320933934449482  0.5963547764549624  1.0000
  H   H3        1.0  0.28738679576735  0.6099349231233171  0.4534248892911783  1.0000
  H   H4        1.0  0.1597344169736309  0.6077045128504708  0.4546461386601497  1.0000
  H   H5        1.0  0.1614610018262678  0.2376411324470149  0.6803955948391003  1.0000
  H   H6        1.0  0.2891096629044466  0.2398508829821706  0.6820923884246273  1.0000
  H   H7        1.0  0.3876476045769828  0.2211513998404282  0.5395942863515606  1.0000
  C   C14       1.0  0.8362201344497435  0.03910471422377415  0.5672852721366994  1.0000
  C   C15       1.0  0.8408235472645237  0.04871973295522447  0.43080610158477683  1.0000
  C   C16       1.0  0.8432230524194132  0.9364522580104981  0.361658398210005  1.0000
  C   C17       1.0  0.8409564933711687  0.8134317883082048  0.4308215695454094  1.0000
  C   C18       1.0  0.8363514430106298  0.8018252432839389  0.5673006783274592  1.0000
  C   C19       1.0  0.834009564717001  0.9152190957973461  0.6347682455993962  1.0000
  C   C20       1.0  0.8480940049554314  0.9476778125531127  0.2172748130652078  1.0000
  C   C21       1.0  0.8085033564354192  0.04131470503485524  0.14281272519235189  1.0000
  C   C22       1.0  0.8131500561144589  0.05168461565996618  0.0069227662071673635  1.0000
  C   C23       1.0  0.857320415647511  0.9689405860057417  0.9438029317947318  1.0000
  C   C24       1.0  0.8968998649568517  0.8756165873467913  0.016753696495432013  1.0000
  C   C25       1.0  0.8923767793469628  0.8648542141326707  0.15265827830945922  1.0000
  Cl  Cl1       1.0  0.8630728306082639  0.9821973539697124  0.7733051361612486  1.0000
  H   H8        1.0  0.8344302915981655  0.3628947297337659  0.6192873073330953  1.0000
  H   H9        1.0  0.8435145415454927  0.1437496447133093  0.378069395313261  1.0000
  H   H10       1.0  0.8418309230819241  0.7266186497481122  0.37787160840211853  1.0000
  H   H11       1.0  0.8304575386636877  0.9070333639065385  0.7400556432807357  1.0000
  H   H12       1.0  0.834624418298511  0.4699488123953132  0.619310504146265  1.0000
  H   H13       1.0  0.773301491846073  0.10532955949606038  0.1895655349352745  1.0000
  H   H14       1.0  0.7822515899026911  0.1238732564088958  0.9508124842761867  1.0000
  H   H15       1.0  0.9313256551034987  0.8115571115155308  0.9683114265043682  1.0000
  H   H16       1.0  0.9241587620109134  0.7929580392879338  0.20727399836159055  1.0000
  C   C26       1.0  0.8363381687213639  0.4206207515341631  0.1858967791188968  1.0000
  C   C27       1.0  0.9069694404881542  0.45606205386245047  0.1819158151796465  1.0000
  C   C28       1.0  0.9426703666813593  0.47381751794163995  0.06276526091883716  1.0000
  C   C29       1.0  0.9068226383381355  0.4557221503421487  0.946658678754873  1.0000
  C   C30       1.0  0.8362333928424687  0.42030925164282307  0.9486891798262995  1.0000
  C   C31       1.0  0.8014052830641678  0.4029572030772275  0.06881397605392259  1.0000
  C   C32       1.0  0.017347710123556404  0.5112859678599229  0.059646547819884876  1.0000
  C   C33       1.0  0.06411258048290835  0.4538379191874715  0.9760392290619073  1.0000
  C   C34       1.0  0.13435026536121342  0.4892343247863551  0.9732536473828226  1.0000
  C   C35       1.0  0.15946738458756515  0.581464717762888  0.05476014786536654  1.0000
  C   C36       1.0  0.11263375023837274  0.6407590787468727  0.13679911935152633  1.0000
  C   C37       1.0  0.042364625977728165  0.6054693928980777  0.13968154989173942  1.0000
  N   N4        1.0  0.2317656311802172  0.6175513101720724  0.048212939961548074  1.0000
  C   C38       1.0  0.2718117899117496  0.6541575111218034  0.15693683448545293  1.0000
  O   O1        1.0  0.24825629815239125  0.6400342094330203  0.2713008098809877  1.0000
  H   H17       1.0  0.7031357408476785  0.35296297871215443  0.4007634878638753  1.0000
  H   H18       1.0  0.934589331419755  0.468211498371057  0.2718376750368974  1.0000
  H   H19       1.0  0.9338333898358709  0.471068840306601  0.8544214073068255  1.0000
  H   H20       1.0  0.7469588470413131  0.3756388124492962  0.07109524764232722  1.0000
  H   H21       1.0  0.8090849086026897  0.4066521992606993  0.621997026136115  1.0000
  H   H22       1.0  0.04654999152649797  0.38035799902260803  0.9138679402165737  1.0000
  H   H23       1.0  0.16951455076340527  0.4436384303864358  0.9082917093804421  1.0000
  H   H24       1.0  0.12980169613151538  0.7164041714335057  0.19656391193682854  1.0000
  H   H25       1.0  0.007282936868569179  0.6537313782355192  0.20275095360263906  1.0000
  H   H26       1.0  0.2585363526681521  0.6085676301477243  0.9610250399138258  1.0000
  H   H27       1.0  0.3240850152942789  0.691110141624266  0.14110464535097567  1.0000
  Zn  Zn1       1.0  0.7600115675078695  0.42059315924464635  0.5673081145247261  1.0000
  Zn  Zn2       1.0  0.9125533377542796  0.42033622869493636  0.5672772856132515  1.0000
  C   C39       1.0  0.8362507602269174  0.4151945034775828  0.8045050080635976  1.0000
  C   C40       1.0  0.836315811051195  0.4257365202082246  0.3300805192465024  1.0000
  C   C41       1.0  0.8363237449468953  0.6576569826160203  0.5621222616541357  1.0000
  C   C42       1.0  0.8362427740012609  0.18327248084148362  0.5724633348784616  1.0000
  O   O2        1.0  0.8941971134679007  0.42735024941637034  0.37845820004204  1.0000
  O   O3        1.0  0.8941451317336288  0.4133847903666956  0.7561035549449351  1.0000
  O   O4        1.0  0.8942032872637395  0.6091763093904465  0.5603777725062231  1.0000
  O   O5        1.0  0.8941389059005914  0.2315587398101937  0.5741838851098204  1.0000
  O   O6        1.0  0.7784259473065391  0.6093706482184829  0.5604015150318455  1.0000
  O   O7        1.0  0.7783677920513662  0.41358068951213034  0.7561272282517493  1.0000
  O   O8        1.0  0.7784197740386133  0.4275461039438686  0.37848031183545316  1.0000
  O   O9        1.0  0.778361566453484  0.23175458500921198  0.5742060942778544  1.0000
