data_image0
_chemical_formula_structural       NC11NC3H8C12BrH9C12OCH12Zn2C4O8
_chemical_formula_sum              "N2 C43 H29 Br1 O9 Zn2"
_cell_length_a       17.807433833752565
_cell_length_b       10.299144633409057
_cell_length_c       10.299794127170987
_cell_angle_alpha    85.56673362329126
_cell_angle_beta     88.5176554422573
_cell_angle_gamma    90.65887280956916

_space_group_name_H-M_alt    "P 1"
_space_group_IT_number       1

loop_
  _space_group_symop_operation_xyz
  'x, y, z'

loop_
  _atom_site_type_symbol
  _atom_site_label
  _atom_site_symmetry_multiplicity
  _atom_site_fract_x
  _atom_site_fract_y
  _atom_site_fract_z
  _atom_site_occupancy
  N   N1        1.0  0.7071389743201828  0.4381311266837724  0.5344878698440831  1.0000
  C   C1        1.0  0.6563240826485278  0.4034218963965188  0.6010526984138995  1.0000
  C   C2        1.0  0.5931052316022983  0.3602464740659639  0.6838508508118788  1.0000
  C   C3        1.0  0.604840680414459  0.2967285436972247  0.8065737616165856  1.0000
  C   C4        1.0  0.5435289399187989  0.2552323248576047  0.8870878187392011  1.0000
  C   C5        1.0  0.4703274417071976  0.27694093749681703  0.8455197810755113  1.0000
  C   C6        1.0  0.4576151898572108  0.3406132932997068  0.7223366702976424  1.0000
  C   C7        1.0  0.3798453120944535  0.36365128726771623  0.677987898570289  1.0000
  C   C8        1.0  0.36107451023759934  0.3467400075654483  0.5484167643446829  1.0000
  C   C9        1.0  0.28784308231882194  0.3684098769971247  0.5068046637808354  1.0000
  C   C10       1.0  0.23243935414839373  0.40730933144648374  0.5939434110464603  1.0000
  C   C11       1.0  0.1570711245104295  0.429637304812015  0.5509699742196073  1.0000
  N   N2        1.0  0.0964804415459974  0.4475873365934486  0.5164224586146486  1.0000
  C   C12       1.0  0.2505185730772566  0.42443104448305946  0.7229834025363335  1.0000
  C   C13       1.0  0.323697231594562  0.40272631803615067  0.7648509255590752  1.0000
  C   C14       1.0  0.5197842423399737  0.38210495176216774  0.6418390289480869  1.0000
  H   H1        1.0  0.661308766081841  0.27932284981656363  0.8399405421740362  1.0000
  H   H2        1.0  0.5527335546759471  0.20580498729706287  0.9818274826511184  1.0000
  H   H3        1.0  0.4236929131938319  0.24240152714316698  0.908961452226589  1.0000
  H   H4        1.0  0.402765463242526  0.31507616480718714  0.4797089186556327  1.0000
  H   H5        1.0  0.2744116832622537  0.3544989661146243  0.40677740877109403  1.0000
  H   H6        1.0  0.2081111841112248  0.45487163902782735  0.7911767085607706  1.0000
  H   H7        1.0  0.3365998134005939  0.4181826732367826  0.8646951783924488  1.0000
  H   H8        1.0  0.5112777400397097  0.43289478898695166  0.5473334429974659  1.0000
  C   C15       1.0  0.901911294713095  0.06146692627385453  0.5255292319723004  1.0000
  C   C16       1.0  0.86988159942885  0.06959356221569823  0.40206052270515147  1.0000
  C   C17       1.0  0.85354074805211  0.9565749568881434  0.3393880141848158  1.0000
  C   C18       1.0  0.8696617998938834  0.8343225840770876  0.40184948850468816  1.0000
  C   C19       1.0  0.9017153119977512  0.8242417491175241  0.5253919487526395  1.0000
  C   C20       1.0  0.9176418257435094  0.9383208655675143  0.5864724161984594  1.0000
  C   C21       1.0  0.8196583636528264  0.9662171619014344  0.2087720774265016  1.0000
  C   C22       1.0  0.8448084256928754  0.062108754726933224  0.11214213859435729  1.0000
  C   C23       1.0  0.8128516832362128  0.07097544975610415  0.9892565831365117  1.0000
  C   C24       1.0  0.7554841658605651  0.9844828534515238  0.9613850529480188  1.0000
  C   C25       1.0  0.730042867563714  0.8889035788760177  0.05658801277655878  1.0000
  C   C26       1.0  0.7618686965116225  0.8796164033218886  0.1795799167503349  1.0000
  Br  Br1       1.0  0.7119213165148126  0.9968811696034299  0.7934510268995041  1.0000
  H   H9        1.0  0.9142625199975453  0.38581922549514314  0.57299560126522  1.0000
  H   H10       1.0  0.8566176616967243  0.16397772822661238  0.3551171869829386  1.0000
  H   H11       1.0  0.8581279888807332  0.7469600388769101  0.35322186090022933  1.0000
  H   H12       1.0  0.9423494846081811  0.9313370163893329  0.6817050553267394  1.0000
  H   H13       1.0  0.9626468531666528  0.5979586931675889  0.7582177758387043  1.0000
  H   H14       1.0  0.8898206542636578  0.12909037532855305  0.13105470325169  1.0000
  H   H15       1.0  0.8328568874823147  0.14491024499264382  0.9156736087129378  1.0000
  H   H16       1.0  0.6854807352425442  0.8219583401130529  0.03550605951765551  1.0000
  H   H17       1.0  0.7406418810941899  0.8058660278818233  0.2523597552397594  1.0000
  C   C27       1.0  0.9018386667269045  0.4427414547239463  0.1441080018201193  1.0000
  C   C28       1.0  0.8282353196676202  0.3918279030422471  0.15033927464235308  1.0000
  C   C29       1.0  0.790919236210612  0.36613169711566784  0.03635078212535747  1.0000
  C   C30       1.0  0.8281841870794853  0.39205314278616865  0.9150367120964864  1.0000
  C   C31       1.0  0.9017879546523674  0.4429672121425394  0.9068131578300833  1.0000
  C   C32       1.0  0.938203807687942  0.46802340872146986  0.021887632474968388  1.0000
  C   C33       1.0  0.7130532171024755  0.31226100028252946  0.04399771415068909  1.0000
  C   C34       1.0  0.6592592518131014  0.35962474899317165  0.9553360970654228  1.0000
  C   C35       1.0  0.586077308891952  0.3089140894242226  0.9627923982489275  1.0000
  C   C36       1.0  0.5656254713499643  0.21047703025671716  0.05844686110054553  1.0000
  C   C37       1.0  0.6186786438898011  0.16169060045183792  0.14800570290212378  1.0000
  C   C38       1.0  0.6919625440989097  0.21304332433077966  0.14009317242772013  1.0000
  O   O1        1.0  0.6010208885498511  0.06268239321595948  0.24566559895763262  1.0000
  C   C39       1.0  0.5290247422245348  0.001656328180731803  0.26505480749219523  1.0000
  H   H18       1.0  0.9298947060869973  0.4620836297335622  0.4691907248350966  1.0000
  H   H19       1.0  0.7993778363929356  0.3736970460543858  0.24395863257025052  1.0000
  H   H20       1.0  0.8000277541338637  0.37077349090447376  0.8270155969661817  1.0000
  H   H21       1.0  0.9949860124943962  0.5073002409919527  0.016312061545638468  1.0000
  H   H22       1.0  0.9298190046788906  0.4624285829323065  0.5762229479402223  1.0000
  H   H23       1.0  0.6735267869867484  0.43704243238021645  0.8813405862139518  1.0000
  H   H24       1.0  0.5449927368809535  0.34631414952001105  0.8943534800261612  1.0000
  H   H25       1.0  0.5085613007639306  0.1730545046581231  0.06193001221519667  1.0000
  H   H26       1.0  0.7327164065263934  0.173885097672428  0.20837400520578342  1.0000
  H   H27       1.0  0.5135528814371614  0.9528216324450074  0.17692147079413378  1.0000
  H   H28       1.0  0.5309743080403224  0.9272229691495018  0.3486505318438917  1.0000
  H   H29       1.0  0.4862174045417151  0.0748798440878331  0.2873038798525993  1.0000
  Zn  Zn1       1.0  0.8194945117167314  0.44085651196072617  0.5292820672214607  1.0000
  Zn  Zn2       1.0  0.9841248914135339  0.44485133420395107  0.5216388487090633  1.0000
  C   C40       1.0  0.9017971721926035  0.4377504841521198  0.7626465763973584  1.0000
  C   C41       1.0  0.9018240282667445  0.44795904439405754  0.28827438323551235  1.0000
  C   C42       1.0  0.9017488256422912  0.6800594212006106  0.5202431261722287  1.0000
  C   C43       1.0  0.9018723190365504  0.2056485456042878  0.5306779055852464  1.0000
  O   O2        1.0  0.9642954880381818  0.45122046328258314  0.33375737724197685  1.0000
  O   O3        1.0  0.9642763615999764  0.43752006301886115  0.7113621827383341  1.0000
  O   O4        1.0  0.96423647884798  0.6331875740633273  0.5156197204953861  1.0000
  O   O5        1.0  0.9643353146170718  0.2555529601369302  0.5294997447208667  1.0000
  O   O6        1.0  0.8392840323329249  0.6301548846659224  0.5214211738110812  1.0000
  O   O7        1.0  0.8393239146851592  0.43448893400090993  0.7171635665308504  1.0000
  O   O8        1.0  0.8393430412888239  0.44818928854498896  0.33955719970647946  1.0000
  O   O9        1.0  0.8393828678605515  0.252521776138698  0.5352996645508521  1.0000
