data_image0
_chemical_formula_structural       NC8NC6H8C12NH11C12SCH12Zn2C4O8
_chemical_formula_sum              "N3 C43 H31 S1 Zn2 O8"
_cell_length_a       17.457602349358154
_cell_length_b       10.299770795358612
_cell_length_c       10.299780138516091
_cell_angle_alpha    85.57228714023374
_cell_angle_beta     92.86764560524759
_cell_angle_gamma    91.70596819880058

_space_group_name_H-M_alt    "P 1"
_space_group_IT_number       1

loop_
  _space_group_symop_operation_xyz
  'x, y, z'

loop_
  _atom_site_type_symbol
  _atom_site_label
  _atom_site_symmetry_multiplicity
  _atom_site_fract_x
  _atom_site_fract_y
  _atom_site_fract_z
  _atom_site_occupancy
  N   N1        1.0  0.7228007756331885  0.45244072886566267  0.6264662184251659  1.0000
  C   C1        1.0  0.661715328519902  0.40651243106045154  0.6158544292101205  1.0000
  C   C2        1.0  0.5857224495487009  0.3493833457070412  0.6026629044888563  1.0000
  C   C3        1.0  0.5271950914584331  0.3895666724936906  0.6775538851879808  1.0000
  C   C4        1.0  0.45264063173830094  0.3345560276989823  0.6649766108295498  1.0000
  C   C5        1.0  0.3905224290152842  0.3769837708472694  0.7442890092392371  1.0000
  C   C6        1.0  0.315983636650582  0.3954362321678351  0.6885268967636313  1.0000
  C   C7        1.0  0.25745623346888447  0.43543566420238733  0.7635258394356077  1.0000
  C   C8        1.0  0.18147957519605454  0.45449334514936246  0.7055483309979282  1.0000
  N   N2        1.0  0.12040725727684412  0.469809340970859  0.6589345657277672  1.0000
  C   C9        1.0  0.2729754631912907  0.45722592214685487  0.8947953688986094  1.0000
  C   C10       1.0  0.3467295911425227  0.43916255879592425  0.9509450313851036  1.0000
  C   C11       1.0  0.4052453852506034  0.3993433122342207  0.8764037739431569  1.0000
  C   C12       1.0  0.4379021682119388  0.23868422598794958  0.5760755574727616  1.0000
  C   C13       1.0  0.4964178266426537  0.19877969392477945  0.5015845395562826  1.0000
  C   C14       1.0  0.5701874967623461  0.25390287180594395  0.5147117280771851  1.0000
  H   H1        1.0  0.5395474560831376  0.4647801461230634  0.7441757091905856  1.0000
  H   H2        1.0  0.3036441485166941  0.3804367473542607  0.586508591617851  1.0000
  H   H3        1.0  0.22811536799703222  0.4881255579654913  0.9536259928261048  1.0000
  H   H4        1.0  0.3585556823509284  0.45571959874517476  0.05258997893675588  1.0000
  H   H5        1.0  0.46172454209096725  0.38436468068895513  0.922509050448401  1.0000
  H   H6        1.0  0.3814101095317015  0.19334558656631828  0.5654276094024655  1.0000
  H   H7        1.0  0.4845795721376452  0.12468234005353218  0.43376437095588205  1.0000
  H   H8        1.0  0.6150474360380859  0.2221336834448262  0.456392268274856  1.0000
  C   C15       1.0  0.9215381568272881  0.07975361463500863  0.6427346052911385  1.0000
  C   C16       1.0  0.899281053615554  0.08791983076435916  0.5095125942311767  1.0000
  C   C17       1.0  0.8880735770803737  0.9749246234266444  0.4419786039509028  1.0000
  C   C18       1.0  0.8994214846152184  0.8526443325707053  0.5094555119860784  1.0000
  C   C19       1.0  0.9216771993977825  0.8424867641316899  0.6426779601902555  1.0000
  C   C20       1.0  0.9326112762732668  0.9565905359008174  0.7085713840813821  1.0000
  C   C21       1.0  0.8645271895841973  0.9846174259607758  0.3010374760252861  1.0000
  C   C22       1.0  0.8086665004266316  0.07334251477331066  0.25129078706757335  1.0000
  C   C23       1.0  0.7865375370547272  0.08233759193559687  0.11863862295038996  1.0000
  C   C24       1.0  0.8198504647583769  0.003008147515962456  0.03361890344541085  1.0000
  C   C25       1.0  0.8755271233410141  0.9144728519701275  0.0824600457054041  1.0000
  C   C26       1.0  0.8977175481048462  0.9052244254505651  0.21508725705851273  1.0000
  N   N3        1.0  0.797182713809894  0.012338908102043966  0.8979383706523594  1.0000
  H   H9        1.0  0.9299865136143785  0.40409274595300326  0.6935128347572437  1.0000
  H   H10       1.0  0.8916262459303305  0.18247637519740145  0.4575375688966834  1.0000
  H   H11       1.0  0.8898407710961412  0.7651827642594506  0.45826327917213994  1.0000
  H   H12       1.0  0.9497810400412537  0.9495226084602139  0.8113462161875222  1.0000
  H   H13       1.0  0.9301910153690073  0.5111652719036878  0.6934299150206247  1.0000
  H   H14       1.0  0.7813696606173606  0.13457973910293775  0.31526199990719816  1.0000
  H   H15       1.0  0.7432857022679528  0.15092017919715084  0.0821966063624866  1.0000
  H   H16       1.0  0.9018752043634187  0.8528484353864181  0.01772211552274383  1.0000
  H   H17       1.0  0.9415576518329413  0.8371774040231154  0.25013783339652607  1.0000
  H   H18       1.0  0.8216892822548657  0.9535955952182954  0.8338029145964052  1.0000
  H   H19       1.0  0.7557266998720604  0.07805963621357992  0.8606198779283227  1.0000
  C   C27       1.0  0.9216384978947714  0.4610102275511905  0.2613567143822728  1.0000
  C   C28       1.0  0.848680712077613  0.399811752088588  0.2588986038810299  1.0000
  C   C29       1.0  0.8116820908162459  0.36891493879355264  0.14050365610247217  1.0000
  C   C30       1.0  0.8486179426724512  0.4000344488262373  0.023589561585730667  1.0000
  C   C31       1.0  0.9215768718981162  0.46123015075699225  0.024055927411609  1.0000
  C   C32       1.0  0.9576785661240115  0.49137613966673266  0.1434291673197361  1.0000
  C   C33       1.0  0.7344978223805196  0.304187063296669  0.13896590355289695  1.0000
  C   C34       1.0  0.677685512051163  0.3433662672658784  0.04336645244840409  1.0000
  C   C35       1.0  0.6050564905427477  0.2824150265004517  0.04215700355925733  1.0000
  C   C36       1.0  0.5881805650969874  0.18186815860112837  0.13635054491490295  1.0000
  C   C37       1.0  0.6443099267924117  0.14186018964087155  0.23148864749251397  1.0000
  C   C38       1.0  0.7169863809532068  0.20264007277038232  0.23306439307860116  1.0000
  S   S1        1.0  0.4950189913106883  0.1035275094160788  0.13435101792887783  1.0000
  C   C39       1.0  0.4556960595317489  0.2160248776136191  0.2398587105590404  1.0000
  H   H20       1.0  0.9494499333645691  0.4842826147134489  0.589751293571716  1.0000
  H   H21       1.0  0.82000482459044  0.3776368173027438  0.349108155748012  1.0000
  H   H22       1.0  0.8207925226784336  0.3748175842644865  0.9322472806861946  1.0000
  H   H23       1.0  0.013962570504848504  0.5385873826523744  0.14455713749394095  1.0000
  H   H24       1.0  0.9493605796163231  0.48460617492219815  0.696774399072444  1.0000
  H   H25       1.0  0.689108144468897  0.4222329534439804  0.9706139822069226  1.0000
  H   H26       1.0  0.5618347982705819  0.3138602135681974  0.9682932683140413  1.0000
  H   H27       1.0  0.631714817720415  0.06363826021421115  0.3042701764390987  1.0000
  H   H28       1.0  0.759794920494658  0.16912585228238952  0.3067937580739257  1.0000
  H   H29       1.0  0.4881369959309178  0.2114118925664732  0.3355224687052689  1.0000
  H   H30       1.0  0.3948076451900405  0.18823637920941727  0.2556611789564649  1.0000
  H   H31       1.0  0.4586800049407074  0.31687710443598816  0.19350211194079936  1.0000
  Zn  Zn1       1.0  0.8375414162542677  0.457449454571877  0.6358433804488302  1.0000
  Zn  Zn2       1.0  0.005666599605528511  0.4647899704364429  0.6495680364829615  1.0000
  C   C40       1.0  0.9215858581873015  0.45601478499003245  0.8798896658525981  1.0000
  C   C41       1.0  0.921623993882696  0.46622635884420194  0.4055220282904126  1.0000
  C   C42       1.0  0.9216473910989234  0.6983122917998625  0.637513474528062  1.0000
  C   C43       1.0  0.9215624033116562  0.22392728923611882  0.6478982842825844  1.0000
  O   O1        1.0  0.9854217560609079  0.4707569618905205  0.45911366046311297  1.0000
  O   O2        1.0  0.9853912198723622  0.45705448379985203  0.8367143562884847  1.0000
  O   O3        1.0  0.9854400482775854  0.6527127476559367  0.6409937966287369  1.0000
  O   O4        1.0  0.9853728702955109  0.27509870479182585  0.6548341180691415  1.0000
  O   O5        1.0  0.8578350881914126  0.6471407177129473  0.6305772941722676  1.0000
  O   O6        1.0  0.8577862600727346  0.45148401415156947  0.8262977844739974  1.0000
  O   O7        1.0  0.8578167964302276  0.4651864465379971  0.4486955273345725  1.0000
  O   O8        1.0  0.8577679106521316  0.26952818017836644  0.644416082303938  1.0000
