data_image0
_chemical_formula_structural       NC11NC3H8C16H10C12IH9Zn2C4O8
_chemical_formula_sum              "N2 C46 H27 I1 Zn2 O8"
_cell_length_a       17.807433833752565
_cell_length_b       10.29914801576943
_cell_length_c       10.29977335064465
_cell_angle_alpha    85.52085607386434
_cell_angle_beta     88.53399239926371
_cell_angle_gamma    90.69784511463686

_space_group_name_H-M_alt    "P 1"
_space_group_IT_number       1

loop_
  _space_group_symop_operation_xyz
  'x, y, z'

loop_
  _atom_site_type_symbol
  _atom_site_label
  _atom_site_symmetry_multiplicity
  _atom_site_fract_x
  _atom_site_fract_y
  _atom_site_fract_z
  _atom_site_occupancy
  N   N1        1.0  0.7074753031749121  0.4390080164657275  0.5340765705829527  1.0000
  C   C1        1.0  0.6566572942745935  0.40425978289786  0.600652554386425  1.0000
  C   C2        1.0  0.5934345651704462  0.36103584542110534  0.6834645828573347  1.0000
  C   C3        1.0  0.6051644551817866  0.2974460190540289  0.8062079435592  1.0000
  C   C4        1.0  0.5438491375048512  0.2559026365907442  0.8867353739464674  1.0000
  C   C5        1.0  0.4706495992625179  0.2776356066898742  0.8451603618669219  1.0000
  C   C6        1.0  0.457942893788268  0.34138012583507726  0.7219567451003515  1.0000
  C   C7        1.0  0.3801750583175998  0.3644441033650747  0.6776005625979737  1.0000
  C   C8        1.0  0.3613767709527009  0.3476064662846037  0.548028483321789  1.0000
  C   C9        1.0  0.2881472805516894  0.36930071732961745  0.5064094161322683  1.0000
  C   C10       1.0  0.2327729703589346  0.40815138846081944  0.593542031257992  1.0000
  C   C11       1.0  0.15740672143708223  0.43050453971098745  0.5505614123886329  1.0000
  N   N2        1.0  0.0968176308108318  0.448474812678312  0.5160081229525129  1.0000
  C   C12       1.0  0.2508796732461439  0.4251997683010673  0.7225828951427007  1.0000
  C   C13       1.0  0.3240564213408069  0.4034705132300991  0.7644574034204716  1.0000
  C   C14       1.0  0.5201155242721184  0.38291893841036484  0.6414457322538745  1.0000
  H   H1        1.0  0.6616309754689127  0.2800207739079361  0.8395803176144401  1.0000
  H   H2        1.0  0.5530493049766456  0.2064197861439876  0.9814909213376901  1.0000
  H   H3        1.0  0.42401152037789186  0.2430589837006898  0.90861302349982  1.0000
  H   H4        1.0  0.4030441341769937  0.31598106181769503  0.4793257166698446  1.0000
  H   H5        1.0  0.2746943231813398  0.35544663452544634  0.40638164192064186  1.0000
  H   H6        1.0  0.20849530571112912  0.45560218580889345  0.7907714026171218  1.0000
  H   H7        1.0  0.336981145981645  0.4188701866983886  0.8643017882812885  1.0000
  H   H8        1.0  0.511614047963961  0.4337641914132868  0.5469239370546741  1.0000
  C   C15       1.0  0.9020965758678068  0.06233877810731192  0.5252101876060811  1.0000
  C   C16       1.0  0.8849307746282266  0.07155860204849462  0.3925329454733637  1.0000
  C   C17       1.0  0.8762825405486727  0.9591048772873745  0.3250956023797189  1.0000
  C   C18       1.0  0.8850310227968146  0.8363093408679104  0.39212370321815526  1.0000
  C   C19       1.0  0.9022035284735346  0.8251342134122374  0.5248853870365875  1.0000
  C   C20       1.0  0.9106319133088263  0.9386628085546922  0.5906111085204504  1.0000
  C   C21       1.0  0.8581233784777206  0.969903949270195  0.18473907251381716  1.0000
  C   C22       1.0  0.893659163664431  0.8898074136266971  0.09787231669975771  1.0000
  C   C23       1.0  0.8765421404184891  0.9000956662720474  0.9657753825873772  1.0000
  C   C24       1.0  0.8237135304514144  0.9903770081803285  0.9187491091087563  1.0000
  C   C25       1.0  0.7880406390205161  0.07045089491951773  0.0043382879068114555  1.0000
  C   C26       1.0  0.8051041004356292  0.06040259960365013  0.13645865426314407  1.0000
  C   C27       1.0  0.8061192618371389  0.0008457471711111886  0.7827415807505349  1.0000
  C   C28       1.0  0.7913842515899976  0.009613216262615243  0.6688372463315782  1.0000
  C   C29       1.0  0.7741297285807546  0.019879803823381836  0.5354564311281083  1.0000
  C   C30       1.0  0.759397191229804  0.028645950540327814  0.42157048969565336  1.0000
  H   H9        1.0  0.9086606438062927  0.3862660952501087  0.5762594251464912  1.0000
  H   H10       1.0  0.8792585165894143  0.1664909387317517  0.3408861443724045  1.0000
  H   H11       1.0  0.8774197001037216  0.7492458039365654  0.3410614708469597  1.0000
  H   H12       1.0  0.9238701391455384  0.9308353772974252  0.692949428635456  1.0000
  H   H13       1.0  0.9341505126549676  0.5967238196805764  0.7756659329644398  1.0000
  H   H14       1.0  0.935395595348986  0.8204072406909362  0.13178508702098957  1.0000
  H   H15       1.0  0.9046429081261786  0.8378744711821309  0.900296490093337  1.0000
  H   H16       1.0  0.7469016218401295  0.14043033980522202  0.9690279014135572  1.0000
  H   H17       1.0  0.7761274897478809  0.1222129224300117  0.20117540598011074  1.0000
  H   H18       1.0  0.7464608373108474  0.036343369270827264  0.32156902760813466  1.0000
  C   C31       1.0  0.9021142547605434  0.4438417183938399  0.14368019470513027  1.0000
  C   C32       1.0  0.9702251050948857  0.5145072243967705  0.13415317188010656  1.0000
  C   C33       1.0  0.004773514120873568  0.5502070306650935  0.012194088204029896  1.0000
  C   C34       1.0  0.9702973398386022  0.5142948059690298  0.8988802960713316  1.0000
  C   C35       1.0  0.9021858606179379  0.44363128979230604  0.9064153890389002  1.0000
  C   C36       1.0  0.8684760050757997  0.40879938254267745  0.029265640800986148  1.0000
  C   C37       1.0  0.07682881631980742  0.6249629124480554  0.00316932535047898  1.0000
  C   C38       1.0  0.08866111657978415  0.7282785169207027  0.08238763368973889  1.0000
  C   C39       1.0  0.1565188687486625  0.7985265641576569  0.07368991665016855  1.0000
  C   C40       1.0  0.21329859703489862  0.7665446946431007  0.9860795394051824  1.0000
  C   C41       1.0  0.20219109758800302  0.6641329867495669  0.9069699636494932  1.0000
  C   C42       1.0  0.13440952616383228  0.5936608006106898  0.9152582984333568  1.0000
  I   I1        1.0  0.3156036081571656  0.8726798841114065  0.9732700898817113  1.0000
  H   H19       1.0  0.8761391014779465  0.41697943159257056  0.474759897690876  1.0000
  H   H20       1.0  0.9970929632561556  0.5404096547168526  0.22187257420098705  1.0000
  H   H21       1.0  0.9961740153077222  0.5431141121425498  0.8045547959340777  1.0000
  H   H22       1.0  0.8159311633076465  0.35428528763016875  0.03584696481848981  1.0000
  H   H23       1.0  0.8762439646404194  0.4166698131198614  0.581835322477692  1.0000
  H   H24       1.0  0.045102642415589145  0.755799754499433  0.14978779967531497  1.0000
  H   H25       1.0  0.1648443408228839  0.8780127172166305  0.13485616898688413  1.0000
  H   H26       1.0  0.24611885203411155  0.6388571476521876  0.8392605816974199  1.0000
  H   H27       1.0  0.12738951013949706  0.5136654566228187  0.8541925996341022  1.0000
  Zn  Zn1       1.0  0.8198310886875981  0.4417364523469398  0.5288698928691578  1.0000
  Zn  Zn2       1.0  0.9844618300421066  0.4457357533434023  0.5212253911654197  1.0000
  C   C43       1.0  0.9021699202826178  0.438496884803826  0.762244356305392  1.0000
  C   C44       1.0  0.9021247964514192  0.4489770032884086  0.28785097101961865  1.0000
  C   C45       1.0  0.9021789656741626  0.6809509836830532  0.519771784742983  1.0000
  C   C46       1.0  0.9021156946706018  0.20652134258452515  0.5303236150934465  1.0000
  O   O1        1.0  0.9646048419083637  0.45221249945247544  0.3333349544230624  1.0000
  O   O2        1.0  0.9646407980452076  0.4382957858523522  0.7109579995630562  1.0000
  O   O3        1.0  0.9646472602268259  0.6340805161158389  0.5151597210257424  1.0000
  O   O4        1.0  0.9645983235415869  0.2564277771422081  0.5291331381906437  1.0000
  O   O5        1.0  0.8396945390077246  0.6310444271847844  0.5209621484457954  1.0000
  O   O6        1.0  0.8396880770349865  0.43526125738260424  0.7167603570735523  1.0000
  O   O7        1.0  0.8396521207951845  0.4491779261547397  0.33913575055529566  1.0000
  O   O8        1.0  0.8396456024331734  0.2533931945279033  0.5349340316944717  1.0000
