data_image0
_chemical_formula_structural       NC8NC6H8C13OH12C16H10Zn2C4O8
_chemical_formula_sum              "N2 C47 H30 O9 Zn2"
_cell_length_a       17.457602349358154
_cell_length_b       10.299150109392551
_cell_length_c       10.299151387937775
_cell_angle_alpha    85.56522917257966
_cell_angle_beta     92.86396087313608
_cell_angle_gamma    91.67070309183428

_space_group_name_H-M_alt    "P 1"
_space_group_IT_number       1

loop_
  _space_group_symop_operation_xyz
  'x, y, z'

loop_
  _atom_site_type_symbol
  _atom_site_label
  _atom_site_symmetry_multiplicity
  _atom_site_fract_x
  _atom_site_fract_y
  _atom_site_fract_z
  _atom_site_occupancy
  N   N1        1.0  0.7223097817020809  0.4523306505294473  0.6259601610724017  1.0000
  C   C1        1.0  0.6612417931983351  0.40639777637083174  0.6153618621592363  1.0000
  C   C2        1.0  0.5852706302702156  0.3492629998289283  0.6021871180763148  1.0000
  C   C3        1.0  0.5267256512798851  0.38946011137023184  0.6770693452646768  1.0000
  C   C4        1.0  0.45219209786305  0.3344440050740265  0.6645082351048388  1.0000
  C   C5        1.0  0.3900552815086667  0.37688633846166253  0.7438114021633602  1.0000
  C   C6        1.0  0.3155116213895558  0.39533168960427845  0.6880410797864589  1.0000
  C   C7        1.0  0.2569666618310709  0.43534491049970714  0.7630313299550708  1.0000
  C   C8        1.0  0.1809849899670759  0.45439519044797283  0.7050453243782175  1.0000
  N   N2        1.0  0.11990864348752302  0.4697052354731708  0.658424729357582  1.0000
  C   C9        1.0  0.2724730942778777  0.4571561591491835  0.8943003263772422  1.0000
  C   C10       1.0  0.3462319314326719  0.4390999891207952  0.9504580983116167  1.0000
  C   C11       1.0  0.4047651985458905  0.3992670336786548  0.8759254997858676  1.0000
  C   C12       1.0  0.43749246483870513  0.23855269930929013  0.5756322392370636  1.0000
  C   C13       1.0  0.49602562619267354  0.19863446029532938  0.5011499085382778  1.0000
  C   C14       1.0  0.5697743284968413  0.2537631889975889  0.5142609241578995  1.0000
  H   H1        1.0  0.5390476642250532  0.4646884207666282  0.743671365980122  1.0000
  H   H2        1.0  0.3031813592469749  0.38031601767875967  0.586022599709576  1.0000
  H   H3        1.0  0.2275994047872148  0.48806658013924276  0.9531242768729269  1.0000
  H   H4        1.0  0.3580482308008456  0.4556732620660877  0.05210272922091996  1.0000
  H   H5        1.0  0.4612482766763355  0.3842942991171612  0.9220374796919792  1.0000
  H   H6        1.0  0.3810176467877191  0.1932095165865948  0.5649976002580381  1.0000
  H   H7        1.0  0.4842173511744621  0.12452216476990241  0.4333491477081095  1.0000
  H   H8        1.0  0.6146481671457888  0.22198323498019668  0.4559484262937046  1.0000
  C   C15       1.0  0.9211851704442678  0.07962166415420713  0.6423427740307877  1.0000
  C   C16       1.0  0.9197560327980894  0.06781394675034136  0.7790370203634782  1.0000
  C   C17       1.0  0.9189647062128469  0.9446895541333535  0.8480747618196467  1.0000
  C   C18       1.0  0.9196081589179902  0.8325519836132036  0.7786615506902719  1.0000
  C   C19       1.0  0.9210405875877777  0.8424044758493829  0.6420539721776453  1.0000
  C   C20       1.0  0.9218228323909008  0.9663998016824668  0.5746930802463126  1.0000
  C   C21       1.0  0.917446161993605  0.9331797476715552  0.9925911076085447  1.0000
  C   C22       1.0  0.870263326181469  0.8382669699794076  0.05676007008043782  1.0000
  C   C23       1.0  0.8688089602066269  0.8275165521967937  0.19274773166823445  1.0000
  C   C24       1.0  0.9150143330930297  0.9105421736255563  0.267065872184735  1.0000
  C   C25       1.0  0.9614631036828059  0.0063767849183455905  0.20347954472523266  1.0000
  C   C26       1.0  0.9629352783431112  0.017303777824635658  0.06749304853061178  1.0000
  C   C27       1.0  0.9118384011813822  0.9012738442977227  0.412893046149015  1.0000
  O   O1        1.0  0.8544924495656195  0.9819606383676087  0.44845137792163614  1.0000
  H   H9        1.0  0.9233843055166495  0.30918033933041444  0.384285280898919  1.0000
  H   H10       1.0  0.9181914912557011  0.15454045444184472  0.8319179313699825  1.0000
  H   H11       1.0  0.9200397117763691  0.7374696681622438  0.8315303829898428  1.0000
  H   H12       1.0  0.9229255366018692  0.9747154374572587  0.46932339006088464  1.0000
  H   H13       1.0  0.9215399124399584  0.518716365421698  0.5895056901113334  1.0000
  H   H14       1.0  0.8335796313245091  0.7736343396056112  0.0016560161172725074  1.0000
  H   H15       1.0  0.8314829568269798  0.7545760972503205  0.24007564376610324  1.0000
  H   H16       1.0  0.996733549685841  0.07250092851300627  0.25921441160895686  1.0000
  H   H17       1.0  0.00028689254409353104  0.09069110943339154  0.02097387208920809  1.0000
  H   H18       1.0  0.9682661090002549  0.9315850033784517  0.45767052354490967  1.0000
  H   H19       1.0  0.8993663141785024  0.7987227422491785  0.44968732045556503  1.0000
  H   H20       1.0  0.8547653244675971  0.9723341843302844  0.5451004866869725  1.0000
  C   C28       1.0  0.9211573736992065  0.4608462762170773  0.26083107788665916  1.0000
  C   C29       1.0  0.8471242635643219  0.5115684476027127  0.2498580966400188  1.0000
  C   C30       1.0  0.8095421556538505  0.5374575905471048  0.1271348111498538  1.0000
  C   C31       1.0  0.8469907310364215  0.5119402365363186  0.014534722142580003  1.0000
  C   C32       1.0  0.9210683727825166  0.4611798635914106  0.023565664886893156  1.0000
  C   C33       1.0  0.9576964068989624  0.43594735383624483  0.1471031409796255  1.0000
  C   C34       1.0  0.7312240911641953  0.5911158159803334  0.11657213337459238  1.0000
  C   C35       1.0  0.7117185238634064  0.690083679956609  0.019638442690520064  1.0000
  C   C36       1.0  0.6379929247320989  0.740547034158946  0.00982410465802408  1.0000
  C   C37       1.0  0.5828057230426692  0.6928087760967139  0.09656245109945938  1.0000
  C   C38       1.0  0.601615860713656  0.5943689058464379  0.19327706324079097  1.0000
  C   C39       1.0  0.6753194661579524  0.5438169907727415  0.20333920221924973  1.0000
  C   C40       1.0  0.5069157813320677  0.7448074051454987  0.08633143358844775  1.0000
  C   C41       1.0  0.4433590260160039  0.7883554676111137  0.07776301569434074  1.0000
  C   C42       1.0  0.3689347264241632  0.8393498627654685  0.06772948595869144  1.0000
  C   C43       1.0  0.3053882419594937  0.8828911255258134  0.05916255916450419  1.0000
  H   H21       1.0  0.9496173771460473  0.44127307424679807  0.5925308921764016  1.0000
  H   H22       1.0  0.8189309353539794  0.5327325876648825  0.33685178870791055  1.0000
  H   H23       1.0  0.8178760401890797  0.5300485032428388  0.9197775299637914  1.0000
  H   H24       1.0  0.014799119672527006  0.3968204448425887  0.15485133470273893  1.0000
  H   H25       1.0  0.06069343316476972  0.364605506787649  0.8333615237376697  1.0000
  H   H26       1.0  0.7537702226145673  0.7296262754724201  0.952511925087097  1.0000
  H   H27       1.0  0.6241038764186196  0.8169954129069255  0.93480962481186  1.0000
  H   H28       1.0  0.5592662653464615  0.5564546195711304  0.26071006935057084  1.0000
  H   H29       1.0  0.6883020167528335  0.46656730227511045  0.2778869244677573  1.0000
  H   H30       1.0  0.24958918195256752  0.9211238867829847  0.05164009752074916  1.0000
  Zn  Zn1       1.0  0.8370482244228348  0.45734110075880063  0.6353362339614954  1.0000
  Zn  Zn2       1.0  0.005170187294740947  0.4646841413067897  0.6490592929825221  1.0000
  C   C44       1.0  0.921084472686168  0.4559427208420124  0.8793942992726373  1.0000
  C   C45       1.0  0.9211357745925242  0.46608424020288  0.40500150437216265  1.0000
  C   C46       1.0  0.9210645710743957  0.6982198901201295  0.6369330715124688  1.0000
  C   C47       1.0  0.9211556191237164  0.22380550803426336  0.6474627972787894  1.0000
  O   O2        1.0  0.9849299355439313  0.47062312823522423  0.4585942480394276  1.0000
  O   O3        1.0  0.9848909917064532  0.4569760507225056  0.8362166663989186  1.0000
  O   O4        1.0  0.9848740606721981  0.6526178919529468  0.6404274388127784  1.0000
  O   O5        1.0  0.9849468092191487  0.2749812937473992  0.6543833735650482  1.0000
  O   O6        1.0  0.8572715451266529  0.6470439458137831  0.630012148689131  1.0000
  O   O7        1.0  0.8572884758697145  0.4514036649694311  0.8258013064389758  1.0000
  O   O8        1.0  0.8573274199489681  0.4650506965421639  0.4481773267067779  1.0000
  O   O9        1.0  0.8573442936114488  0.26940885280731375  0.6439665496030809  1.0000
