data_image0
_chemical_formula_structural       NC8NC6H8C16H10C12OCH12Zn2C4O8
_chemical_formula_sum              "N2 C47 H30 O9 Zn2"
_cell_length_a       17.457602349358154
_cell_length_b       10.29914801576943
_cell_length_c       10.299794127170987
_cell_angle_alpha    85.55374609457252
_cell_angle_beta     92.8688978689242
_cell_angle_gamma    91.70309287404056

_space_group_name_H-M_alt    "P 1"
_space_group_IT_number       1

loop_
  _space_group_symop_operation_xyz
  'x, y, z'

loop_
  _atom_site_type_symbol
  _atom_site_label
  _atom_site_symmetry_multiplicity
  _atom_site_fract_x
  _atom_site_fract_y
  _atom_site_fract_z
  _atom_site_occupancy
  N   N1        1.0  0.7227262311502072  0.4525545613613764  0.6259829253118181  1.0000
  C   C1        1.0  0.6616424382911692  0.4066223253853263  0.6153864585619391  1.0000
  C   C2        1.0  0.5856516171132505  0.3494883414891168  0.6022139930739261  1.0000
  C   C3        1.0  0.5271236650232582  0.3896755248989485  0.6770915193339027  1.0000
  C   C4        1.0  0.4525711884170243  0.3346601639912121  0.6645325973683183  1.0000
  C   C5        1.0  0.3904523616179248  0.3770919806659936  0.7438307896723781  1.0000
  C   C6        1.0  0.31591212388875106  0.3955456481195119  0.6880625656009678  1.0000
  C   C7        1.0  0.2573841352877712  0.4355489219516533  0.7630481150727901  1.0000
  C   C8        1.0  0.1814059792175314  0.4546078461699643  0.7050642948722046  1.0000
  N   N2        1.0  0.12033245732013031  0.4699248410447687  0.658445457071827  1.0000
  C   C9        1.0  0.2729042220750851  0.4573418392553523  0.8943102814316748  1.0000
  C   C10       1.0  0.3466597852476349  0.4392773050000194  0.9504659254837731  1.0000
  C   C11       1.0  0.4051761636965596  0.39945423469772234  0.8759380008208586  1.0000
  C   C12       1.0  0.4378353098194303  0.23877972342670728  0.5756635779245056  1.0000
  C   C13       1.0  0.49635155657257685  0.19887136074829037  0.5011859211879519  1.0000
  C   C14       1.0  0.5701192463395636  0.25399926767435477  0.5142947193849867  1.0000
  H   H1        1.0  0.5394739610966556  0.4648957563261795  0.7436882143615686  1.0000
  H   H2        1.0  0.30357189415530206  0.38054425967293204  0.5860493375372258  1.0000
  H   H3        1.0  0.228043686268822  0.4882444484699391  0.953130558425048  1.0000
  H   H4        1.0  0.3584865524182778  0.45583637754239814  0.05210527686947419  1.0000
  H   H5        1.0  0.4616565047361962  0.384474629352459  0.922048237740202  1.0000
  H   H6        1.0  0.3813448819126399  0.19343719531494297  0.5650307557269574  1.0000
  H   H7        1.0  0.4845153114774386  0.12476733565801568  0.4333905102844817  1.0000
  H   H8        1.0  0.6149796668088333  0.22222703581811776  0.4559858960869394  1.0000
  C   C15       1.0  0.9214783674722721  0.07983613213227447  0.6423755711380752  1.0000
  C   C16       1.0  0.9039700642517252  0.08863160596751829  0.5074784880276715  1.0000
  C   C17       1.0  0.8951493727953174  0.9759637534623429  0.43892281140963263  1.0000
  C   C18       1.0  0.9040725064386875  0.8533841497261114  0.5070822808906341  1.0000
  C   C19       1.0  0.9215876425276226  0.8426335566633426  0.6420646707254822  1.0000
  C   C20       1.0  0.9301841002056102  0.9563708376949158  0.7088802960919312  1.0000
  C   C21       1.0  0.8766278888703544  0.9863139179741653  0.2962179815702357  1.0000
  C   C22       1.0  0.9129318793714079  0.9068902865789648  0.21396838762402148  1.0000
  C   C23       1.0  0.895473294115975  0.9167555105360744  0.07965790815429497  1.0000
  C   C24       1.0  0.8415314807078225  0.005936324930329473  0.025778219527992974  1.0000
  C   C25       1.0  0.8050876839989438  0.0853337941879675  0.1067325193131885  1.0000
  C   C26       1.0  0.8224915671302461  0.07570745219198383  0.24105947821185958  1.0000
  C   C27       1.0  0.82358616412732  0.01597011124277614  0.8874954429195316  1.0000
  C   C28       1.0  0.8085571549112817  0.02437331244281493  0.7716856125944513  1.0000
  C   C29       1.0  0.7909583626111942  0.03421334649898111  0.6360734841960047  1.0000
  C   C30       1.0  0.7759318757499188  0.042615286046479905  0.5202823666898921  1.0000
  H   H9        1.0  0.9281733540084537  0.40392589625525055  0.6942736395533919  1.0000
  H   H10       1.0  0.8981859075634636  0.18341928272725894  0.45509863360758906  1.0000
  H   H11       1.0  0.8963080469559386  0.7661368720410845  0.4550353027642222  1.0000
  H   H12       1.0  0.9436864598338246  0.9488706744496314  0.8129305513062464  1.0000
  H   H13       1.0  0.954171420051416  0.6150151069528672  0.8969762932528988  1.0000
  H   H14       1.0  0.9555483105905422  0.8383577264618486  0.25329578826128385  1.0000
  H   H15       1.0  0.9241810125431389  0.8550682574304073  0.017829952900862978  1.0000
  H   H16       1.0  0.7630815717963612  0.15445697455557994  0.06608512074819672  1.0000
  H   H17       1.0  0.792889547111495  0.1369655973950561  0.30201166919505673  1.0000
  H   H18       1.0  0.7627374105663017  0.04999290131149481  0.41860800664918063  1.0000
  C   C31       1.0  0.9215588700972481  0.4611224948315784  0.26087083423930557  1.0000
  C   C32       1.0  0.8463731764877664  0.40871111221604406  0.2575595504296302  1.0000
  C   C33       1.0  0.808254908039528  0.3822555266244607  0.1387330645528131  1.0000
  C   C34       1.0  0.8463210503575973  0.40893532050784454  0.022250307989278628  1.0000
  C   C35       1.0  0.9215071736130059  0.46134722936343575  0.023569364829636452  1.0000
  C   C36       1.0  0.9587058512039508  0.48714448528004484  0.14336512275526236  1.0000
  C   C37       1.0  0.7287148987339381  0.32680025302004  0.13628479296706786  1.0000
  C   C38       1.0  0.673798764213475  0.3730722450145696  0.0406324413497714  1.0000
  C   C39       1.0  0.5990434982685902  0.3208723270088967  0.03860083749203502  1.0000
  C   C40       1.0  0.5781177871755303  0.22201612956122418  0.13162012957069558  1.0000
  C   C41       1.0  0.63227683390212  0.17430634953422386  0.22807384016549115  1.0000
  C   C42       1.0  0.7071364808985144  0.22715042663725704  0.22966232228360184  1.0000
  O   O1        1.0  0.614204257262727  0.07493577628590087  0.3234613002539599  1.0000
  C   C43       1.0  0.5406557631196871  0.012444195069037267  0.3335185040215576  1.0000
  H   H19       1.0  0.9502180401331543  0.4810356090485668  0.5895909906678207  1.0000
  H   H20       1.0  0.8168960491499843  0.3899930682478616  0.34743722594589865  1.0000
  H   H21       1.0  0.817558570640839  0.38708262119157477  0.9305791065319404  1.0000
  H   H22       1.0  0.016708776236838085  0.5275768375580587  0.1451512743798391  1.0000
  H   H23       1.0  0.9501408724537383  0.4813790355913192  0.6966133220079382  1.0000
  H   H24       1.0  0.6884004294450983  0.4507826314371479  0.9684735691694542  1.0000
  H   H25       1.0  0.5571023789298741  0.35743861227790097  0.9648225814053086  1.0000
  H   H26       1.0  0.5198276659391037  0.1834324174844908  0.12770460353280733  1.0000
  H   H27       1.0  0.7487391605274566  0.18881919146071557  0.30323991411562634  1.0000
  H   H28       1.0  0.52483581453417  0.9632933151540205  0.24338667427521288  1.0000
  H   H29       1.0  0.5426164988290418  0.9380478641931718  0.4173817107521567  1.0000
  H   H30       1.0  0.49696985751256456  0.08480017001837004  0.35019769272596957  1.0000
  Zn  Zn1       1.0  0.837466798280439  0.45756376804821164  0.6353584102505387  1.0000
  Zn  Zn2       1.0  0.005591873693358895  0.46490498869900954  0.6490806084535634  1.0000
  C   C44       1.0  0.9215144704584411  0.45613050660923293  0.8794049932750381  1.0000
  C   C45       1.0  0.9215460376620885  0.4663399691105339  0.4050343020669429  1.0000
  C   C46       1.0  0.9215633955542849  0.6984469200929146  0.6369481883542862  1.0000
  C   C47       1.0  0.9214970549686539  0.22402199269726353  0.6474911721763914  1.0000
  O   O2        1.0  0.9853443200958494  0.47087128986029136  0.4586243838332984  1.0000
  O   O3        1.0  0.985319229998625  0.45717002254711536  0.8362293690073297  1.0000
  O   O4        1.0  0.9853578774512596  0.6528435537863297  0.6404437128605838  1.0000
  O   O5        1.0  0.985305615281449  0.2751977653783977  0.6544099379241475  1.0000
  O   O6        1.0  0.8577529993195121  0.6472709888650365  0.6300290760904113  1.0000
  O   O7        1.0  0.8577143520916322  0.4515990180516245  0.8258146623589169  1.0000
  O   O8        1.0  0.8577394423392795  0.4653002396469246  0.4482081158872284  1.0000
  O   O9        1.0  0.8577007375138084  0.2696267059039239  0.64399376734443  1.0000
