data_image0
_chemical_formula_structural       NC12NC2H8C12ClH9C13F3H9Zn2C4O8
_chemical_formula_sum              "N2 C43 H26 Cl1 F3 Zn2 O8"
_cell_length_a       17.80743265337812
_cell_length_b       10.299768534541528
_cell_length_c       10.2985328690268
_cell_angle_alpha    85.58012551441328
_cell_angle_beta     91.53993439614001
_cell_angle_gamma    89.45366305101135

_space_group_name_H-M_alt    "P 1"
_space_group_IT_number       1

loop_
  _space_group_symop_operation_xyz
  'x, y, z'

loop_
  _atom_site_type_symbol
  _atom_site_label
  _atom_site_symmetry_multiplicity
  _atom_site_fract_x
  _atom_site_fract_y
  _atom_site_fract_z
  _atom_site_occupancy
  N   N1        1.0  0.7075937145159698  0.40618182217268584  0.6013189846366529  1.0000
  C   C1        1.0  0.6567749949369709  0.43571646246065865  0.5326175446130792  1.0000
  C   C2        1.0  0.5935514931514303  0.4724554123962599  0.4471616016480502  1.0000
  C   C3        1.0  0.6052801032657407  0.5264315731549771  0.3205368448268544  1.0000
  C   C4        1.0  0.5439638295614188  0.5616677815437612  0.23747695340008268  1.0000
  C   C5        1.0  0.4707646493667643  0.54319106184187  0.2803818896143646  1.0000
  C   C6        1.0  0.45805927386762396  0.48909626177048326  0.40747481177890443  1.0000
  C   C7        1.0  0.5202328632135125  0.45386330152171594  0.4905181906625964  1.0000
  C   C8        1.0  0.3802918634795746  0.46950641978358454  0.4532401600805187  1.0000
  C   C9        1.0  0.3615193634109595  0.49673656566268676  0.5802939242493188  1.0000
  C   C10       1.0  0.2882902475532296  0.4783014328477331  0.6232394281646498  1.0000
  C   C11       1.0  0.2328906715673407  0.4323821767914038  0.5399691749046389  1.0000
  C   C12       1.0  0.1575249427406795  0.41339471221172963  0.5843156637023521  1.0000
  N   N2        1.0  0.0969362338504475  0.3981300676631707  0.6199671899519366  1.0000
  C   C13       1.0  0.2509716838978898  0.4049833093112605  0.41345840501217124  1.0000
  C   C14       1.0  0.3241479301929692  0.4234331384069292  0.37025699889611663  1.0000
  H   H1        1.0  0.6617461733961425  0.5412431743744845  0.28609850219401056  1.0000
  H   H2        1.0  0.5531630252169409  0.6037303014082642  0.13969405799814383  1.0000
  H   H3        1.0  0.4241263044347985  0.5728033912680772  0.21478859380114868  1.0000
  H   H4        1.0  0.511731792727047  0.41041544690223075  0.5881765583596905  1.0000
  H   H5        1.0  0.40320688908845664  0.5339381980011593  0.6458731267763091  1.0000
  H   H6        1.0  0.2748574222666877  0.5001808275923763  0.7212556114031514  1.0000
  H   H7        1.0  0.20856753529326563  0.36904908707345974  0.34829225079399495  1.0000
  H   H8        1.0  0.3370521050116462  0.4000183209624406  0.2725440877121297  1.0000
  C   C15       1.0  0.9021977137806734  0.020791952242215306  0.6106377238583269  1.0000
  C   C16       1.0  0.9071379857030413  0.030213046183990677  0.4743955176791237  1.0000
  C   C17       1.0  0.9097134849670455  0.9178459308732879  0.405371356961296  1.0000
  C   C18       1.0  0.9072814710699817  0.7949223662239842  0.4744178812116251  1.0000
  C   C19       1.0  0.9023394318123187  0.7835097797744724  0.6106599406873718  1.0000
  C   C20       1.0  0.8998257821189374  0.8970008655748435  0.6780069320643578  1.0000
  C   C21       1.0  0.9149408797065155  0.9288663100341397  0.26123850837233187  1.0000
  C   C22       1.0  0.8721973813360204  0.023267182186726743  0.18472203647575514  1.0000
  C   C23       1.0  0.8771844913753266  0.03344270040935027  0.049071294727701664  1.0000
  C   C24       1.0  0.9248424555196312  0.9497404574518579  0.9882415648870699  1.0000
  C   C25       1.0  0.9675735574552667  0.8556516161465488  0.06324611286907378  1.0000
  C   C26       1.0  0.9627198610004103  0.8450810921991054  0.19891788899227447  1.0000
  Cl  Cl1       1.0  0.9310158183967008  0.9627549309241562  0.8180398800438491  1.0000
  H   H9        1.0  0.9002766798415197  0.3446565981425793  0.6625476114809965  1.0000
  H   H10       1.0  0.9100314375431555  0.12514917883247056  0.4217976883371286  1.0000
  H   H11       1.0  0.9082143503719654  0.7080528222668033  0.42151257645096396  1.0000
  H   H12       1.0  0.8960138289008747  0.888964752296419  0.7831114860761388  1.0000
  H   H13       1.0  0.9004861959993785  0.45170668716704426  0.6625808771537656  1.0000
  H   H14       1.0  0.8342153192261206  0.08804311994429193  0.22964968528227447  1.0000
  H   H15       1.0  0.8438257984486424  0.1062290387792757  0.9913576980233767  1.0000
  H   H16       1.0  0.004717694391301208  0.7908458664957391  0.016588729792316625  1.0000
  H   H17       1.0  0.9970317835588165  0.7725678851009378  0.2551827285213981  1.0000
  C   C27       1.0  0.9022469540487783  0.4020293904231622  0.22925033463964417  1.0000
  C   C28       1.0  0.9775707074573279  0.359580703390054  0.23507036424133765  1.0000
  C   C29       1.0  0.01573783960429287  0.33819030056557775  0.12084856491058948  1.0000
  C   C30       1.0  0.9776151062689507  0.3598353994996919  0.9997718194564289  1.0000
  C   C31       1.0  0.9022901800420804  0.40227240606756687  0.9920473842192989  1.0000
  C   C32       1.0  0.8650871406805832  0.42309322567036634  0.1073070464153334  1.0000
  C   C33       1.0  0.09537298628224633  0.2933241029191971  0.12793616057108914  1.0000
  C   C34       1.0  0.14725699821059202  0.3468510496419164  0.038880670885399926  1.0000
  C   C35       1.0  0.2222043665270952  0.30472806193519353  0.045572537771340516  1.0000
  C   C36       1.0  0.2466312935450683  0.20682777382894124  0.14021203418523687  1.0000
  C   C37       1.0  0.19518248847506325  0.15511085429521843  0.23086573261051724  1.0000
  C   C38       1.0  0.12024001661939354  0.19726679539100878  0.22428502189954713  1.0000
  C   C39       1.0  0.3280759462251097  0.164857316610604  0.1503956621127447  1.0000
  F   F1        1.0  0.36661831011079293  0.24337404018410602  0.2317279999580657  1.0000
  F   F2        1.0  0.3600722231923017  0.17536868189304666  0.029071191045763722  1.0000
  F   F3        1.0  0.3350095361803591  0.036594064827818906  0.20061124790859086  1.0000
  H   H18       1.0  0.7600564169486891  0.4830571758837441  0.42552145402048325  1.0000
  H   H19       1.0  0.006988214799530601  0.3448129346837663  0.3285580785794022  1.0000
  H   H20       1.0  0.006463932579179543  0.34185744380502436  0.9115225480754847  1.0000
  H   H21       1.0  0.8070333884190035  0.4558040240803345  0.10208829848581491  1.0000
  H   H22       1.0  0.7598155877514067  0.48172254582474183  0.7701756205102521  1.0000
  H   H23       1.0  0.130151502662742  0.4229683131026656  0.9653336270080661  1.0000
  H   H24       1.0  0.26116148054374677  0.34914826346289196  0.9769540834704742  1.0000
  H   H25       1.0  0.2128891399125128  0.08187266603266874  0.3068845065374688  1.0000
  H   H26       1.0  0.08155366653007778  0.15379501179211497  0.2939361412402932  1.0000
  Zn  Zn1       1.0  0.8199495584534005  0.4038547948991722  0.6067079412796261  1.0000
  Zn  Zn2       1.0  0.9845803860512786  0.4004465049908177  0.6145888268731412  1.0000
  C   C40       1.0  0.9022793741302961  0.3970528779153777  0.8478621694586046  1.0000
  C   C41       1.0  0.9022523684495714  0.4072500233949534  0.3734348122773623  1.0000
  C   C42       1.0  0.9023084775714804  0.6393383416621625  0.6054800192937932  1.0000
  C   C43       1.0  0.9022232085454217  0.16496300055106516  0.6158170289514417  1.0000
  O   O1        1.0  0.9647307256119031  0.40770302158627203  0.42481519495983866  1.0000
  O   O2        1.0  0.9647520056134907  0.39401208671728893  0.8024628226866737  1.0000
  O   O3        1.0  0.9647746648731883  0.5896606806769511  0.6067374812566844  1.0000
  O   O4        1.0  0.9647080101710633  0.2120544380487066  0.6205404363186597  1.0000
  O   O5        1.0  0.8398218781531938  0.5922468630057769  0.6007563291379165  1.0000
  O   O6        1.0  0.8397992191760396  0.39659982930771154  0.7964816013624465  1.0000
  O   O7        1.0  0.8397779391275141  0.4102907184228519  0.41883241211478595  1.0000
  O   O8        1.0  0.8397552236873949  0.21464212562768314  0.6145577508485842  1.0000
