data_image0
_chemical_formula_structural       NC10NC5H10C12OCH12C13NH13Zn2C4O8
_chemical_formula_sum              "N3 C45 H35 O9 Zn2"
_cell_length_a       19.4436361288709
_cell_length_b       10.29979075500242
_cell_length_c       10.299780419254978
_cell_angle_alpha    85.56841767701755
_cell_angle_beta     89.69141269769756
_cell_angle_gamma    89.4004616021446

_space_group_name_H-M_alt    "P 1"
_space_group_IT_number       1

loop_
  _space_group_symop_operation_xyz
  'x, y, z'

loop_
  _atom_site_type_symbol
  _atom_site_label
  _atom_site_symmetry_multiplicity
  _atom_site_fract_x
  _atom_site_fract_y
  _atom_site_fract_z
  _atom_site_occupancy
  N   N1        1.0  0.6475914213725219  0.40899633443605277  0.5620639483409844  1.0000
  C   C1        1.0  0.5887529405321307  0.41889872937407757  0.5764468400296874  1.0000
  C   C2        1.0  0.5154204786774105  0.4312483453164353  0.5944378044812895  1.0000
  C   C3        1.0  0.47324800436099296  0.3992480219117087  0.499769284151816  1.0000
  C   C4        1.0  0.3973412567556694  0.4096864610305351  0.5050965721054095  1.0000
  C   C5        1.0  0.3575991051947422  0.3849427081398529  0.6121666104304144  1.0000
  C   C6        1.0  0.2814787537337697  0.38885882096760627  0.5992074681290829  1.0000
  C   C7        1.0  0.2409000999724472  0.4465233869501839  0.6929714945221115  1.0000
  C   C8        1.0  0.1692367870061199  0.45016072641874505  0.682427760528012  1.0000
  C   C9        1.0  0.137157419243407  0.3957375011697193  0.5784065392962938  1.0000
  C   C10       1.0  0.06336486158926612  0.399436077769604  0.5677075253187402  1.0000
  N   N2        1.0  0.0040406502895772006  0.40240953928373346  0.5591062274099015  1.0000
  C   C11       1.0  0.1770112745559604  0.33736586250730394  0.48502577474377984  1.0000
  C   C12       1.0  0.24869104215810411  0.333674289887526  0.49531774338653145  1.0000
  C   C13       1.0  0.3857300034359325  0.3444870477243962  0.7432588912861242  1.0000
  C   C14       1.0  0.444383290474297  0.3876104699863814  0.790497235332621  1.0000
  C   C15       1.0  0.4885793180828326  0.4854653845563537  0.716126848865539  1.0000
  H   H1        1.0  0.49535784504826713  0.3701277028402299  0.40946735075092566  1.0000
  H   H2        1.0  0.3726452465067349  0.4321775303190123  0.4119402513528043  1.0000
  H   H3        1.0  0.2647579888028  0.48981706781092793  0.7738144617828777  1.0000
  H   H4        1.0  0.1388795969654604  0.49547782744572055  0.7553434288198124  1.0000
  H   H5        1.0  0.15268144846301043  0.2942678505968719  0.40451726733179494  1.0000
  H   H6        1.0  0.2783829434370503  0.28611383725552586  0.4230985117203203  1.0000
  H   H7        1.0  0.3547709761791401  0.2802727109337946  0.8075071878891309  1.0000
  H   H8        1.0  0.4595324130509027  0.35354707229093063  0.888430134243019  1.0000
  H   H9        1.0  0.45845688118569616  0.5761782287943482  0.6908706468607222  1.0000
  H   H10       1.0  0.5318559727220901  0.5110535936137732  0.7792081169998413  1.0000
  C   C16       1.0  0.8258811293816982  0.024333989627488783  0.5606235211887876  1.0000
  C   C17       1.0  0.8059555407912278  0.01356318562320058  0.6922220155735528  1.0000
  C   C18       1.0  0.7958045172764553  0.8909702537122367  0.7588712763045853  1.0000
  C   C19       1.0  0.8058319823967814  0.7782831620734133  0.6921572581812656  1.0000
  C   C20       1.0  0.8257575405700455  0.787061751679191  0.5605578315689614  1.0000
  C   C21       1.0  0.8356721430966635  0.9105304955403131  0.4955284888451652  1.0000
  C   C22       1.0  0.7747285633779085  0.880629379513059  0.89809631559409  1.0000
  C   C23       1.0  0.7245385850559918  0.7906998924239828  0.943576644958243  1.0000
  C   C24       1.0  0.7047644102332733  0.7812398366683243  0.07447488699635296  1.0000
  C   C25       1.0  0.7347350621632079  0.8610492935910127  0.1615711100258741  1.0000
  C   C26       1.0  0.7851079147456175  0.9515848717298374  0.11796089907136054  1.0000
  C   C27       1.0  0.8046689323214267  0.9606875703382566  0.9865377457099094  1.0000
  O   O1        1.0  0.8168897511283038  0.03371476536215612  0.20156248214818973  1.0000
  C   C28       1.0  0.8021275475115762  0.03499242286182036  0.33701601947095106  1.0000
  H   H11       1.0  0.8335037296654766  0.35588905379193125  0.5104998873143336  1.0000
  H   H12       1.0  0.7973722296108426  0.1007582799108111  0.7427201137087451  1.0000
  H   H13       1.0  0.7989690994325425  0.6835201889372081  0.7435801589519975  1.0000
  H   H14       1.0  0.8510444221725889  0.9180713095107522  0.3940058060476692  1.0000
  H   H15       1.0  0.8333158666753044  0.462955960287822  0.5103970973254928  1.0000
  H   H16       1.0  0.6999461493728263  0.7289120179387576  0.8775736492595012  1.0000
  H   H17       1.0  0.6659156670462768  0.7119944380372701  0.10847477842452391  1.0000
  H   H18       1.0  0.7184231489862282  0.8516214373137705  0.26236928684095095  1.0000
  H   H19       1.0  0.844072438092616  0.029496811249206445  0.9540460521485068  1.0000
  H   H20       1.0  0.8140023736980821  0.9382541052928006  0.3875381751543234  1.0000
  H   H21       1.0  0.8345785436685388  0.10904025216900948  0.3789594903328042  1.0000
  H   H22       1.0  0.7472196906938102  0.06092061822945616  0.3519065697036027  1.0000
  C   C29       1.0  0.8258661724493523  0.4056121458542954  0.1792361643443856  1.0000
  C   C30       1.0  0.8756471040598367  0.5037210939964818  0.1701528768027194  1.0000
  C   C31       1.0  0.9008184484739908  0.5535299399921529  0.048406814801619236  1.0000
  C   C32       1.0  0.8755526129829587  0.5038950721978421  0.9348534699315958  1.0000
  C   C33       1.0  0.8257724988697692  0.40578358961156846  0.9419451975577915  1.0000
  C   C34       1.0  0.8012061411288485  0.3571949839103816  0.06458855417762699  1.0000
  C   C35       1.0  0.9534847191757707  0.6573181648268258  0.039889034024866765  1.0000
  C   C36       1.0  0.9488183111158496  0.761981725571089  0.9440923161527555  1.0000
  C   C37       1.0  0.9984113154639819  0.8595816060987029  0.9361606842124552  1.0000
  C   C38       1.0  0.05323790958481922  0.85486538775124  0.02438055059846178  1.0000
  C   C39       1.0  0.058563703354921115  0.7499108057714787  0.11911504900366099  1.0000
  C   C40       1.0  0.008984924063601518  0.6522859634782845  0.12721933573971667  1.0000
  C   C41       1.0  0.10753354940604098  0.9580795011097938  0.013465478865197333  1.0000
  N   N3        1.0  0.16026454741888818  0.9244532679964328  0.9201529125762526  1.0000
  H   H23       1.0  0.8069252664006585  0.3681806635660978  0.510153913014969  1.0000
  H   H24       1.0  0.8942846630463491  0.542882426157639  0.2578646567225915  1.0000
  H   H25       1.0  0.8954851531604655  0.540681612695078  0.8408773322647733  1.0000
  H   H26       1.0  0.7628026484608957  0.28150734705068614  0.07082733102989502  1.0000
  H   H27       1.0  0.8067909391575205  0.368421853167451  0.6171922676837154  1.0000
  H   H28       1.0  0.9063991710343094  0.7691119775650139  0.8761420344255413  1.0000
  H   H29       1.0  0.9939685902245752  0.9390635400163196  0.8613513470654426  1.0000
  H   H30       1.0  0.10123813430141393  0.7434280934127611  0.1865366310324046  1.0000
  H   H31       1.0  0.014626556888450493  0.571764720453857  0.20055292616775167  1.0000
  H   H32       1.0  0.08375284727198595  0.05354512995468852  0.9803739616879281  1.0000
  H   H33       1.0  0.13125074129841852  0.9689515356607838  0.11012437847322287  1.0000
  H   H34       1.0  0.19495963067729938  0.0015033503625367928  0.9099187225131593  1.0000
  H   H35       1.0  0.18787094195012233  0.8436400328311349  0.9607033344848883  1.0000
  Zn  Zn1       1.0  0.7504549700175668  0.4070920579573747  0.5612179261253205  1.0000
  Zn  Zn2       1.0  0.9011770935667115  0.4043032104814466  0.5599629313155963  1.0000
  C   C42       1.0  0.8257894900605306  0.40057756236852304  0.7977773471702414  1.0000
  C   C43       1.0  0.8258442191234326  0.4108193142642935  0.3234036238867919  1.0000
  C   C44       1.0  0.8257779799062182  0.6428888952826475  0.5553953392543967  1.0000
  C   C45       1.0  0.8258556780911809  0.1685064220149064  0.5657857016011825  1.0000
  O   O2        1.0  0.883035112696866  0.4115028687268347  0.37131127679301046  1.0000
  O   O3        1.0  0.8829932009930554  0.39777635739481054  0.7489168084944235  1.0000
  O   O4        1.0  0.8829831351720902  0.5934458377387206  0.553191628513604  1.0000
  O   O5        1.0  0.8830451270970362  0.2158333986028984  0.567036359830279  1.0000
  O   O6        1.0  0.7685868850531791  0.595561870789032  0.5541444980320749  1.0000
  O   O7        1.0  0.7685969506266457  0.3998939507334931  0.7498696086357863  1.0000
  O   O8        1.0  0.76863886257534  0.41362041645767267  0.3722625155960724  1.0000
  O   O9        1.0  0.7686488769622423  0.21795093706687152  0.5679876959983297  1.0000
