data_image0
_chemical_formula_structural       NC8NC6H8C12SCH12C12SCH12Zn2C4O8
_chemical_formula_sum              "N2 C44 H32 S2 Zn2 O8"
_cell_length_a       17.457602349358154
_cell_length_b       10.299776766347529
_cell_length_c       10.299780138516091
_cell_angle_alpha    85.57845135651907
_cell_angle_beta     92.86764560524759
_cell_angle_gamma    91.66964631390691

_space_group_name_H-M_alt    "P 1"
_space_group_IT_number       1

loop_
  _space_group_symop_operation_xyz
  'x, y, z'

loop_
  _atom_site_type_symbol
  _atom_site_label
  _atom_site_symmetry_multiplicity
  _atom_site_fract_x
  _atom_site_fract_y
  _atom_site_fract_z
  _atom_site_occupancy
  N   N1        1.0  0.7222604913805935  0.4524042176438179  0.6265789503159072  1.0000
  C   C1        1.0  0.6611921288447079  0.4064770743767825  0.6159635963537797  1.0000
  C   C2        1.0  0.5852205009611198  0.34934942512514766  0.6027676375308819  1.0000
  C   C3        1.0  0.5266781953289329  0.3895317417897799  0.67766173707838  1.0000
  C   C4        1.0  0.452144198671091  0.33452247984382844  0.6650801930421064  1.0000
  C   C5        1.0  0.3900102135198893  0.3769491564503198  0.7443958845016303  1.0000
  C   C6        1.0  0.3154645571406529  0.3954011539158755  0.6886352042227482  1.0000
  C   C7        1.0  0.2569222748228834  0.4353995804511275  0.7636372514700178  1.0000
  C   C8        1.0  0.1809385274036932  0.45445678232917897  0.7056612222034766  1.0000
  N   N2        1.0  0.11986051218393838  0.4697723931396314  0.6590486456917508  1.0000
  C   C9        1.0  0.27243339892487206  0.45718929063558966  0.8949084721944451  1.0000
  C   C10       1.0  0.3461942461525422  0.43912638135858617  0.951056732684243  1.0000
  C   C11       1.0  0.4047248523706389  0.3993081357667101  0.8765123846521854  1.0000
  C   C12       1.0  0.4374413978906867  0.238653088142754  0.5761716985489871  1.0000
  C   C13       1.0  0.49597190015623255  0.19874955919330461  0.5016775834229221  1.0000
  C   C14       1.0  0.5697210653531628  0.2538713513968731  0.5148090503559779  1.0000
  H   H1        1.0  0.5390025817686572  0.4647433247149284  0.7442893988111747  1.0000
  H   H2        1.0  0.3031306485703785  0.3804020461569426  0.5866157348846881  1.0000
  H   H3        1.0  0.2275618095702585  0.4880881497041418  0.9537414944121434  1.0000
  H   H4        1.0  0.3580141784122374  0.4556830050996248  0.052702965318571104  1.0000
  H   H5        1.0  0.4612095810175407  0.3843298807518789  0.9226164985836871  1.0000
  H   H6        1.0  0.3809662044445528  0.19331558843656138  0.5655202314982302  1.0000
  H   H7        1.0  0.48416120865786494  0.12465406796944167  0.43385166372050743  1.0000
  H   H8        1.0  0.6145928222486151  0.22210296164451182  0.4564871247727049  1.0000
  C   C15       1.0  0.9211365061002906  0.07972647196200433  0.6428184108909771  1.0000
  C   C16       1.0  0.9257356095391988  0.06840466992511396  0.7797010692579591  1.0000
  C   C17       1.0  0.9279921467958958  0.9455259766372409  0.8490599279714368  1.0000
  C   C18       1.0  0.9255889096153675  0.8331104896743722  0.7797042786938737  1.0000
  C   C19       1.0  0.9209918552324674  0.8424404334939415  0.6428210383167814  1.0000
  C   C20       1.0  0.9187909550353475  0.9661885968560524  0.5751443033118793  1.0000
  C   C21       1.0  0.9328490245854669  0.9346123243600591  0.993865645480656  1.0000
  C   C22       1.0  0.8889349078591445  0.839254807709579  0.06431842477625072  1.0000
  C   C23       1.0  0.8935288397519884  0.8292192451499858  0.20059610195980315  1.0000
  C   C24       1.0  0.9418454591552778  0.9142547857934883  0.2682119489993342  1.0000
  C   C25       1.0  0.9859425475087106  0.009046901224308845  0.19914710819072845  1.0000
  C   C26       1.0  0.9814611128894529  0.019437263723953713  0.06286820352627154  1.0000
  S   S1        1.0  0.9478247077687373  0.9009209362812362  0.44308186702606545  1.0000
  C   C27       1.0  0.8707299094570152  0.013620656734195657  0.4563137197062306  1.0000
  H   H9        1.0  0.9194142216404616  0.41149539289284043  0.5906623692842976  1.0000
  H   H10       1.0  0.9265154998434294  0.1552849717290723  0.8327204447027079  1.0000
  H   H11       1.0  0.9283692041659553  0.7382333102693196  0.832690889016408  1.0000
  H   H12       1.0  0.9152434668274584  0.9741544203555327  0.46954519544731466  1.0000
  H   H13       1.0  0.9192018661271941  0.5185401241009228  0.5906641331939066  1.0000
  H   H14       1.0  0.8503183577020121  0.7735903812579301  0.014053059230918596  1.0000
  H   H15       1.0  0.8592237268565179  0.7556743858354331  0.25351331539195254  1.0000
  H   H16       1.0  0.02374244643743273  0.0747319848993433  0.2509346377057864  1.0000
  H   H17       1.0  0.016734403034170953  0.09265586925620495  0.011443027666986572  1.0000
  H   H18       1.0  0.8860921077557461  0.11060742552016656  0.4086930453005623  1.0000
  H   H19       1.0  0.8618315647810403  0.023941493832193128  0.560861061969204  1.0000
  H   H20       1.0  0.8167483097591637  0.975718043084146  0.40978537011143923  1.0000
  C   C28       1.0  0.9210950259284884  0.460973500910663  0.26147011139880605  1.0000
  C   C29       1.0  0.8481600049456658  0.39977656384551175  0.25900725094824506  1.0000
  C   C30       1.0  0.8111728767947209  0.3688805272296076  0.14060990509855675  1.0000
  C   C31       1.0  0.8480971527009511  0.39999925498504574  0.0236982259376608  1.0000
  C   C32       1.0  0.9210333181239889  0.46119341858807084  0.02416934149758787  1.0000
  C   C33       1.0  0.9571237985338826  0.4913386496927823  0.1435449212012474  1.0000
  C   C34       1.0  0.7340126860725565  0.304154278851666  0.13906712866357052  1.0000
  C   C35       1.0  0.6771858017185853  0.34333249794033605  0.043470718471972036  1.0000
  C   C36       1.0  0.6045794530772323  0.28238278935741423  0.04225653882274849  1.0000
  C   C37       1.0  0.5877409294257718  0.18183844898911294  0.13644227618453653  1.0000
  C   C38       1.0  0.6438851734328651  0.14183148574275606  0.23157727352425672  1.0000
  C   C39       1.0  0.7165390184688422  0.20260984099732382  0.23315773657041472  1.0000
  S   S2        1.0  0.4946084970827355  0.1034997691187245  0.13443666875107607  1.0000
  C   C40       1.0  0.45524371811837405  0.21599430937548525  0.2399530929189655  1.0000
  H   H21       1.0  0.9488978044499823  0.48424530305538993  0.5898664968858516  1.0000
  H   H22       1.0  0.8194923661724189  0.3776021864896175  0.3492150816969217  1.0000
  H   H23       1.0  0.8202811129691032  0.3747830243207877  0.9323539878189662  1.0000
  H   H24       1.0  0.013390241102644529  0.5385487058897773  0.14467655569894577  1.0000
  H   H25       1.0  0.948808330342618  0.48456885513053427  0.6968896274998619  1.0000
  H   H26       1.0  0.688579097015878  0.42219720158034346  0.9707243695065411  1.0000
  H   H27       1.0  0.5613460637085482  0.3138271859610957  0.9683952442109582  1.0000
  H   H28       1.0  0.6313191616423182  0.06361152264639891  0.3043527312378975  1.0000
  H   H29       1.0  0.7593600247534852  0.16909646298442427  0.3068845003432814  1.0000
  H   H30       1.0  0.4876863704727134  0.21138144028881656  0.33561649302612473  1.0000
  H   H31       1.0  0.3943656406446648  0.18820650951409434  0.2557534044986254  1.0000
  H   H32       1.0  0.45819014814449577  0.3168440009907687  0.19360432199516286  1.0000
  Zn  Zn1       1.0  0.8369992688374344  0.4574128174414891  0.6359565010942434  1.0000
  Zn  Zn2       1.0  0.005121721636563992  0.46475314878134566  0.6496817268660691  1.0000
  C   C41       1.0  0.9210442444441438  0.4559781839241386  0.8800026751454368  1.0000
  C   C42       1.0  0.9210785816006805  0.4661895010814039  0.40563583015950244  1.0000
  C   C43       1.0  0.9210156466366455  0.6982695998981447  0.6376452898592615  1.0000
  C   C44       1.0  0.9211071223300962  0.22389652234843016  0.6479932799920158  1.0000
  O   O1        1.0  0.984874658468482  0.47071999023815025  0.45922781397715284  1.0000
  O   O2        1.0  0.9848492193782113  0.45701785659817595  0.8368274462780498  1.0000
  O   O3        1.0  0.9848252661017102  0.6526712020282379  0.6411220727292297  1.0000
  O   O4        1.0  0.9848985543822955  0.2750666515653091  0.6549330854727791  1.0000
  O   O5        1.0  0.8572223787197614  0.6470993121540431  0.630705137796957  1.0000
  O   O6        1.0  0.8572463317024033  0.4514475269794649  0.8264104421088627  1.0000
  O   O7        1.0  0.8572717709786222  0.46514961491634765  0.4488092484903652  1.0000
  O   O8        1.0  0.8572956668831817  0.2694962669828027  0.6445146173486094  1.0000
