data_image0
_chemical_formula_structural       NC12NC2H8C12SCH12C13NH9Zn2C4O8
_chemical_formula_sum              "N3 C44 H29 S1 Zn2 O8"
_cell_length_a       17.80743265337812
_cell_length_b       10.299776766347529
_cell_length_c       10.298528502251457
_cell_angle_alpha    85.54283687761513
_cell_angle_beta     91.53111058914057
_cell_angle_gamma    89.41689066054833

_space_group_name_H-M_alt    "P 1"
_space_group_IT_number       1

loop_
  _space_group_symop_operation_xyz
  'x, y, z'

loop_
  _atom_site_type_symbol
  _atom_site_label
  _atom_site_symmetry_multiplicity
  _atom_site_fract_x
  _atom_site_fract_y
  _atom_site_fract_z
  _atom_site_occupancy
  N   N1        1.0  0.7071894414824442  0.40710025674641637  0.6012265753820389  1.0000
  C   C1        1.0  0.6563655534144289  0.4366797317501172  0.5325213546034826  1.0000
  C   C2        1.0  0.5931356220938744  0.4734744504391648  0.4470607088249776  1.0000
  C   C3        1.0  0.6048548768483759  0.527533243574061  0.32042899244730605  1.0000
  C   C4        1.0  0.5435325294869922  0.5628236537283087  0.2373645391316508  1.0000
  C   C5        1.0  0.47033658895319674  0.544318933943239  0.28027183708912307  1.0000
  C   C6        1.0  0.4576405733363418  0.4901411965501179  0.40737174298935863  1.0000
  C   C7        1.0  0.5198202365276747  0.4548540452849703  0.49041968292707394  1.0000
  C   C8        1.0  0.3798765744930399  0.470521488587166  0.4531396082117587  1.0000
  C   C9        1.0  0.361083222204382  0.4976692936671878  0.5801987945028779  1.0000
  C   C10       1.0  0.2878573271286635  0.47920613470898554  0.6231466612617953  1.0000
  C   C11       1.0  0.23248184770168112  0.4333406471695518  0.5398733928015562  1.0000
  C   C12       1.0  0.15711942649657862  0.41432424251147193  0.5842223205833823  1.0000
  N   N2        1.0  0.0965333767174005  0.399036332130555  0.6198758076089685  1.0000
  C   C13       1.0  0.2505837290597669  0.4060237665836073  0.41335722942752207  1.0000
  C   C14       1.0  0.3237567707345299  0.42450178815554906  0.370153448213274  1.0000
  H   H1        1.0  0.661318353685608  0.5423673193805867  0.2859887544881312  1.0000
  H   H2        1.0  0.5527243592332108  0.604949987113572  0.13957626207868445  1.0000
  H   H3        1.0  0.4236927840512721  0.5739740796318307  0.2146749044497025  1.0000
  H   H4        1.0  0.5113270571784914  0.4113424483076509  0.5880834530191847  1.0000
  H   H5        1.0  0.4027513850321627  0.5348285880841663  0.6457803517305036  1.0000
  H   H6        1.0  0.2744080911080792  0.5010220134107768  0.7211670106845873  1.0000
  H   H7        1.0  0.208198437512554  0.37013162285807866  0.3481887155253065  1.0000
  H   H8        1.0  0.33667790113271506  0.4011502789712562  0.2724364144828182  1.0000
  C   C15       1.0  0.9019358408493132  0.021701627203303486  0.6105531422239108  1.0000
  C   C16       1.0  0.906446447051713  0.01000039055057611  0.7472994501771577  1.0000
  C   C17       1.0  0.9086596761203732  0.8869341560733174  0.8165917875095918  1.0000
  C   C18       1.0  0.9063027940976228  0.7747155843116748  0.7473077614916988  1.0000
  C   C19       1.0  0.9017941943646113  0.7844248321494919  0.6105608001744578  1.0000
  C   C20       1.0  0.899635533115744  0.9083559301739073  0.5429489415826732  1.0000
  C   C21       1.0  0.9134231093794438  0.8756196455818658  0.9612535555503932  1.0000
  C   C22       1.0  0.8704246571263392  0.7830248045242689  0.03324553475382863  1.0000
  C   C23       1.0  0.8749301681579346  0.7726105157295766  0.16938693714936404  1.0000
  C   C24       1.0  0.9222467698791895  0.8545157707691786  0.2353342747239071  1.0000
  C   C25       1.0  0.9654244648226832  0.9465326494984656  0.16472411044845514  1.0000
  C   C26       1.0  0.9610291145501326  0.9572945489737855  0.028577568393697295  1.0000
  S   S1        1.0  0.9281108056222145  0.8406905519208931  0.41002639270042396  1.0000
  C   C27       1.0  0.8526178649566596  0.9583093596738195  0.42594140998474017  1.0000
  H   H9        1.0  0.9002466511164708  0.3536131993422895  0.558448007168528  1.0000
  H   H10       1.0  0.9072128594617017  0.09679773307081119  0.800300838484171  1.0000
  H   H11       1.0  0.9090280627539129  0.6796276144668834  0.8002068172120516  1.0000
  H   H12       1.0  0.8961563058709359  0.9166144377942504  0.43745500403172133  1.0000
  H   H13       1.0  0.9000387060972258  0.4606715017036246  0.5584571558074682  1.0000
  H   H14       1.0  0.8326075542729093  0.7198598676340746  0.9843143582623546  1.0000
  H   H15       1.0  0.8413402512190311  0.701225144950583  0.22350618759663166  1.0000
  H   H16       1.0  0.002441955524948858  0.009769487457739201  0.21520611123812605  1.0000
  H   H17       1.0  0.995567177235732  0.028290855082861777  0.9759169452441205  1.0000
  H   H18       1.0  0.8676585636533068  0.0543440283224077  0.3777783295726823  1.0000
  H   H19       1.0  0.843909692395236  0.9691336187208003  0.5308161906859916  1.0000
  H   H20       1.0  0.7997550203789143  0.9238859263105278  0.3812821955659289  1.0000
  C   C28       1.0  0.9018756609969252  0.4031894854577833  0.2291405972806726  1.0000
  C   C29       1.0  0.8237696860008876  0.4246689118297069  0.22290967850249888  1.0000
  C   C30       1.0  0.7842005348995214  0.4354123189291421  0.10260630090344924  1.0000
  C   C31       1.0  0.823747308956938  0.4244045187547638  0.9876488980389162  1.0000
  C   C32       1.0  0.9018543509631646  0.40293694979983474  0.9919732912080184  1.0000
  C   C33       1.0  0.940418383630619  0.39246413835251026  0.11316202014833454  1.0000
  C   C34       1.0  0.7016268106140401  0.4581146698823153  0.09702663818498536  1.0000
  C   C35       1.0  0.6684407667705854  0.5467321014109277  0.17635477086464646  1.0000
  C   C36       1.0  0.5907142135416567  0.5680547810858261  0.17098315945169373  1.0000
  C   C37       1.0  0.545139450186955  0.5011408888229416  0.08644983677584084  1.0000
  C   C38       1.0  0.577583971141252  0.4127751471613683  0.007190197615450922  1.0000
  C   C39       1.0  0.6553025225800667  0.3913582696096338  0.01232481373297678  1.0000
  C   C40       1.0  0.4651198730146068  0.5231433041427114  0.08104042200470007  1.0000
  N   N3        1.0  0.4007895287834345  0.5408318853886891  0.07669165232136677  1.0000
  H   H21       1.0  0.04940324003545715  0.3617947401945958  0.4482989349589892  1.0000
  H   H22       1.0  0.7934281731987332  0.4313050905524518  0.31197208671798626  1.0000
  H   H23       1.0  0.7936877668596551  0.43437421106651186  0.8945052879934243  1.0000
  H   H24       1.0  0.0006161674642033432  0.37591424201407153  0.11722943067193725  1.0000
  H   H25       1.0  0.04952044225886154  0.3631821004985336  0.7927603541555128  1.0000
  H   H26       1.0  0.7026987532910456  0.6007902543680779  0.24129975277780313  1.0000
  H   H27       1.0  0.5662101143530455  0.6369518677065997  0.23251777413541896  1.0000
  H   H28       1.0  0.542806466737022  0.36017789994285  0.941648630026136  1.0000
  H   H29       1.0  0.6790692075814831  0.32134628036563173  0.9513016363264901  1.0000
  Zn  Zn1       1.0  0.8195456946728618  0.40476971255507  0.6066158287862942  1.0000
  Zn  Zn2       1.0  0.9841771227047437  0.4013562794202654  0.6144971484676371  1.0000
  C   C41       1.0  0.9018576616888491  0.39781109802175507  0.8477814701575472  1.0000
  C   C42       1.0  0.9018669531509077  0.4083164952464271  0.3733317206588611  1.0000
  C   C43       1.0  0.901817226157098  0.6402557105864208  0.6053833328662002  1.0000
  C   C44       1.0  0.9019073327933399  0.16587032353050613  0.6157299244924914  1.0000
  O   O1        1.0  0.9643408007248089  0.40873612077491095  0.42471449855527577  1.0000
  O   O2        1.0  0.9643352588716274  0.3947997761326323  0.8023800576355953  1.0000
  O   O3        1.0  0.9643017644139013  0.5905768839245065  0.6066418064596988  1.0000
  O   O4        1.0  0.9643742390059757  0.2129590234702119  0.6204526496551219  1.0000
  O   O5        1.0  0.8393485221910026  0.593166969671377  0.6006603249024698  1.0000
  O   O6        1.0  0.8393820163574214  0.3973914221970112  0.7963985068397441  1.0000
  O   O7        1.0  0.8393875583126016  0.411327722099464  0.4187313861664177  1.0000
  O   O8        1.0  0.8394209965897012  0.2155506154738429  0.6144696346459753  1.0000
