data_image0
_chemical_formula_structural       NC9NC5H8C12NH11C13F3H9Zn2C4O8
_chemical_formula_sum              "N3 C43 H28 F3 Zn2 O8"
_cell_length_a       17.807436237873137
_cell_length_b       10.299770795358612
_cell_length_c       10.2985328690268
_cell_angle_alpha    85.57387741516429
_cell_angle_beta     89.39824995993841
_cell_angle_gamma    88.40764042794568

_space_group_name_H-M_alt    "P 1"
_space_group_IT_number       1

loop_
  _space_group_symop_operation_xyz
  'x, y, z'

loop_
  _atom_site_type_symbol
  _atom_site_label
  _atom_site_symmetry_multiplicity
  _atom_site_fract_x
  _atom_site_fract_y
  _atom_site_fract_z
  _atom_site_occupancy
  N   N1        1.0  0.7075778176744101  0.3872916923547951  0.5568941542087278  1.0000
  C   C1        1.0  0.6469833952908777  0.352098932179145  0.5458726161474872  1.0000
  C   C2        1.0  0.5716105937364763  0.3083230141448259  0.5321630195002078  1.0000
  C   C3        1.0  0.5535005599280771  0.23687612518054824  0.42715877299532456  1.0000
  C   C4        1.0  0.4803174345182721  0.19426156139103323  0.4137650137320821  1.0000
  C   C5        1.0  0.424195555278922  0.22271635102569753  0.5053430813251705  1.0000
  C   C6        1.0  0.3464207833488372  0.17754298578018157  0.49119105390291495  1.0000
  C   C7        1.0  0.2842604625655127  0.2593063029133851  0.5171244625532072  1.0000
  C   C8        1.0  0.2109349968585039  0.21648870754088878  0.5037444039679719  1.0000
  C   C9        1.0  0.1477250866400315  0.3009434598419134  0.5300414973914482  1.0000
  N   N2        1.0  0.0969173060347895  0.3688392381146641  0.551183634494748  1.0000
  C   C10       1.0  0.1991862596611085  0.09164981007377704  0.46440560860787206  1.0000
  C   C11       1.0  0.2604892076820169  0.009872638191136263  0.43846381089078035  1.0000
  C   C12       1.0  0.3336951596934868  0.05229563398657211  0.45164135181037546  1.0000
  C   C13       1.0  0.4429970940060048  0.29465766898497203  0.610566528898371  1.0000
  C   C14       1.0  0.5162330480823296  0.33708179214062195  0.6238046430263777  1.0000
  H   H1        1.0  0.5958874525125906  0.21436886955111722  0.35544265739644865  1.0000
  H   H2        1.0  0.4673906636058539  0.1405541235235821  0.3308431994154577  1.0000
  H   H3        1.0  0.2927769239800328  0.3567790594733671  0.545994772448448  1.0000
  H   H4        1.0  0.1427145724633895  0.05761085410637801  0.45381303704241716  1.0000
  H   H5        1.0  0.2512744805452178  0.9132195988053965  0.4083929241817894  1.0000
  H   H6        1.0  0.38032320346697035  0.9865454261733267  0.43259752309604216  1.0000
  H   H7        1.0  0.401327058182199  0.31662628367063084  0.6835772898287871  1.0000
  H   H8        1.0  0.5296883277800757  0.3920094781649348  0.7056846404255013  1.0000
  C   C15       1.0  0.9021830748358638  0.9967000093887036  0.5540794575029566  1.0000
  C   C16       1.0  0.8803708936964223  0.006868582613903662  0.4229792407738808  1.0000
  C   C17       1.0  0.8693873947252863  0.8948816446209767  0.35651361896107203  1.0000
  C   C18       1.0  0.8805083955581168  0.7715804312944848  0.4229086660970467  1.0000
  C   C19       1.0  0.9023192172112446  0.7594206308572504  0.5540094533539657  1.0000
  C   C20       1.0  0.9130347812558481  0.8725407295545685  0.6188605717900508  1.0000
  C   C21       1.0  0.8463117019743446  0.9066927944839842  0.21781719403498  1.0000
  C   C22       1.0  0.7916063267127562  0.0004494923684459362  0.17342905489762517  1.0000
  C   C23       1.0  0.7699196971091661  0.011435394311863245  0.0428864463400247  1.0000
  C   C24       1.0  0.802528069812922  0.929102851137375  0.9546577029680798  1.0000
  C   C25       1.0  0.8570531199082366  0.8355525070113803  0.9981578621690486  1.0000
  C   C26       1.0  0.8787999289337827  0.8243077179118165  0.12866961283376255  1.0000
  N   N3        1.0  0.7803134497577999  0.9404729126721817  0.8211381119456433  1.0000
  H   H9        1.0  0.9104625764819995  0.3202790900047132  0.6040523202843942  1.0000
  H   H10       1.0  0.8728682704190359  0.10211365855243693  0.3717332366855035  1.0000
  H   H11       1.0  0.8711200373707395  0.6849809226174259  0.37263049310526974  1.0000
  H   H12       1.0  0.9298613199421476  0.8639281268577459  0.7199985916942406  1.0000
  H   H13       1.0  0.9106628127259607  0.4273331899254901  0.6039497523035229  1.0000
  H   H14       1.0  0.7648860307151423  0.06414735401531346  0.24002909771325487  1.0000
  H   H15       1.0  0.7275626811036005  0.08391390224749351  0.010593692456569048  1.0000
  H   H16       1.0  0.8828442900211781  0.7715529135150639  0.9308821227660364  1.0000
  H   H17       1.0  0.9217327871564044  0.7523117468140399  0.15951427156030795  1.0000
  H   H18       1.0  0.804301498096012  0.8795203438615313  0.7546417597708346  1.0000
  H   H19       1.0  0.7397147771121824  0.009927751110939464  0.7877963246080726  1.0000
  C   C27       1.0  0.9022295349380386  0.37793939465669935  0.17264732467647748  1.0000
  C   C28       1.0  0.9775529970797757  0.3334781983333108  0.1737593032167224  1.0000
  C   C29       1.0  0.015719980774250075  0.31106804240233843  0.05715188479781008  1.0000
  C   C30       1.0  0.977597393680172  0.3337317105837414  0.9384579527511674  1.0000
  C   C31       1.0  0.9022727588146358  0.378181257671788  0.9354416432302677  1.0000
  C   C32       1.0  0.8650698643691506  0.39999607140689264  0.05302666753548224  1.0000
  C   C33       1.0  0.09535481942504664  0.2640741432352225  0.05926194787272521  1.0000
  C   C34       1.0  0.1472380272396141  0.31621555483334784  0.966954444497309  1.0000
  C   C35       1.0  0.22218510491651755  0.2720901151114705  0.9689617735582234  1.0000
  C   C36       1.0  0.2466125509412218  0.17353646538563305  0.06208367889169186  1.0000
  C   C37       1.0  0.19516453331608186  0.12319347065445974  0.1559619641410619  1.0000
  C   C38       1.0  0.1202223518206802  0.16735173324677688  0.15406548130293518  1.0000
  C   C39       1.0  0.3280568600474161  0.1293899935500269  0.067176244608814  1.0000
  F   F1        1.0  0.36659834402009683  0.20687779529884986  0.14608856852490737  1.0000
  F   F2        1.0  0.36005280517050764  0.1390467226334735  0.9438487525432113  1.0000
  F   F3        1.0  0.33499132992554026  0.0009404250788664914  0.11697204190523203  1.0000
  H   H20       1.0  0.7600395411340297  0.462766252013197  0.37780585208649153  1.0000
  H   H21       1.0  0.006970377467548028  0.3179244645476873  0.26540810189487973  1.0000
  H   H22       1.0  0.006446120978660819  0.3149829536855131  0.8484056965067701  1.0000
  H   H23       1.0  0.807016336632862  0.43425795705037507  0.051436523623906494  1.0000
  H   H24       1.0  0.7597987235889778  0.46143804387566956  0.7224752320974317  1.0000
  H   H25       1.0  0.1301321131193942  0.3927904139080043  0.8944693010897691  1.0000
  H   H26       1.0  0.26114158432517476  0.3154700236871779  0.8979010823367775  1.0000
  H   H27       1.0  0.21287157753847707  0.049481652558103884  0.23088091117166587  1.0000
  H   H28       1.0  0.08153662726441624  0.12491301771794228  0.22614179335961615  1.0000
  Zn  Zn1       1.0  0.8199327824335406  0.3819632497842753  0.5552537332396341  1.0000
  Zn  Zn2       1.0  0.9845623217939188  0.37415709799679675  0.5528347338373312  1.0000
  C   C40       1.0  0.9022619910469604  0.37296197351480886  0.791257674956759  1.0000
  C   C41       1.0  0.9022349112296697  0.3831599276677864  0.31683089303040535  1.0000
  C   C42       1.0  0.9022893276440069  0.61524873318176  0.5488472261786177  1.0000
  C   C43       1.0  0.902207518181476  0.14087161039870222  0.5592414120208482  1.0000
  O   O1        1.0  0.9647127667641202  0.38194392662753773  0.36430221855634737  1.0000
  O   O2        1.0  0.9647341464227275  0.36825230613867266  0.741950011072446  1.0000
  O   O3        1.0  0.9647553789400256  0.5639019690666731  0.5462018708413281  1.0000
  O   O4        1.0  0.9646914780660516  0.18629427562250744  0.560050262230176  1.0000
  O   O5        1.0  0.8398035699814254  0.5698260748238326  0.5480382056654431  1.0000
  O   O6        1.0  0.8397823377352919  0.3741779721632339  0.7437862765029137  1.0000
  O   O7        1.0  0.8397609580300806  0.38786954689911846  0.36613692247392615  1.0000
  O   O8        1.0  0.8397396693328001  0.192219886636386  0.5618850635236987  1.0000
