data_image0
_chemical_formula_structural       NC11NC3H8C13OH12C13OH12Zn2C4O8
_chemical_formula_sum              "N2 C44 H32 O10 Zn2"
_cell_length_a       17.807433833752565
_cell_length_b       10.299150109392551
_cell_length_c       10.299153481560891
_cell_angle_alpha    85.56204594622189
_cell_angle_beta     88.54091418840825
_cell_angle_gamma    90.66566965777596

_space_group_name_H-M_alt    "P 1"
_space_group_IT_number       1

loop_
  _space_group_symop_operation_xyz
  'x, y, z'

loop_
  _atom_site_type_symbol
  _atom_site_label
  _atom_site_symmetry_multiplicity
  _atom_site_fract_x
  _atom_site_fract_y
  _atom_site_fract_z
  _atom_site_occupancy
  N   N1        1.0  0.7068961782409412  0.4380129309605856  0.5341717356253324  1.0000
  C   C1        1.0  0.6560944964750411  0.4033095096025907  0.6007455794512773  1.0000
  C   C2        1.0  0.5928920767540147  0.3601413128161839  0.6835549459513561  1.0000
  C   C3        1.0  0.6046519139319835  0.2966340989580185  0.8062943950627983  1.0000
  C   C4        1.0  0.5433561862755658  0.25514491335893963  0.8868192717164245  1.0000
  C   C5        1.0  0.4701464412084547  0.2768498989531172  0.8452455983926324  1.0000
  C   C6        1.0  0.4574097035682981  0.3405114968545022  0.7220459019127852  1.0000
  C   C7        1.0  0.3796310185133003  0.3635456193756794  0.6776911389657414  1.0000
  C   C8        1.0  0.3608284820514019  0.3466218171279096  0.5481172025893788  1.0000
  C   C9        1.0  0.2875887941336579  0.3682880547814238  0.5064994711718656  1.0000
  C   C10       1.0  0.2322083699829712  0.40719632683988327  0.5936352977397419  1.0000
  C   C11       1.0  0.156831606498358  0.4295205488828009  0.5506560547185215  1.0000
  N   N2        1.0  0.09623406293990551  0.4474675648733879  0.5161038713617632  1.0000
  C   C12       1.0  0.2503192133691781  0.42433051511360875  0.7226780310574017  1.0000
  C   C13       1.0  0.3235061895829979  0.4026294441494218  0.764551202362102  1.0000
  C   C14       1.0  0.5195627467546173  0.3819961235665159  0.6415374425573415  1.0000
  H   H1        1.0  0.6611266207897277  0.27923131680244384  0.8396656959117146  1.0000
  H   H2        1.0  0.5525796003759171  0.2057258430829394  0.9815717714356993  1.0000
  H   H3        1.0  0.42352439883418325  0.24231600399475317  0.9086961164542868  1.0000
  H   H4        1.0  0.4025009894067209  0.31495100751970395  0.4794118330220909  1.0000
  H   H5        1.0  0.27413283538351  0.3543674643455086  0.4064702023006397  1.0000
  H   H6        1.0  0.2079300616298519  0.45477801014875374  0.7908690516479822  1.0000
  H   H7        1.0  0.3364333981172691  0.41809548379308725  0.8643971911461434  1.0000
  H   H8        1.0  0.5110375973776426  0.4327777352906328  0.5470187933473374  1.0000
  C   C15       1.0  0.9016395406799107  0.061342462935820574  0.5252784530470085  1.0000
  C   C16       1.0  0.9002788625177853  0.04955650683996815  0.6621531021587581  1.0000
  C   C17       1.0  0.8995235579493919  0.9264444896839776  0.7312907941886633  1.0000
  C   C18       1.0  0.9001339580680565  0.8142975070719498  0.661796429660511  1.0000
  C   C19       1.0  0.9014978833572551  0.8241281682098335  0.5250080293208697  1.0000
  C   C20       1.0  0.9022447701909188  0.9481112172528648  0.45754832594730765  1.0000
  C   C21       1.0  0.8980775493284237  0.9149578416705135  0.8759988352895087  1.0000
  C   C22       1.0  0.8518943134013592  0.8209815825547888  0.9461638465111428  1.0000
  C   C23       1.0  0.8505087314531916  0.8102534631474245  0.08233512359594086  1.0000
  C   C24       1.0  0.8957740769821738  0.8923552441522035  0.1507801971210596  1.0000
  C   C25       1.0  0.9412386815586166  0.987267927495444  0.0812911105041072  1.0000
  C   C26       1.0  0.942641702096409  0.9981722673026503  0.9451187354357244  1.0000
  C   C27       1.0  0.8927055262650415  0.8831430165211352  0.29700969761665896  1.0000
  O   O1        1.0  0.8365624634621046  0.9649701339056986  0.33985600070154187  1.0000
  H   H9        1.0  0.9037198112148419  0.29086999102450695  0.26694378864138146  1.0000
  H   H10       1.0  0.8987618479803978  0.13631158083995043  0.7152323797724582  1.0000
  H   H11       1.0  0.9005715151399994  0.719204005546416  0.7146099382654965  1.0000
  H   H12       1.0  0.9032946807994684  0.9564100572909618  0.3520394383826586  1.0000
  H   H13       1.0  0.9019719322866786  0.5004326893621561  0.4723967596551182  1.0000
  H   H14       1.0  0.8159580365172527  0.7570822229445381  0.8957225441126171  1.0000
  H   H15       1.0  0.8139725308602873  0.7380540497489013  0.13440649784683367  1.0000
  H   H16       1.0  0.9757912843374917  0.05268691479080023  0.13254283473390704  1.0000
  H   H17       1.0  0.9792032099570277  0.0708180076714775  0.8938528345910133  1.0000
  H   H18       1.0  0.9479722085675332  0.91232820154128  0.3346151828540064  1.0000
  H   H19       1.0  0.8805032882928894  0.7808384972136514  0.3353887603832816  1.0000
  H   H20       1.0  0.8368570484841158  0.9553335078940349  0.4364695583732786  1.0000
  C   C28       1.0  0.9015042188983896  0.44258632960626776  0.1437737258739873  1.0000
  C   C29       1.0  0.8238382856199534  0.41631816593371007  0.14805828777997543  1.0000
  C   C30       1.0  0.7845962585250039  0.40316574244231207  0.03305671185444381  1.0000
  C   C31       1.0  0.8240154717959451  0.41663979257085915  0.9127419822945817  1.0000
  C   C32       1.0  0.9016332207074199  0.44288435017258765  0.9065127172420526  1.0000
  C   C33       1.0  0.93992438069123  0.45570076866285203  0.022583144659290344  1.0000
  C   C34       1.0  0.7024842109014294  0.3754069076659585  0.038559618541931906  1.0000
  C   C35       1.0  0.6549588201601554  0.43949469428303045  0.9480737964917632  1.0000
  C   C36       1.0  0.5776865279421065  0.41341593826513967  0.9533302958023904  1.0000
  C   C37       1.0  0.5466391872837598  0.32194262602195334  0.04826405606813777  1.0000
  C   C38       1.0  0.593660395646874  0.25893896182522114  0.13969140772014565  1.0000
  C   C39       1.0  0.6709362572598833  0.2849881548054085  0.1346129031933503  1.0000
  C   C40       1.0  0.4633913037686537  0.29663253765141784  0.056052182841900944  1.0000
  O   O2        1.0  0.4296323909708255  0.38340767182038515  0.13709418973349208  1.0000
  H   H21       1.0  0.048006820970374564  0.4929961668602183  0.34291891148746667  1.0000
  H   H22       1.0  0.7935520456140346  0.4078183837044842  0.24094217519651262  1.0000
  H   H23       1.0  0.7942109832006431  0.404862887438169  0.8239500080444748  1.0000
  H   H24       1.0  0.9997928658076672  0.4759476172631998  0.01849416442032914  1.0000
  H   H25       1.0  0.931477782097232  0.45306461107231044  0.5766351016224434  1.0000
  H   H26       1.0  0.6774023806808912  0.5113015098653519  0.8744487161508081  1.0000
  H   H27       1.0  0.5420330108376507  0.4648345435360026  0.8834850382385686  1.0000
  H   H28       1.0  0.5705236939897211  0.18932188357791513  0.21478773360616277  1.0000
  H   H29       1.0  0.7061383113116776  0.23335807027711186  0.20500239799469644  1.0000
  H   H30       1.0  0.45148686521994463  0.19454805036073797  0.09546048653841543  1.0000
  H   H31       1.0  0.43960986821239223  0.30942136133421916  0.9570200871676704  1.0000
  H   H32       1.0  0.3750243524800099  0.3627264582492218  0.1389320197964652  1.0000
  Zn  Zn1       1.0  0.8192506833136676  0.4407378620982534  0.5289652260486586  1.0000
  Zn  Zn2       1.0  0.9838795468691125  0.4447320174737992  0.5213209707338193  1.0000
  C   C41       1.0  0.9016081071823382  0.4376539052133668  0.7623406412398359  1.0000
  C   C42       1.0  0.9015239204597352  0.44781765676853014  0.28794559895324245  1.0000
  C   C43       1.0  0.9015199169476659  0.6799433558578154  0.5198841266357774  1.0000
  C   C44       1.0  0.90161205481958  0.2055266443671706  0.5304021859577364  1.0000
  O   O3        1.0  0.9640063292847298  0.45108343293069164  0.3334300435403006  1.0000
  O   O4        1.0  0.9640751966620621  0.4374186206198265  0.7110540102456178  1.0000
  O   O5        1.0  0.9640031399569973  0.6330703962779747  0.5152686979107968  1.0000
  O   O6        1.0  0.9640783297949229  0.2554316651624893  0.5292152611054755  1.0000
  O   O7        1.0  0.8390518442081045  0.6300382130479651  0.5210709382787801  1.0000
  O   O8        1.0  0.8391239006082439  0.43438799778512927  0.7168561808149438  1.0000
  O   O9        1.0  0.8390550330252358  0.4480527642277292  0.33923065272025443  1.0000
  O   O10       1.0  0.8391270335505476  0.2524009872079831  0.5350159676568533  1.0000
