data_image0
_chemical_formula_structural       NC10NC3NH7C16H10C15H12Zn2C4O8
_chemical_formula_sum              "N3 C48 H29 Zn2 O8"
_cell_length_a       19.210446455230148
_cell_length_b       10.29914801576943
_cell_length_c       10.299157797200024
_cell_angle_alpha    85.52082761248347
_cell_angle_beta     90.0131967510761
_cell_angle_gamma    89.9607823085547

_space_group_name_H-M_alt    "P 1"
_space_group_IT_number       1

loop_
  _space_group_symop_operation_xyz
  'x, y, z'

loop_
  _atom_site_type_symbol
  _atom_site_label
  _atom_site_symmetry_multiplicity
  _atom_site_fract_x
  _atom_site_fract_y
  _atom_site_fract_z
  _atom_site_occupancy
  N   N1        1.0  0.6553462387351537  0.4207183406130255  0.5667098830513531  1.0000
  C   C1        1.0  0.595117845859197  0.42292593776274634  0.5669402231719214  1.0000
  C   C2        1.0  0.5203136002317621  0.4256629540405452  0.567225585066764  1.0000
  C   C3        1.0  0.48471157009960336  0.5418968659107817  0.5822949859349935  1.0000
  C   C4        1.0  0.4120460851333664  0.542048429512064  0.5822423292569885  1.0000
  C   C5        1.0  0.3751468981280032  0.4263719433806685  0.5673118093763236  1.0000
  C   C6        1.0  0.2978246735702715  0.42501542000398995  0.5671617134705864  1.0000
  C   C7        1.0  0.2600603716064183  0.5286123910733225  0.503757874610056  1.0000
  C   C8        1.0  0.1872819285380477  0.5272100967725957  0.5036493157898931  1.0000
  C   C9        1.0  0.1512663760116996  0.4224683744198794  0.5668935003915045  1.0000
  C   C10       1.0  0.0763367663250599  0.4211662446357183  0.5667571483117337  1.0000
  N   N2        1.0  0.0160988419491725  0.4201192880668281  0.5666475561338791  1.0000
  C   C11       1.0  0.188307020259891  0.31899711212947146  0.6302722826432849  1.0000
  C   C12       1.0  0.2610873117487666  0.32012510423392326  0.6304311921314516  1.0000
  C   C13       1.0  0.4133589380827392  0.31195832495171394  0.5525299121167382  1.0000
  N   N3        1.0  0.48412903199284923  0.3144034174797683  0.5526945746885441  1.0000
  H   H1        1.0  0.5128192860007895  0.6313329481709076  0.5943108175447924  1.0000
  H   H2        1.0  0.3847843351403227  0.6320659905088237  0.5956527453845732  1.0000
  H   H3        1.0  0.286779138118832  0.6098869227867088  0.4527341859250662  1.0000
  H   H4        1.0  0.1591272797032718  0.6076564597393821  0.45395640241532864  1.0000
  H   H5        1.0  0.1609482719940794  0.2375873164783442  0.679866064195304  1.0000
  H   H6        1.0  0.2885974316821016  0.23979749557999752  0.6815618673822139  1.0000
  H   H7        1.0  0.3870864457359823  0.22107779795208837  0.5390735673803915  1.0000
  C   C14       1.0  0.8356763322649572  0.039017485945731956  0.5668442882061004  1.0000
  C   C15       1.0  0.8197543982072517  0.04868119188745412  0.43336518014870173  1.0000
  C   C16       1.0  0.8117327579226584  0.9364510979445031  0.365523816638182  1.0000
  C   C17       1.0  0.8198472346560596  0.8134293392208649  0.43296054992372146  1.0000
  C   C18       1.0  0.835775391399323  0.801810156376369  0.5665244148034285  1.0000
  C   C19       1.0  0.8435931115998527  0.9151208056821629  0.6326438861479502  1.0000
  C   C20       1.0  0.7948894437023823  0.947719738757349  0.22431901790539355  1.0000
  C   C21       1.0  0.8278051883593346  0.8667045395147848  0.1390906090738424  1.0000
  C   C22       1.0  0.8119285230792952  0.8774354127002941  0.006194099769061712  1.0000
  C   C23       1.0  0.7629729960373642  0.9690825850019116  0.9567216657297473  1.0000
  C   C24       1.0  0.7299300529732073  0.050078680846898704  0.04066607986451665  1.0000
  C   C25       1.0  0.7457570921216915  0.03958914973098637  0.17358354555752697  1.0000
  C   C26       1.0  0.7466536398634323  0.9800062855323459  0.8198922553413803  1.0000
  C   C27       1.0  0.7329863551006244  0.989154780007169  0.7052996036146157  1.0000
  C   C28       1.0  0.7169821260028949  0.999867543792798  0.5711127769602684  1.0000
  C   C29       1.0  0.7033171348556639  0.009014651948134222  0.4565386336932695  1.0000
  H   H8        1.0  0.8417647943246228  0.3627750658806328  0.6182001718166485  1.0000
  H   H9        1.0  0.8144921904112137  0.14376020985267002  0.3814529438129526  1.0000
  H   H10       1.0  0.8127884109427675  0.726562614605048  0.3815432347155552  1.0000
  H   H11       1.0  0.8558720722056555  0.9069510536506207  0.7356006044655212  1.0000
  H   H12       1.0  0.8654079159009498  0.5725736587663861  0.8187975307602933  1.0000
  H   H13       1.0  0.8664813467055166  0.7962253153999691  0.17493573708881316  1.0000
  H   H14       1.0  0.8379578317623146  0.8144877603878359  0.9420109614229362  1.0000
  H   H15       1.0  0.6918072697966287  0.12112173263686632  0.0034508827179156043  1.0000
  H   H16       1.0  0.7189161542951774  0.10214857380463149  0.23696398939609442  1.0000
  H   H17       1.0  0.6913181723979259  0.017046585493247113  0.35593287496138526  1.0000
  C   C30       1.0  0.8356451720225925  0.42052022115218124  0.18529228012357213  1.0000
  C   C31       1.0  0.7631390306269895  0.4026597237660412  0.18548750782568413  1.0000
  C   C32       1.0  0.7265253089071305  0.3934946836899125  0.06844419208195962  1.0000
  C   C33       1.0  0.7633458275122051  0.4024506309052318  0.9502202650100848  1.0000
  C   C34       1.0  0.8358065340041867  0.4203074086947034  0.9480763635217904  1.0000
  C   C35       1.0  0.8715330814757615  0.42923216927772634  0.06614277806569824  1.0000
  C   C36       1.0  0.6498700808005223  0.3746174946919776  0.06969688767712401  1.0000
  C   C37       1.0  0.6185372218635998  0.28768313265943957  0.9886317367901718  1.0000
  C   C38       1.0  0.5464014527188406  0.2700119636397018  0.9898427959195137  1.0000
  C   C39       1.0  0.5043136375936492  0.33826812574942333  0.07265155635963816  1.0000
  C   C40       1.0  0.5352740761426689  0.42604872486895506  0.1527397016563199  1.0000
  C   C41       1.0  0.607409143984185  0.44372409376499355  0.1516765916146774  1.0000
  C   C42       1.0  0.4266033215452644  0.32158057944603713  0.07160907584023923  1.0000
  C   C43       1.0  0.3953096779329408  0.41540791527983845  0.9741642516576059  1.0000
  C   C44       1.0  0.3695909731569559  0.4925620467469103  0.8940376578255989  1.0000
  H   H18       1.0  0.9725519898707611  0.4534361090187058  0.39227878282350837  1.0000
  H   H19       1.0  0.7351391651554033  0.39408062764996243  0.277033695982414  1.0000
  H   H20       1.0  0.7352462300541825  0.3972588139233355  0.8595950117919235  1.0000
  H   H21       1.0  0.9274242169161768  0.4430018608581263  0.06520485735963844  1.0000
  H   H22       1.0  0.8636802033538529  0.42713427886447475  0.6197793996673364  1.0000
  H   H23       1.0  0.6499018175129657  0.23226076623045455  0.9252774447691419  1.0000
  H   H24       1.0  0.5233464122848064  0.20288886156581376  0.9263158118943431  1.0000
  H   H25       1.0  0.5035029329608012  0.4811625616044415  0.2157491943065477  1.0000
  H   H26       1.0  0.6298967004804574  0.5129555442810483  0.21356154903694113  1.0000
  H   H27       1.0  0.4126976730981464  0.2213549876419627  0.04820826385861432  1.0000
  H   H28       1.0  0.4044471728532436  0.3370636112548233  0.16882774367136943  1.0000
  H   H29       1.0  0.3470316609090273  0.5603007148472046  0.8236938167526651  1.0000
  Zn  Zn1       1.0  0.7594516476347938  0.4205420005484246  0.566699397824475  1.0000
  Zn  Zn2       1.0  0.9119934179854458  0.4202850417171735  0.5666686822218983  1.0000
  C   C45       1.0  0.8357738273270848  0.41517353989158634  0.8038960345355377  1.0000
  C   C46       1.0  0.835672904284345  0.42565513829134605  0.32947217196234413  1.0000
  C   C47       1.0  0.8357519949370872  0.6576275650563836  0.5614093704437566  1.0000
  C   C48       1.0  0.8356946844344897  0.1831995527596988  0.5719589059618553  1.0000
  O   O1        1.0  0.8935710176187909  0.42727528263094605  0.37784860672821696  1.0000
  O   O2        1.0  0.8936513879061277  0.4133573900431984  0.7554959138802109  1.0000
  O   O3        1.0  0.8936329778920158  0.6091420825512337  0.5596862165834935  1.0000
  O   O4        1.0  0.8935893755613328  0.23149059952877082  0.5736582066509424  1.0000
  O   O5        1.0  0.7778556380038858  0.6093364428259305  0.5597098733990808  1.0000
  O   O6        1.0  0.7778740482028295  0.4135533107738478  0.755519500791719  1.0000
  O   O7        1.0  0.7777936776255365  0.427471158537301  0.377870632163259  1.0000
  O   O8        1.0  0.7778120355846274  0.23168646611836885  0.5736803294636261  1.0000
