data_image0
_chemical_formula_structural       NC10NC3NCH9C16H10C12ClH9Zn2C4O8
_chemical_formula_sum              "N3 C46 H28 Cl1 Zn2 O8"
_cell_length_a       19.437513618241372
_cell_length_b       10.29914801576943
_cell_length_c       10.299771906710086
_cell_angle_alpha    85.52082016499398
_cell_angle_beta     90.35636607497939
_cell_angle_gamma    89.53623586623313

_space_group_name_H-M_alt    "P 1"
_space_group_IT_number       1

loop_
  _space_group_symop_operation_xyz
  'x, y, z'

loop_
  _atom_site_type_symbol
  _atom_site_label
  _atom_site_symmetry_multiplicity
  _atom_site_fract_x
  _atom_site_fract_y
  _atom_site_fract_z
  _atom_site_occupancy
  N   N1        1.0  0.6479036251859632  0.41100442492141  0.575161747201729  1.0000
  C   C1        1.0  0.5889721159389552  0.4280167690602006  0.5721801452026625  1.0000
  C   C2        1.0  0.5155339289839848  0.4492721270047615  0.5684791499512916  1.0000
  C   C3        1.0  0.47375694075086  0.34807865149395933  0.5568530355521297  1.0000
  C   C4        1.0  0.3978673683197366  0.3581466860472151  0.5496283654122289  1.0000
  C   C5        1.0  0.3583119275928093  0.4389782936094453  0.6153445265258395  1.0000
  C   C6        1.0  0.2821275084274033  0.4303723451898882  0.6069032256086835  1.0000
  C   C7        1.0  0.2489765514172092  0.3090169915945413  0.611586433710845  1.0000
  C   C8        1.0  0.1772401205201487  0.30264727299205774  0.6044204466774104  1.0000
  C   C9        1.0  0.1376840060382872  0.41716006012053297  0.5929336393621993  1.0000
  C   C10       1.0  0.06383303620612212  0.410452195527123  0.5855996714575844  1.0000
  N   N2        1.0  0.0044619546264005  0.40505966234183677  0.579703619475519  1.0000
  C   C11       1.0  0.1701184239212393  0.5382045553289811  0.588995811308513  1.0000
  C   C12       1.0  0.2418393007959921  0.544828262064696  0.5962237365975609  1.0000
  C   C13       1.0  0.3870196923782562  0.5312379723909844  0.7052344324682867  1.0000
  N   N3        1.0  0.44401047980190156  0.5944625042140925  0.684809441331955  1.0000
  C   C14       1.0  0.48783471603467116  0.585241394799072  0.5717046252922073  1.0000
  H   H1        1.0  0.4961266016064216  0.25301976985760266  0.5447629873421524  1.0000
  H   H2        1.0  0.37313601814769837  0.2886503674464511  0.4913328866161426  1.0000
  H   H3        1.0  0.278416350295343  0.21909455297708225  0.6226368086935319  1.0000
  H   H4        1.0  0.1526344798922772  0.20841267829869015  0.6083385430549488  1.0000
  H   H5        1.0  0.1399935674052181  0.6274712025522984  0.5802578049594931  1.0000
  H   H6        1.0  0.2659634727862665  0.639475692317391  0.5922900449542483  1.0000
  H   H7        1.0  0.3570306078782647  0.5515945662940673  0.7895946138801428  1.0000
  H   H8        1.0  0.5305975055841363  0.655556923373452  0.577444971513914  1.0000
  H   H9        1.0  0.458159127083176  0.6133849844105594  0.481049596076049  1.0000
  C   C15       1.0  0.8261371096279964  0.026631356654017724  0.5775976692329239  1.0000
  C   C16       1.0  0.8104167475492396  0.03653075010219431  0.443923526879052  1.0000
  C   C17       1.0  0.8024967345113546  0.9244193969246579  0.37598393933689245  1.0000
  C   C18       1.0  0.810508554530808  0.8012775209817393  0.4435201062927696  1.0000
  C   C19       1.0  0.8262350564977221  0.7894225585795663  0.5772790796972189  1.0000
  C   C20       1.0  0.8339537326073679  0.9026174856631647  0.6434942779296229  1.0000
  C   C21       1.0  0.7858666571374859  0.9359373641492007  0.2345728200325785  1.0000
  C   C22       1.0  0.8184102177032575  0.8544342440720208  0.14976972954945067  1.0000
  C   C23       1.0  0.8027345262585464  0.86540013504606  0.016678728025527834  1.0000
  C   C24       1.0  0.7543542760709785  0.9577726597217991  0.9665845120861034  1.0000
  C   C25       1.0  0.7216851542663195  0.03925855887114116  0.05010206309669907  1.0000
  C   C26       1.0  0.7373117939697149  0.028534745388834493  0.1832133863547385  1.0000
  C   C27       1.0  0.7382415255374244  0.9689379306414534  0.8295552003524569  1.0000
  C   C28       1.0  0.7247472707077478  0.9782887377124346  0.7147951333744698  1.0000
  C   C29       1.0  0.7089456576416129  0.9892384071592633  0.5804122654487798  1.0000
  C   C30       1.0  0.6954536674790334  0.9985877939577164  0.4656707350700744  1.0000
  H   H10       1.0  0.832148452908437  0.35029881154324927  0.6290281136683762  1.0000
  H   H11       1.0  0.805222120751491  0.13168764825308443  0.39194730914749254  1.0000
  H   H12       1.0  0.8035381389981437  0.7145153005591363  0.3920158494462731  1.0000
  H   H13       1.0  0.8460772391355585  0.8942659719775469  0.7466014051709513  1.0000
  H   H14       1.0  0.8554919576019923  0.5597474270439525  0.8299149405947353  1.0000
  H   H15       1.0  0.8566322915459792  0.783381966347421  0.1861062800710065  1.0000
  H   H16       1.0  0.828469120690611  0.8020666478330755  0.9528317285989258  1.0000
  H   H17       1.0  0.684010190742957  0.11086646152805324  0.012402589994721103  1.0000
  H   H18       1.0  0.7107751056976237  0.09149202994567518  0.24624738173726302  1.0000
  H   H19       1.0  0.6836066138686764  0.006797344437038166  0.3649179970037215  1.0000
  C   C31       1.0  0.8261533541455686  0.4081338361228839  0.1960686314917115  1.0000
  C   C32       1.0  0.8885661670672351  0.47598218691034666  0.190507079067056  1.0000
  C   C33       1.0  0.9202247832273192  0.5102527696015937  0.0705591308839113  1.0000
  C   C34       1.0  0.888632507045218  0.4757658999131589  0.9552382380766362  1.0000
  C   C35       1.0  0.826218809862452  0.4079201239817656  0.9588081222032114  1.0000
  C   C36       1.0  0.7953290638823776  0.3744831927339103  0.0796956371267088  1.0000
  C   C37       1.0  0.9862527917953205  0.5820292636388706  0.06572922602995002  1.0000
  C   C38       1.0  0.9971396929741951  0.6848618500935055  0.14562681030268387  1.0000
  C   C39       1.0  0.05931778947449873  0.7523184610931288  0.14089385784108432  1.0000
  C   C40       1.0  0.1113145616946265  0.7179778050287677  0.05658217250229702  1.0000
  C   C41       1.0  0.1010845835997729  0.6159938075329563  0.9768213909812573  1.0000
  C   C42       1.0  0.038968129074856694  0.548335829507913  0.981179581427714  1.0000
  Cl  Cl1       1.0  0.18928514748449587  0.8027355536780867  0.05087968504859641  1.0000
  H   H20       1.0  0.8023528030593357  0.3823378299676923  0.5256365445962883  1.0000
  H   H21       1.0  0.9131848623463523  0.5007734327653093  0.27979091392492794  1.0000
  H   H22       1.0  0.9123453073527686  0.5035140840778503  0.862418928610559  1.0000
  H   H23       1.0  0.7471800336776674  0.32214244024021466  0.08321791052967331  1.0000
  H   H24       1.0  0.8024494260623259  0.3820216199448141  0.6327187225492978  1.0000
  H   H25       1.0  0.9572585112603389  0.7141824080013688  0.21048071737263463  1.0000
  H   H26       1.0  0.06693537861198906  0.831472316850659  0.2025912648429753  1.0000
  H   H27       1.0  0.1412800126759537  0.5888153443050108  0.9116270113141849  1.0000
  H   H28       1.0  0.03249241327074848  0.4686226105577451  0.9197164814423071  1.0000
  Zn  Zn1       1.0  0.7507986626836604  0.4092854032448423  0.5764799438580459  1.0000
  Zn  Zn2       1.0  0.9015669228840079  0.4067680105930107  0.5783960971715079  1.0000
  C   C43       1.0  0.8262042444838771  0.4027864116341744  0.8146361417159147  1.0000
  C   C44       1.0  0.826162987689886  0.4132686134338308  0.34024004702019095  1.0000
  C   C45       1.0  0.8262125626987668  0.6452403043405499  0.5721640500014251  1.0000
  C   C46       1.0  0.8261546178338864  0.17081316113485134  0.5827122079713998  1.0000
  O   O1        1.0  0.8833819890783747  0.4140308880021526  0.389352463656804  1.0000
  O   O2        1.0  0.8834148638894711  0.40011251459247843  0.7669776676698792  1.0000
  O   O3        1.0  0.8834208097731606  0.5958971117008303  0.5711797277133193  1.0000
  O   O4        1.0  0.8833759917405264  0.21824630107109755  0.5851503055807539  1.0000
  O   O5        1.0  0.7689895423773337  0.597807113627234  0.5697257347880793  1.0000
  O   O6        1.0  0.7689835966849456  0.4020240769719643  0.7655236048471996  1.0000
  O   O7        1.0  0.7689507217797827  0.415942405558704  0.38789683944958964  1.0000
  O   O8        1.0  0.7689447244462849  0.22015780931083073  0.583694778745429  1.0000
