data_image0
_chemical_formula_structural       NC12NC2H8C12OCH12C12NCOH11Zn2C4O8
_chemical_formula_sum              "N3 C44 H31 O10 Zn2"
_cell_length_a       17.80743265337812
_cell_length_b       10.29979075500242
_cell_length_c       10.299148425239203
_cell_angle_alpha    85.53236164649607
_cell_angle_beta     91.51916060690998
_cell_angle_gamma    89.41792083348325

_space_group_name_H-M_alt    "P 1"
_space_group_IT_number       1

loop_
  _space_group_symop_operation_xyz
  'x, y, z'

loop_
  _atom_site_type_symbol
  _atom_site_label
  _atom_site_symmetry_multiplicity
  _atom_site_fract_x
  _atom_site_fract_y
  _atom_site_fract_z
  _atom_site_occupancy
  N   N1        1.0  0.7073697638608392  0.4072139406963735  0.6011613689076714  1.0000
  C   C1        1.0  0.656554387858503  0.43679873350449205  0.5324571322584064  1.0000
  C   C2        1.0  0.5933350444898713  0.4736000668834166  0.4469977104460141  1.0000
  C   C3        1.0  0.605069983960487  0.5276686582564876  0.3203678566096211  1.0000
  C   C4        1.0  0.543757923555227  0.5629654944525373  0.23730464299688925  1.0000
  C   C5        1.0  0.4705566668475555  0.5444574534147866  0.280211329737176  1.0000
  C   C6        1.0  0.4578449092304983  0.4902698821017033  0.4073093576394533  1.0000
  C   C7        1.0  0.5200142874779856  0.4549763060469727  0.49035605851857866  1.0000
  C   C8        1.0  0.3800752408276449  0.47064663226202086  0.45307655832527205  1.0000
  C   C9        1.0  0.3612668612073952  0.49778515393457856  0.5801252562227661  1.0000
  C   C10       1.0  0.2880356454467901  0.4793186709810229  0.6230725049321195  1.0000
  C   C11       1.0  0.232669769765793  0.43345907870377287  0.5398090835560561  1.0000
  C   C12       1.0  0.1573018547307053  0.41443924194405835  0.5841573679296883  1.0000
  N   N2        1.0  0.0967113882899029  0.3991485723893362  0.6198103377024449  1.0000
  C   C13       1.0  0.2507866117437404  0.4061514399307875  0.41330339394419147  1.0000
  C   C14       1.0  0.32396500497741093  0.4246328046642789  0.3701002445396664  1.0000
  H   H1        1.0  0.6615377277446712  0.5425053997921354  0.28592811126999007  1.0000
  H   H2        1.0  0.5529618687666567  0.6050993968531178  0.13951776392389093  1.0000
  H   H3        1.0  0.4239210012572583  0.5741176858434895  0.21461518696689263  1.0000
  H   H4        1.0  0.5115089955312206  0.4114571400048419  0.5880185847983421  1.0000
  H   H5        1.0  0.4029274697003429  0.5349398125478548  0.6456989484749112  1.0000
  H   H6        1.0  0.2745748241429725  0.5011273938328777  0.7210846706269374  1.0000
  H   H7        1.0  0.208408835969547  0.370263909766787  0.34814258606978776  1.0000
  H   H8        1.0  0.33689767081760363  0.401288418394518  0.27239153899471114  1.0000
  C   C15       1.0  0.9021116791749111  0.021812021824197947  0.6105281928065986  1.0000
  C   C16       1.0  0.8803455690605826  0.011040946066916524  0.7409332886151865  1.0000
  C   C17       1.0  0.8692569035704153  0.8884481237549973  0.8069745333710332  1.0000
  C   C18       1.0  0.8802106098669233  0.7757614765434002  0.7408610343662294  1.0000
  C   C19       1.0  0.9019766867701855  0.7845403386166614  0.6104550043840553  1.0000
  C   C20       1.0  0.9128070923121512  0.9080089327606314  0.5460195241424537  1.0000
  C   C21       1.0  0.8462341687955671  0.8781069438420425  0.9449372787026618  1.0000
  C   C22       1.0  0.7914121352659474  0.7883572142488081  0.9873802241374361  1.0000
  C   C23       1.0  0.7698114207986279  0.7788966996816237  0.11709416906500825  1.0000
  C   C24       1.0  0.8025464873140168  0.8585267302496694  0.20601667917748945  1.0000
  C   C25       1.0  0.857568244317458  0.9488806114780266  0.16545514257183147  1.0000
  C   C26       1.0  0.8789361391550069  0.9579849853705376  0.03520330777157299  1.0000
  O   O1        1.0  0.8922816760905173  0.03082576127291703  0.2509924182411456  1.0000
  C   C27       1.0  0.8761553632569133  0.03207926994324617  0.38556596933374254  1.0000
  H   H9        1.0  0.9104383740390021  0.35336705126757395  0.5608611216402817  1.0000
  H   H10       1.0  0.8709695057722424  0.09823982889802751  0.790916629582278  1.0000
  H   H11       1.0  0.8727137193056442  0.6809945630969292  0.7918735668055452  1.0000
  H   H12       1.0  0.9295993048275983  0.9155499541813479  0.44541753001163786  1.0000
  H   H13       1.0  0.9102331768904042  0.4604348028586456  0.5607469326639456  1.0000
  H   H14       1.0  0.7645512815636544  0.7267131209155685  0.9198792667792475  1.0000
  H   H15       1.0  0.7273773267383531  0.7097911987024104  0.14874289046641198  1.0000
  H   H16       1.0  0.7847279433852118  0.8491030261671122  0.3058371299493915  1.0000
  H   H17       1.0  0.9219761670969482  0.026651073009597903  0.005096577762224386  1.0000
  H   H18       1.0  0.8891252695103228  0.9352597578512928  0.43681348390200847  1.0000
  H   H19       1.0  0.9116002831726593  0.10596585906450318  0.4294811264114632  1.0000
  H   H20       1.0  0.816180521363173  0.05822611700080138  0.3971297964390115  1.0000
  C   C28       1.0  0.9021006498260803  0.4033308642343165  0.22909810008063558  1.0000
  C   C29       1.0  0.9783164306188384  0.4373108207901941  0.228776191501602  1.0000
  C   C30       1.0  0.016840132074324776  0.45432763822928335  0.11147514472626341  1.0000
  C   C31       1.0  0.9781581180528586  0.43697395091236735  0.9935114832893661  1.0000
  C   C32       1.0  0.9019876837124157  0.40302152857160256  0.9918851052578499  1.0000
  C   C33       1.0  0.8644058210224113  0.386390067787616  0.11020561460425538  1.0000
  C   C34       1.0  0.09742189104185894  0.4902510299827687  0.11222509425007021  1.0000
  C   C35       1.0  0.14791361358013888  0.43183431320929655  0.03105055221981745  1.0000
  C   C36       1.0  0.22370463290864762  0.4657775183626447  0.031903617031654896  1.0000
  C   C37       1.0  0.2507787645974062  0.557489338888707  0.11470135055146313  1.0000
  C   C38       1.0  0.2002121588203829  0.6177538165577641  0.1943037477274221  1.0000
  C   C39       1.0  0.12438716989115406  0.5839179833135506  0.19354588773615733  1.0000
  N   N3        1.0  0.3287933900580309  0.5920800935464436  0.11189957960524377  1.0000
  C   C40       1.0  0.3719998346137048  0.627857975245234  0.2226960013157797  1.0000
  O   O2        1.0  0.3465827478334973  0.6142219999100187  0.3358399718361762  1.0000
  H   H21       1.0  0.7583667797146383  0.3384290096295879  0.43706435517778197  1.0000
  H   H22       1.0  0.008120727084803159  0.4488887921977882  0.3201291145686185  1.0000
  H   H23       1.0  0.0073038421814375365  0.451761818924064  0.9026732804029725  1.0000
  H   H24       1.0  0.8056545402855039  0.3601981621961876  0.10966628656884203  1.0000
  H   H25       1.0  0.8726926988193691  0.38992617199576163  0.663786527763873  1.0000
  H   H26       1.0  0.12898588863757743  0.3587168696756762  0.9679775217861182  1.0000
  H   H27       1.0  0.26167215047459935  0.4194532125669317  0.9687712764354068  1.0000
  H   H28       1.0  0.21871318059078004  0.6930446302003848  0.2549495418040981  1.0000
  H   H29       1.0  0.08650782690379022  0.6329067072511316  0.254789644641108  1.0000
  H   H30       1.0  0.35768888962966683  0.5825422247140783  0.026101341652424503  1.0000
  H   H31       1.0  0.4284021873235824  0.6637292314962764  0.20957048705709025  1.0000
  Zn  Zn1       1.0  0.8197253492727586  0.4048829793057229  0.6065505462098972  1.0000
  Zn  Zn2       1.0  0.9843558006905158  0.40146893601771927  0.6144317551506158  1.0000
  C   C41       1.0  0.9020082831007551  0.3979063506021374  0.8477024740807704  1.0000
  C   C42       1.0  0.9020746643129901  0.40844716600902076  0.3732800406598369  1.0000
  C   C43       1.0  0.9019990840504606  0.6403706544384902  0.6052931848390752  1.0000
  C   C44       1.0  0.9020838074523638  0.1659813030059587  0.6156893966049504  1.0000
  O   O3        1.0  0.9645423426745762  0.4088629662421115  0.42465969529956893  1.0000
  O   O4        1.0  0.9644913083046942  0.39489839093750967  0.8023041008920775  1.0000
  O   O5        1.0  0.9644830375435273  0.5906913995828011  0.6065568442949296  1.0000
  O   O6        1.0  0.9645505572712979  0.2130699680915209  0.6204068518255528  1.0000
  O   O7        1.0  0.839530536511684  0.5932819483983836  0.6005754468386584  1.0000
  O   O8        1.0  0.8395388070034789  0.3974905000862623  0.7963226340360863  1.0000
  O   O9        1.0  0.8395898416625713  0.41145503076707834  0.4186766669488797  1.0000
  O   O10       1.0  0.8395980562434459  0.21566202328824868  0.614423920849726  1.0000
