data_image0
_chemical_formula_structural       NC10NC3NCH9C12SCH12C13OH12Zn2C4O8
_chemical_formula_sum              "N3 C44 H33 S1 O9 Zn2"
_cell_length_a       19.437513618241372
_cell_length_b       10.299776766347529
_cell_length_c       10.299153481560891
_cell_angle_alpha    85.58387196387294
_cell_angle_beta     90.36417058255482
_cell_angle_gamma    89.50378728869872

_space_group_name_H-M_alt    "P 1"
_space_group_IT_number       1

loop_
  _space_group_symop_operation_xyz
  'x, y, z'

loop_
  _atom_site_type_symbol
  _atom_site_label
  _atom_site_symmetry_multiplicity
  _atom_site_fract_x
  _atom_site_fract_y
  _atom_site_fract_z
  _atom_site_occupancy
  N   N1        1.0  0.6473842247702606  0.40993122866460063  0.5757612103904632  1.0000
  C   C1        1.0  0.5884474322110926  0.4269400634887772  0.5727869709093791  1.0000
  C   C2        1.0  0.5150026459156329  0.4481910529694777  0.5690951746767263  1.0000
  C   C3        1.0  0.4732550593480688  0.3469989496410235  0.557424987392251  1.0000
  C   C4        1.0  0.39736198368691783  0.35706128069246157  0.5502046225860817  1.0000
  C   C5        1.0  0.3577869487344203  0.4379292730222262  0.6159565243289835  1.0000
  C   C6        1.0  0.281604516097224  0.4293184912506154  0.6075114044709307  1.0000
  C   C7        1.0  0.2484901031784983  0.30797715457482  0.6121419354739817  1.0000
  C   C8        1.0  0.1767550793027043  0.30160324872162736  0.6049731131195333  1.0000
  C   C9        1.0  0.1371639938722785  0.41609811487573656  0.5935359456005067  1.0000
  C   C10       1.0  0.0633145204045967  0.4093859818469039  0.5861989938753618  1.0000
  N   N2        1.0  0.003944641757435  0.403990017090867  0.5803005431622394  1.0000
  C   C11       1.0  0.1695620118469001  0.5371291161887122  0.5896506666763341  1.0000
  C   C12       1.0  0.2412814101633129  0.5437570284888826  0.5968815382172077  1.0000
  C   C13       1.0  0.3864733753365729  0.530240365903883  0.7058873653104745  1.0000
  N   N3        1.0  0.4434438835371154  0.593445649258544  0.6854896474225598  1.0000
  C   C14       1.0  0.48726307240992917  0.5841502434873387  0.5723797510975421  1.0000
  H   H1        1.0  0.4956522588739324  0.25194058071810344  0.5452935270014776  1.0000
  H   H2        1.0  0.3726473562003698  0.28753248748580806  0.4918783981415802  1.0000
  H   H3        1.0  0.277957503385465  0.2180701370968272  0.6231533495382335  1.0000
  H   H4        1.0  0.152177835225194  0.20737972539170046  0.6088503074645786  1.0000
  H   H5        1.0  0.1394099091959743  0.6263819371015655  0.5809513583068271  1.0000
  H   H6        1.0  0.2653770613080492  0.6383933399178001  0.5929889278104101  1.0000
  H   H7        1.0  0.3564840323666277  0.5506511630075199  0.7902571916873178  1.0000
  H   H8        1.0  0.5300052706109959  0.6544632655326739  0.5781506996963466  1.0000
  H   H9        1.0  0.4575728319081726  0.6122310900650068  0.4817360875318353  1.0000
  C   C15       1.0  0.8257326016844307  0.025594322254171464  0.5780301686476814  1.0000
  C   C16       1.0  0.8298880412811677  0.01401531123527322  0.7145974615344184  1.0000
  C   C17       1.0  0.8319273959800872  0.8910106189556973  0.7838017111723941  1.0000
  C   C18       1.0  0.8297564869239054  0.7787297326889854  0.714610977101088  1.0000
  C   C19       1.0  0.825602884712734  0.7883167652959461  0.578042958221278  1.0000
  C   C20       1.0  0.8236138058671892  0.9121878184804212  0.5105170186785439  1.0000
  C   C21       1.0  0.8363158001659786  0.8798253642573948  0.9282744015082507  1.0000
  C   C22       1.0  0.7969512621172281  0.7870490581892668  0.0018162100273437787  1.0000
  C   C23       1.0  0.8011019264629645  0.7767565348490266  0.13777885087592667  1.0000
  C   C24       1.0  0.8444458695286212  0.8589652910200997  0.2020041817666347  1.0000
  C   C25       1.0  0.8839748054693675  0.9511655939749424  0.12983753601110049  1.0000
  C   C26       1.0  0.8799250242549711  0.9618063211247482  0.9938657644642148  1.0000
  S   S1        1.0  0.8498476124266104  0.8452967656605528  0.37646392177387755  1.0000
  C   C27       1.0  0.780714846991924  0.9625179656442975  0.3951125783628333  1.0000
  H   H10       1.0  0.824176257879907  0.3574594820125887  0.5259921753500714  1.0000
  H   H11       1.0  0.8305994770846351  0.1008547078414812  0.7675650424132179  1.0000
  H   H12       1.0  0.8322618041078669  0.6836943560050197  0.7674052587928666  1.0000
  H   H13       1.0  0.8204085313066951  0.9203520370216128  0.4051611650250355  1.0000
  H   H14       1.0  0.8239858256800321  0.46451666435811534  0.5260088577392079  1.0000
  H   H15       1.0  0.7623099300518622  0.723644252912582  0.9542608921126314  1.0000
  H   H16       1.0  0.7703504007017468  0.7052278894997754  0.19310905237821607  1.0000
  H   H17       1.0  0.9178841410049783  0.014639077375230958  0.17897247516491344  1.0000
  H   H18       1.0  0.9115451150595881  0.03295208154002793  0.9399596684973774  1.0000
  H   H19       1.0  0.7944802694679608  0.05859967638334096  0.3464099908910776  1.0000
  H   H20       1.0  0.7727589179127726  0.9733700448283453  0.5002909505200542  1.0000
  H   H21       1.0  0.7322955545107938  0.9277762073687462  0.3523739114846314  1.0000
  C   C28       1.0  0.825608668619218  0.40680910136684667  0.19666324695650084  1.0000
  C   C29       1.0  0.7544812492611908  0.38361434561736707  0.19642874546688827  1.0000
  C   C30       1.0  0.7185429169717212  0.3720148026482486  0.07914388213912193  1.0000
  C   C31       1.0  0.7546435185434164  0.3839289369769836  0.9611228497084991  1.0000
  C   C32       1.0  0.825726810064113  0.4071019940748559  0.9594098416074779  1.0000
  C   C33       1.0  0.8607943265286518  0.41840316119935306  0.07770822385111598  1.0000
  C   C34       1.0  0.6433436912733704  0.3475053169138198  0.0798690292019697  1.0000
  C   C35       1.0  0.5998193516397543  0.4134665442471235  0.986648526224172  1.0000
  C   C36       1.0  0.5290524336180829  0.3904456138464172  0.9874088880037304  1.0000
  C   C37       1.0  0.5006188970008812  0.3002082259896075  0.08050519319242722  1.0000
  C   C38       1.0  0.5436815001835406  0.23535095932273076  0.17463836882190376  1.0000
  C   C39       1.0  0.6144516871014287  0.25834218821663324  0.17405619775829084  1.0000
  C   C40       1.0  0.42437945876005634  0.2781921782273198  0.0834505530600842  1.0000
  O   O1        1.0  0.3934626291995269  0.36629435519609643  0.1625657833388432  1.0000
  H   H22       1.0  0.9597775580421931  0.4514214380868413  0.40433314900982564  1.0000
  H   H23       1.0  0.7267447372016067  0.37631289750086094  0.28755106648272455  1.0000
  H   H24       1.0  0.7273482003993869  0.3733316127646249  0.8705960258605536  1.0000
  H   H25       1.0  0.9156226234080812  0.43628088532446574  0.0771027454887907  1.0000
  H   H26       1.0  0.8530588273831373  0.4161012337394827  0.6312687920498252  1.0000
  H   H27       1.0  0.6203734404808208  0.48437941916213734  0.9143538799750281  1.0000
  H   H28       1.0  0.49640050240978795  0.44326937141255907  0.9155133507030775  1.0000
  H   H29       1.0  0.5224926241193685  0.16665503184794117  0.24836485576784684  1.0000
  H   H30       1.0  0.6466901628798921  0.20532482206666325  0.24646968104548006  1.0000
  H   H31       1.0  0.41347722810307597  0.176587632917373  0.12212872102882955  1.0000
  H   H32       1.0  0.40260012663742484  0.2919202026278125  0.9830426721457965  1.0000
  H   H33       1.0  0.3434519142254371  0.3477742988737609  0.1612253496937266  1.0000
  Zn  Zn1       1.0  0.7502798662489114  0.40821323703388845  0.5770786727557953  1.0000
  Zn  Zn2       1.0  0.9010490099558975  0.40569734334539875  0.5789937506136387  1.0000
  C   C41       1.0  0.8257038108389784  0.40187301461939207  0.8152343092013559  1.0000
  C   C42       1.0  0.8256267115012044  0.41203917694335246  0.34083826257601535  1.0000
  C   C43       1.0  0.8256230427774014  0.6441440660346094  0.57286524607706  1.0000
  C   C44       1.0  0.8257074283919403  0.16976656612168028  0.5832073942601388  1.0000
  O   O2        1.0  0.8828488721177675  0.41283400383973157  0.3899514768446597  1.0000
  O   O3        1.0  0.8829119418442543  0.3991677027681382  0.7675742208481917  1.0000
  O   O4        1.0  0.8828459495217618  0.5948046541108369  0.5718594777993513  1.0000
  O   O5        1.0  0.8829148129763037  0.2171970626083013  0.5856661218643802  1.0000
  O   O6        1.0  0.7684140117783946  0.5967135186309485  0.5704063008447005  1.0000
  O   O7        1.0  0.7684800038216179  0.4010781275546662  0.7661209746733606  1.0000
  O   O8        1.0  0.768416933906771  0.41474438277027037  0.3884966692509906  1.0000
  O   O9        1.0  0.7684828747791532  0.21910743228753393  0.5842114116394781  1.0000
