data_image0
_chemical_formula_structural       NC11NC3H8C13OH12C12OCH12Zn2C4O8
_chemical_formula_sum              "N2 C44 H32 O10 Zn2"
_cell_length_a       17.807433833752565
_cell_length_b       10.299150109392551
_cell_length_c       10.299794127170987
_cell_angle_alpha    85.5569512017134
_cell_angle_beta     88.5176554422573
_cell_angle_gamma    90.66566965777596

_space_group_name_H-M_alt    "P 1"
_space_group_IT_number       1

loop_
  _space_group_symop_operation_xyz
  'x, y, z'

loop_
  _atom_site_type_symbol
  _atom_site_label
  _atom_site_symmetry_multiplicity
  _atom_site_fract_x
  _atom_site_fract_y
  _atom_site_fract_z
  _atom_site_occupancy
  N   N1        1.0  0.7072415377949312  0.4381518391497097  0.5342368307165399  1.0000
  C   C1        1.0  0.65642417075841  0.40344210896801824  0.6008077181044482  1.0000
  C   C2        1.0  0.5932022405622643  0.3602660648099767  0.6836134071728683  1.0000
  C   C3        1.0  0.6049331594539425  0.296747219633857  0.8063474056214817  1.0000
  C   C4        1.0  0.5436184595644455  0.2552504031512244  0.8868687062939937  1.0000
  C   C5        1.0  0.47041850955015596  0.27695932844544524  0.8452968791906095  1.0000
  C   C6        1.0  0.45771079863383995  0.3406326012798049  0.7221026538124422  1.0000
  C   C7        1.0  0.379942563876139  0.3636709270490357  0.6777498605895536  1.0000
  C   C8        1.0  0.3611705559542907  0.3467594037846211  0.5481816783846796  1.0000
  C   C9        1.0  0.2879406734697682  0.36842958531331305  0.5065657951441243  1.0000
  C   C10       1.0  0.23253971949923052  0.4073296000061788  0.5936977521491626  1.0000
  C   C11       1.0  0.1571730822296462  0.4296578949469678  0.5507204177674561  1.0000
  N   N2        1.0  0.0965836794110905  0.4476081852510181  0.5161697688179545  1.0000
  C   C12       1.0  0.250620159500602  0.42445155963563574  0.722734754885213  1.0000
  C   C13       1.0  0.3237972700977481  0.4027465205896885  0.7646060666692784  1.0000
  C   C14       1.0  0.5198828101852065  0.38212485731959833  0.6415977697090469  1.0000
  H   H1        1.0  0.6614000037960992  0.27934127507032347  0.8397172245042459  1.0000
  H   H2        1.0  0.552819549302634  0.2058223537209325  0.9816169982061456  1.0000
  H   H3        1.0  0.4237815177830047  0.2424194206431638  0.9087445795161349  1.0000
  H   H4        1.0  0.40285925078284057  0.31509510499265625  0.4794793599130809  1.0000
  H   H5        1.0  0.2745082823260874  0.35451847408102344  0.406540968412908  1.0000
  H   H6        1.0  0.2082149414723186  0.4548925925964602  0.7909227472215208  1.0000
  H   H7        1.0  0.3367009542076428  0.4182030983981373  0.8644476214524861  1.0000
  H   H8        1.0  0.5113799300735532  0.43291542603732736  0.5470833179212373  1.0000
  C   C15       1.0  0.901986995554464  0.061482213890641235  0.525343943074686  1.0000
  C   C16       1.0  0.9005940687524954  0.04968328696450319  0.6622125138019588  1.0000
  C   C17       1.0  0.8998224748526275  0.9265647180235367  0.7313471355374253  1.0000
  C   C18       1.0  0.9004492483373414  0.8144243209963044  0.6618558571429671  1.0000
  C   C19       1.0  0.9018454019455598  0.824267944791169  0.5250735313576329  1.0000
  C   C20       1.0  0.9026081827646484  0.9482573866057564  0.4576168237617144  1.0000
  C   C21       1.0  0.8983423719890061  0.9150643568538798  0.8760487503853716  1.0000
  C   C22       1.0  0.8521426046867664  0.8210814485999949  0.9462106456909622  1.0000
  C   C23       1.0  0.8507249398182027  0.8103404250169027  0.08237587562691173  1.0000
  C   C24       1.0  0.895974159201551  0.8924357198722129  0.15081790961567254  1.0000
  C   C25       1.0  0.9414551359005299  0.987354988300092  0.0813319088980311  1.0000
  C   C26       1.0  0.942890239617411  0.9982722323870757  0.945165581027257  1.0000
  C   C27       1.0  0.8928711557751219  0.8832096349049182  0.2970409162927916  1.0000
  O   O1        1.0  0.8367179980787496  0.9650326919895704  0.3398853166418119  1.0000
  H   H9        1.0  0.9041281315718314  0.29103422288291814  0.26702075089875366  1.0000
  H   H10       1.0  0.899064548360167  0.13643333094390786  0.7152894342497473  1.0000
  H   H11       1.0  0.90087436217141  0.7193258146356065  0.7146670203844183  1.0000
  H   H12       1.0  0.9036829520167629  0.9565662251197079  0.35211262167818624  1.0000
  H   H13       1.0  0.9023318464639267  0.5005774516136239  0.4724645980743081  1.0000
  H   H14       1.0  0.816218212131897  0.757186869024448  0.8957715833100841  1.0000
  H   H15       1.0  0.8141764708395508  0.7381360771110581  0.1344449374712704  1.0000
  H   H16       1.0  0.9759956634090262  0.052769118761686995  0.132581357120645  1.0000
  H   H17       1.0  0.9794638260885199  0.0709228309331007  0.8939019568192927  1.0000
  H   H18       1.0  0.9481289779580998  0.9123912562675854  0.33464473153062346  1.0000
  H   H19       1.0  0.8806598754230937  0.7809014786324238  0.3354182747065567  1.0000
  H   H20       1.0  0.8369898202601213  0.955386910461761  0.43649458385981577  1.0000
  C   C28       1.0  0.9019415589973063  0.44276223358943545  0.14385615791705342  1.0000
  C   C29       1.0  0.8283345809264435  0.3918479486330122  0.15009631817198166  1.0000
  C   C30       1.0  0.7910166648881646  0.3661513726207155  0.03611231116607572  1.0000
  C   C31       1.0  0.8282834644017749  0.3920731916209148  0.9147937163084281  1.0000
  C   C32       1.0  0.9018908630231546  0.44298799425946545  0.9065612745189653  1.0000
  C   C33       1.0  0.9383085029963297  0.46804455170647596  0.021631375372329176  1.0000
  C   C34       1.0  0.7131468038731591  0.3122798999230174  0.04376864682121617  1.0000
  C   C35       1.0  0.6593562164333807  0.3596443307828836  0.9550987619542912  1.0000
  C   C36       1.0  0.5861706569703488  0.30893294086133305  0.9625639151537899  1.0000
  C   C37       1.0  0.5657117991736395  0.2104944639689783  0.05823556110713812  1.0000
  C   C38       1.0  0.6187614924022588  0.16170733152492622  0.14780291903255738  1.0000
  C   C39       1.0  0.692049054943474  0.21306079500370245  0.13988142446387886  1.0000
  O   O2        1.0  0.6010966760749105  0.06269769833832495  0.2454800978889895  1.0000
  C   C40       1.0  0.5290961775419517  0.0016707543844298733  0.2648799590892512  1.0000
  H   H21       1.0  0.9299989777870222  0.46210468717179976  0.4689355045759749  1.0000
  H   H22       1.0  0.7994758046099366  0.37371683051822635  0.2437188410091391  1.0000
  H   H23       1.0  0.8001255138511187  0.3707932332622539  0.8267763157387389  1.0000
  H   H24       1.0  0.9950935089162013  0.5073219496555919  0.01604894830761494  1.0000
  H   H25       1.0  0.9299233009800092  0.46244964533868016  0.5759676674663194  1.0000
  H   H26       1.0  0.6736292728188752  0.43706312916639867  0.8810897371280979  1.0000
  H   H27       1.0  0.5450887522266444  0.3463335396058278  0.8941184684036299  1.0000
  H   H28       1.0  0.5086449597181346  0.1730713993981221  0.06172524467074503  1.0000
  H   H29       1.0  0.7328001247161595  0.17390200437491732  0.20816909267361727  1.0000
  H   H30       1.0  0.5136208340011701  0.9528353553143898  0.17675514694029681  1.0000
  H   H31       1.0  0.5310404349795274  0.9272363233380094  0.3484886764741728  1.0000
  H   H32       1.0  0.48629406195472913  0.0748953248821389  0.28711624960576865  1.0000
  Zn  Zn1       1.0  0.8195972695583069  0.440877263678612  0.5290305523526382  1.0000
  Zn  Zn2       1.0  0.9842279341546175  0.4448721434566598  0.5213866365069637  1.0000
  C   C41       1.0  0.9018997085209952  0.43777119113591034  0.7623956037144999  1.0000
  C   C42       1.0  0.9019272926409944  0.4479798984050922  0.2880216285537738  1.0000
  C   C43       1.0  0.9018686427638493  0.6800836180022014  0.5199498562168723  1.0000
  C   C44       1.0  0.9019583025062549  0.20566590977502952  0.5304674484486216  1.0000
  O   O3        1.0  0.9643989850076713  0.45124136426571004  0.33350405324932053  1.0000
  O   O4        1.0  0.9643788814953796  0.43754076668404607  0.7111112502776213  1.0000
  O   O5        1.0  0.9643529532009815  0.6332110958002322  0.5153346324557071  1.0000
  O   O6        1.0  0.9644248571295263  0.255571043048451  0.5292805763057977  1.0000
  O   O7        1.0  0.8394002904030322  0.6301783627249768  0.5211366151554664  1.0000
  O   O8        1.0  0.83942621840895  0.434509594010718  0.7169131631818226  1.0000
  O   O9        1.0  0.8394463220834403  0.4482101458720804  0.33930440483348856  1.0000
  O   O10       1.0  0.8394721941974725  0.2525398153940497  0.535081025257065  1.0000
