data_image0
_chemical_formula_structural       NC10NC3NCH9C16H10C15H12Zn2C4O8
_chemical_formula_sum              "N3 C49 H31 Zn2 O8"
_cell_length_a       19.437513618241372
_cell_length_b       10.29914801576943
_cell_length_c       10.299157797200024
_cell_angle_alpha    85.52082761248347
_cell_angle_beta     90.36969697792763
_cell_angle_gamma    89.53623586623313

_space_group_name_H-M_alt    "P 1"
_space_group_IT_number       1

loop_
  _space_group_symop_operation_xyz
  'x, y, z'

loop_
  _atom_site_type_symbol
  _atom_site_label
  _atom_site_symmetry_multiplicity
  _atom_site_fract_x
  _atom_site_fract_y
  _atom_site_fract_z
  _atom_site_occupancy
  N   N1        1.0  0.6477279426416886  0.41100710440334054  0.5750744780790507  1.0000
  C   C1        1.0  0.5887960657631798  0.4280194541491875  0.5720926934615078  1.0000
  C   C2        1.0  0.5153574224755266  0.4492748190536613  0.568391471529945  1.0000
  C   C3        1.0  0.473579000742597  0.3480813654063677  0.5567646450493926  1.0000
  C   C4        1.0  0.3976885375097077  0.3581494135459893  0.5495395324097039  1.0000
  C   C5        1.0  0.3581411995848786  0.438980897525584  0.615259718535778  1.0000
  C   C6        1.0  0.2819557396071422  0.430374964980329  0.6068179006020951  1.0000
  C   C7        1.0  0.24880536003646683  0.30901960257796723  0.6115013955434545  1.0000
  C   C8        1.0  0.1770680455732669  0.3026498974514926  0.6043349696044811  1.0000
  C   C9        1.0  0.1375105147681625  0.4171627061815022  0.5928474587402217  1.0000
  C   C10       1.0  0.0636586406578181  0.41045485537999826  0.5855130416415009  1.0000
  N   N2        1.0  0.004286832094938  0.4050623332825418  0.5796166285354396  1.0000
  C   C11       1.0  0.1699444471169496  0.5382072087952394  0.5889093895007034  1.0000
  C   C12       1.0  0.24166621519482823  0.5448309019384674  0.5961377574889122  1.0000
  C   C13       1.0  0.3868600477949524  0.5312404072645116  0.7051551300948904  1.0000
  N   N3        1.0  0.4438483168173669  0.5944649774978705  0.6847288879596796  1.0000
  C   C14       1.0  0.487658607227295  0.5852440807822994  0.5716171444261993  1.0000
  H   H1        1.0  0.4959471708953185  0.25302250650597147  0.5446738563428022  1.0000
  H   H2        1.0  0.3729499995056368  0.2886532045728838  0.49124048310638235  1.0000
  H   H3        1.0  0.27824652142574063  0.2190971431797073  0.62255244734439  1.0000
  H   H4        1.0  0.152462888046645  0.20841529538994252  0.6082533059593171  1.0000
  H   H5        1.0  0.1398185132048209  0.6274738724508293  0.5801708479624113  1.0000
  H   H6        1.0  0.26578990216095677  0.6394783395886732  0.5922038249131163  1.0000
  H   H7        1.0  0.35688136490460104  0.5515968425239157  0.7895204784364003  1.0000
  H   H8        1.0  0.5304221045613999  0.6555595985616611  0.5773578422351666  1.0000
  H   H9        1.0  0.45797184051147966  0.6133878408752513  0.4809565627307675  1.0000
  C   C15       1.0  0.8259617274328872  0.026634031555071047  0.5775105493066741  1.0000
  C   C16       1.0  0.8102248833335317  0.0365336763843771  0.44382821961988506  1.0000
  C   C17       1.0  0.8022964933450891  0.9244224509707444  0.37588447088385823  1.0000
  C   C18       1.0  0.8103166405733451  0.801280448022575  0.44342477432472105  1.0000
  C   C19       1.0  0.8260596350205259  0.7894252340797437  0.5771919402578563  1.0000
  C   C20       1.0  0.8337864754635425  0.9026200366422419  0.6434111940679696  1.0000
  C   C21       1.0  0.7856489799814305  0.9359406841262011  0.23446469036884543  1.0000
  C   C22       1.0  0.8181820843268771  0.8544377235256132  0.1496564058285732  1.0000
  C   C23       1.0  0.8024899827628267  0.8654038647841551  0.016557252688200963  1.0000
  C   C24       1.0  0.7541035559588657  0.957776483664655  0.9664599685561117  1.0000
  C   C25       1.0  0.7214447318675257  0.03926222575492844  0.04998263488656218  1.0000
  C   C26       1.0  0.7370877841959302  0.028538161949902552  0.1831021110057256  1.0000
  C   C27       1.0  0.7379739097123573  0.9689420122750075  0.8294222639906526  1.0000
  C   C28       1.0  0.7244655049674126  0.9782930351582224  0.7146551681373912  1.0000
  C   C29       1.0  0.708647322494822  0.9892429573189754  0.5802640694704482  1.0000
  C   C30       1.0  0.6951411847025368  0.9985925598948033  0.4655155113518066  1.0000
  H   H10       1.0  0.8319794120866829  0.35030138972669556  0.6289441437767045  1.0000
  H   H11       1.0  0.8050238478685854  0.13169067227922926  0.3918488184259836  1.0000
  H   H12       1.0  0.8033398745662562  0.7145183244563875  0.39191736292275103  1.0000
  H   H13       1.0  0.845922695099632  0.8942683290583453  0.7465246364601714  1.0000
  H   H14       1.0  0.8553476861242647  0.5597496274493444  0.8298432747081737  1.0000
  H   H15       1.0  0.8564086384659646  0.7833853774682531  0.18599518190722542  1.0000
  H   H16       1.0  0.8282167048604129  0.8020704976387508  0.9527063427323754  1.0000
  H   H17       1.0  0.683765119999455  0.11087019930764663  0.012280852750603088  1.0000
  H   H18       1.0  0.7105588680149256  0.09149532796805904  0.24613996712224262  1.0000
  H   H19       1.0  0.683281708280446  0.0068022998448526995  0.36475660233724927  1.0000
  C   C31       1.0  0.8259309294233985  0.4081372285089995  0.19595814350643148  1.0000
  C   C32       1.0  0.7542676604227183  0.3913511620482659  0.19522792985563964  1.0000
  C   C33       1.0  0.718079567411256  0.38272868173539054  0.07771729022029672  1.0000
  C   C34       1.0  0.7544720533269393  0.3911390047716088  0.9599633265183738  1.0000
  C   C35       1.0  0.826090415597547  0.40792202491195906  0.9587442864688138  1.0000
  C   C36       1.0  0.8614016476206635  0.4163173723070428  0.07726670134304237  1.0000
  C   C37       1.0  0.6423154441745796  0.36498740682813113  0.07799158706687681  1.0000
  C   C38       1.0  0.6113468247536981  0.2785173501906293  0.9965265152517548  1.0000
  C   C39       1.0  0.5400496224851831  0.2619151237418966  0.9968168603215002  1.0000
  C   C40       1.0  0.49845107153608537  0.3307949633675198  0.07908842758294399  1.0000
  C   C41       1.0  0.5290515998970108  0.41811677579669815  0.15957174037283028  1.0000
  C   C42       1.0  0.6003481090148217  0.43472321251398127  0.1594293354396119  1.0000
  C   C43       1.0  0.42164412558762837  0.31525896595610825  0.07705408156589  1.0000
  C   C44       1.0  0.3907142656194164  0.4095500260733782  0.9792098369848676  1.0000
  C   C45       1.0  0.3652945367077043  0.4870852696951007  0.8987549791950129  1.0000
  H   H20       1.0  0.9612462272262328  0.43902436520819355  0.4046920737799824  1.0000
  H   H21       1.0  0.7265932889467206  0.3831869814247344  0.2864167381699949  1.0000
  H   H22       1.0  0.7266991092330309  0.38636358115886993  0.8689794205159509  1.0000
  H   H23       1.0  0.9166430574753996  0.42925884212281207  0.07704215424922745  1.0000
  H   H24       1.0  0.8536400579615285  0.4143358496241003  0.6308030917364897  1.0000
  H   H25       1.0  0.6423468119527739  0.2226302080767173  0.9335725492344586  1.0000
  H   H26       1.0  0.5172625932398793  0.19513366236150032  0.9329956103569228  1.0000
  H   H27       1.0  0.4976497912160238  0.47370141263425936  0.222175717998212  1.0000
  H   H28       1.0  0.6225742512331427  0.5036214315868595  0.22160131564790198  1.0000
  H   H29       1.0  0.407900128098401  0.21523943474830687  0.05347578307258183  1.0000
  H   H30       1.0  0.3997455386103925  0.33107031824760713  0.17398995657663274  1.0000
  H   H31       1.0  0.34299747288696036  0.5551582325498599  0.8281231994723943  1.0000
  Zn  Zn1       1.0  0.7506231426730221  0.40928808024783603  0.5763927554728583  1.0000
  Zn  Zn2       1.0  0.9013916391350568  0.40677068399257865  0.5783090261477248  1.0000
  C   C46       1.0  0.8260580891303796  0.40278864077213683  0.8145635400267306  1.0000
  C   C47       1.0  0.825958339302006  0.4132717346981525  0.3401383893094516  1.0000
  C   C48       1.0  0.8260365105384533  0.6452429894598046  0.5720765972744644  1.0000
  C   C49       1.0  0.8259798662613594  0.17081582641775017  0.5826254013026777  1.0000
  O   O1        1.0  0.8831833962510426  0.41403391690803826  0.3892538140050523  1.0000
  O   O2        1.0  0.8832628322465349  0.4001148333546627  0.7669021469734252  1.0000
  O   O3        1.0  0.8832446362459175  0.5958997986711543  0.5710922146981521  1.0000
  O   O4        1.0  0.8832015407854137  0.2182489617690282  0.5850636482417111  1.0000
  O   O5        1.0  0.7688131895727753  0.5978098033318668  0.5696381327181113  1.0000
  O   O6        1.0  0.768831385756076  0.402026398468589  0.7654479950916637  1.0000
  O   O7        1.0  0.768751949473998  0.4159454372019664  0.3877981006431235  1.0000
  O   O8        1.0  0.7687700940247261  0.22016047274595452  0.5836080322576354  1.0000
