data_image0
_chemical_formula_structural       NC10NC3NH7C12OCH12C13F3H9Zn2C4O8
_chemical_formula_sum              "N3 C43 H28 O9 F3 Zn2"
_cell_length_a       19.210446455230148
_cell_length_b       10.29979075500242
_cell_length_c       10.2985328690268
_cell_angle_alpha    85.57397699723032
_cell_angle_beta     89.99621934770116
_cell_angle_gamma    89.92936594805748

_space_group_name_H-M_alt    "P 1"
_space_group_IT_number       1

loop_
  _space_group_symop_operation_xyz
  'x, y, z'

loop_
  _atom_site_type_symbol
  _atom_site_label
  _atom_site_symmetry_multiplicity
  _atom_site_fract_x
  _atom_site_fract_y
  _atom_site_fract_z
  _atom_site_occupancy
  N   N1        1.0  0.655156859312534  0.41973600784357346  0.5671611026360082  1.0000
  C   C1        1.0  0.5949277808067343  0.42194354959520286  0.5673921789792693  1.0000
  C   C2        1.0  0.5201226851584919  0.4246804970592095  0.5676784536523474  1.0000
  C   C3        1.0  0.4844840869397343  0.5409132529138458  0.5827866599567253  1.0000
  C   C4        1.0  0.4118185658054689  0.5410647717260662  0.5827340528467218  1.0000
  C   C5        1.0  0.3749557609080255  0.42538947593955756  0.5677649145812327  1.0000
  C   C6        1.0  0.2976339590185026  0.4240329814820083  0.5676143661595006  1.0000
  C   C7        1.0  0.2598493008652625  0.527582929894457  0.5042440166714535  1.0000
  C   C8        1.0  0.1870712873050438  0.5261806933836681  0.5041349907322297  1.0000
  C   C9        1.0  0.1510764529057618  0.42148599834468103  0.5673453036183029  1.0000
  C   C10       1.0  0.0761472477089866  0.42018390094432245  0.567208517277741  1.0000
  N   N2        1.0  0.015909648550393  0.419136970436768  0.5670985759400264  1.0000
  C   C11       1.0  0.1881374203802156  0.318061732706727  0.6306906378757737  1.0000
  C   C12       1.0  0.2609173549765639  0.31918972117580013  0.6308499241322263  1.0000
  C   C13       1.0  0.413203788068211  0.31097702625408763  0.5529448203376142  1.0000
  N   N3        1.0  0.4839731369934788  0.31342200327748926  0.5531102970439792  1.0000
  H   H1        1.0  0.5125635985615488  0.6303486975006198  0.5948323563827451  1.0000
  H   H2        1.0  0.3845282185086816  0.6310824789199532  0.5961745467579984  1.0000
  H   H3        1.0  0.2865523015332425  0.6088198038843693  0.453246582972632  1.0000
  H   H4        1.0  0.1589009041446353  0.6065902677176827  0.4544680763899376  1.0000
  H   H5        1.0  0.1607947054387213  0.23668875069856443  0.6802580991153859  1.0000
  H   H6        1.0  0.2884429453579386  0.23889975138232722  0.6819546603078337  1.0000
  H   H7        1.0  0.3869601540178069  0.22009640111832374  0.5394581106525946  1.0000
  C   C14       1.0  0.8355991365909158  0.038068651785306384  0.5671687830605239  1.0000
  C   C15       1.0  0.8154562078797064  0.026975867353381533  0.6986203658826207  1.0000
  C   C16       1.0  0.8051943916933446  0.9042188655038111  0.7651947383637911  1.0000
  C   C17       1.0  0.8153311460893573  0.7916937618427146  0.6985545974539473  1.0000
  C   C18       1.0  0.8354740438513155  0.8007943312747968  0.5671020820513482  1.0000
  C   C19       1.0  0.84549687060173  0.9244233303813256  0.5021458910847196  1.0000
  C   C20       1.0  0.7838885550811154  0.8935374247666479  0.9042643877250411  1.0000
  C   C21       1.0  0.7331005777982433  0.8027691928554419  0.9493421827270607  1.0000
  C   C22       1.0  0.7131107673931596  0.7929896324401983  0.0800946636237243  1.0000
  C   C23       1.0  0.7434587041808897  0.8733110139800345  0.16744423446684464  1.0000
  C   C24       1.0  0.7944320944295321  0.9646885903300096  0.12423825579043468  1.0000
  C   C25       1.0  0.8142060809705856  0.9741071618500177  0.9929590724473125  1.0000
  O   O1        1.0  0.8266124678341387  0.04736049638349593  0.2081075022613753  1.0000
  C   C26       1.0  0.8116959526022504  0.048403287918979965  0.3434565087363025  1.0000
  H   H8        1.0  0.8433049199106197  0.3697469119376837  0.5171013756590592  1.0000
  H   H9        1.0  0.8067781793932463  0.11403166274906629  0.7490544760923501  1.0000
  H   H10       1.0  0.808394483203598  0.696820481297641  0.7499275906050513  1.0000
  H   H11       1.0  0.8610368247890468  0.9322125475399934  0.4007365486501624  1.0000
  H   H12       1.0  0.8431147703334851  0.4768106525195742  0.5169970479593313  1.0000
  H   H13       1.0  0.7081995264872734  0.7405617878647145  0.8831319229071215  1.0000
  H   H14       1.0  0.6737989400633743  0.7230949002773823  0.11378284313931863  1.0000
  H   H15       1.0  0.7269676418904661  0.8636188991769113  0.2681213558575647  1.0000
  H   H16       1.0  0.8540796361248918  0.043575202040418315  0.9607837685069942  1.0000
  H   H17       1.0  0.8237230949463787  0.951869354576914  0.39408086341648463  1.0000
  H   H18       1.0  0.8445462031646611  0.12300033368745189  0.38566834723168053  1.0000
  H   H19       1.0  0.756127722666848  0.07341051714861768  0.35790272632933307  1.0000
  C   C27       1.0  0.8355165928875752  0.41930959434065596  0.18573798759741122  1.0000
  C   C28       1.0  0.9053230077816209  0.37830246696672076  0.1879425746238912  1.0000
  C   C29       1.0  0.9406944216601559  0.35764251443964623  0.07188878962340861  1.0000
  C   C30       1.0  0.9053640604169839  0.3785580146684988  0.9526418686423161  1.0000
  C   C31       1.0  0.8355565627606377  0.4195534390486597  0.9485329336026984  1.0000
  C   C32       1.0  0.8010786323204818  0.4396622591601864  0.06557830909165019  1.0000
  C   C33       1.0  0.014496423409972925  0.3143003887608784  0.07515400010699924  1.0000
  C   C34       1.0  0.06255219346045982  0.3688208572851621  0.9835992353821719  1.0000
  C   C35       1.0  0.1320097546518233  0.32813222667471065  0.9866937134621003  1.0000
  C   C36       1.0  0.1546757353657362  0.2306988601671962  0.08016980601188428  1.0000
  C   C37       1.0  0.1070226030362409  0.17799676171073942  0.17330166886148035  1.0000
  C   C38       1.0  0.03756956764192254  0.2187184396595947  0.1703181080883036  1.0000
  C   C39       1.0  0.23015338349588643  0.19028713188172874  0.08644377332089204  1.0000
  F   F1        1.0  0.2658388852389113  0.26954215977721074  0.16591533720398544  1.0000
  F   F2        1.0  0.25979639107836827  0.20141103951882333  0.9635804498060101  1.0000
  F   F3        1.0  0.23662090669960723  0.062155740761929756  0.13633994254921378  1.0000
  H   H20       1.0  0.7037409726407255  0.4976161175268783  0.3888339720495131  1.0000
  H   H21       1.0  0.9325851234274586  0.36409770801918806  0.2800180918282078  1.0000
  H   H22       1.0  0.9321003369337968  0.3611321614866305  0.8630080761527861  1.0000
  H   H23       1.0  0.7472772217848124  0.47126201429016135  0.06314606663650624  1.0000
  H   H24       1.0  0.7035182780933653  0.4962768685546295  0.7334998563102118  1.0000
  H   H25       1.0  0.046677297752039104  0.4446111993802413  0.9108660769040173  1.0000
  H   H26       1.0  0.16809101107599655  0.3732984425383008  0.9161982230218868  1.0000
  H   H27       1.0  0.1234535391660101  0.10509702146752464  0.24847735628671175  1.0000
  H   H28       1.0  0.0017388719953277398  0.17450583105246342  0.24183314872851036  1.0000
  Zn  Zn1       1.0  0.7592623217190784  0.4195596769413448  0.5671505587136003  1.0000
  Zn  Zn2       1.0  0.9118041724971613  0.41930272222106346  0.5671197573607745  1.0000
  C   C40       1.0  0.835548305159565  0.4143336689761459  0.8043488000437433  1.0000
  C   C41       1.0  0.8355198545468314  0.4245303660360633  0.3299216430270788  1.0000
  C   C42       1.0  0.8354938175739453  0.6566213179168554  0.5619391694239368  1.0000
  C   C43       1.0  0.8355742903401522  0.18224115690696108  0.572331343037563  1.0000
  O   O2        1.0  0.8934097875105985  0.42617932600662534  0.37829930646548293  1.0000
  O   O3        1.0  0.893434107499314  0.4124887064791538  0.7559473853028311  1.0000
  O   O4        1.0  0.8933893277863895  0.6081390488905043  0.5601998935285522  1.0000
  O   O5        1.0  0.8934545151646953  0.23052899294202445  0.5740467008675021  1.0000
  O   O6        1.0  0.7776119269964965  0.6083334063094819  0.560223615210552  1.0000
  O   O7        1.0  0.7776567064466723  0.41268462417562146  0.7559710375978328  1.0000
  O   O8        1.0  0.7776323864298477  0.4263751979480437  0.3783213972468391  1.0000
  O   O9        1.0  0.7776771140877246  0.23072485562579081  0.5740688890247985  1.0000
