data_image0
_chemical_formula_structural       NC10NC3NH7C12ClH9C12OCH12Zn2C4O8
_chemical_formula_sum              "N3 C42 H28 Cl1 O9 Zn2"
_cell_length_a       19.210446455230148
_cell_length_b       10.299768534541528
_cell_length_c       10.299794127170987
_cell_angle_alpha    85.578860457747
_cell_angle_beta     89.98403246644892
_cell_angle_gamma    89.96529235611058

_space_group_name_H-M_alt    "P 1"
_space_group_IT_number       1

loop_
  _space_group_symop_operation_xyz
  'x, y, z'

loop_
  _atom_site_type_symbol
  _atom_site_label
  _atom_site_symmetry_multiplicity
  _atom_site_fract_x
  _atom_site_fract_y
  _atom_site_fract_z
  _atom_site_occupancy
  N   N1        1.0  0.655797510966086  0.4197580095042954  0.5674868901353873  1.0000
  C   C1        1.0  0.5955691482323442  0.42196553132932135  0.5677181761919865  1.0000
  C   C2        1.0  0.5207649400351801  0.4247024540927806  0.5680047108974722  1.0000
  C   C3        1.0  0.48516369367416445  0.5409340960019597  0.5831236040546517  1.0000
  C   C4        1.0  0.4124982294749421  0.5410856149538525  0.5830710196041928  1.0000
  C   C5        1.0  0.3755982442671019  0.425411426303808  0.5680912376997593  1.0000
  C   C6        1.0  0.2982760035241803  0.42405494427916834  0.5679405614458897  1.0000
  C   C7        1.0  0.2605333817276432  0.5276055917763143  0.5045890077163704  1.0000
  C   C8        1.0  0.187754909202311  0.5262033670917616  0.5044798440089122  1.0000
  C   C9        1.0  0.1517176718590088  0.42150798418649393  0.5676712572412592  1.0000
  C   C10       1.0  0.0767880445265883  0.4202058985503996  0.5675343472622218  1.0000
  N   N2        1.0  0.0165501059521007  0.4191589775008433  0.5674243065102047  1.0000
  C   C11       1.0  0.1887366480803535  0.3180830191697268  0.6309978122879569  1.0000
  C   C12       1.0  0.2615169437159069  0.31921099654955265  0.6311572007264239  1.0000
  C   C13       1.0  0.4138094986596242  0.3110000719845236  0.5532606177510897  1.0000
  N   N3        1.0  0.4845796506563326  0.3134450289294999  0.553426337646443  1.0000
  H   H1        1.0  0.5132718977667413  0.6303686742005885  0.5951774727099384  1.0000
  H   H2        1.0  0.3852366113557904  0.6311024211378728  0.5965195800351104  1.0000
  H   H3        1.0  0.2872695069022854  0.6088430424402096  0.4536064744317376  1.0000
  H   H4        1.0  0.1596172207254405  0.6066134943683552  0.4548275804124329  1.0000
  H   H5        1.0  0.1613609259218103  0.23670949288462828  0.6805505310912969  1.0000
  H   H6        1.0  0.289009715681094  0.2389204413545798  0.6822471254543618  1.0000
  H   H7        1.0  0.387536850610039  0.22012035467670388  0.5397657542453285  1.0000
  C   C14       1.0  0.8361114805064408  0.03809321887193118  0.5674534888003708  1.0000
  C   C15       1.0  0.8407045430401979  0.047611883427667534  0.43099034242289447  1.0000
  C   C16       1.0  0.8430988041848906  0.9352955902644962  0.36185075775852305  1.0000
  C   C17       1.0  0.8408374903198989  0.8123239497010148  0.43100580856741577  1.0000
  C   C18       1.0  0.8362427902356988  0.8008137588088534  0.5674688931822722  1.0000
  C   C19       1.0  0.8339060285344289  0.9142552433660781  0.6349285390104968  1.0000
  C   C20       1.0  0.847958806986416  0.9464192101215687  0.2174841248544681  1.0000
  C   C21       1.0  0.8083625114249398  0.04000353243403265  0.1430307796599335  1.0000
  C   C22       1.0  0.8129989055074698  0.05027750486628291  0.007156775669196147  1.0000
  C   C23       1.0  0.8571644781706895  0.9674889126638585  0.9440443522282189  1.0000
  C   C24       1.0  0.8967494599060585  0.8742164171813418  0.016986551696768215  1.0000
  C   C25       1.0  0.8922366810016424  0.8635499924837862  0.1528751767994656  1.0000
  Cl  Cl1       1.0  0.8629039629524892  0.9806253093323937  0.7735665749345961  1.0000
  H   H8        1.0  0.8343255813751819  0.36191994777354597  0.6194494183787431  1.0000
  H   H9        1.0  0.8433915378850043  0.14260456311698988  0.378259828027967  1.0000
  H   H10       1.0  0.8417079044217102  0.7254734285144055  0.3780620643392103  1.0000
  H   H11       1.0  0.8303619872464812  0.9061438442864655  0.7402035747788749  1.0000
  H   H12       1.0  0.8345197098347227  0.4689740468120229  0.6194726124683487  1.0000
  H   H13       1.0  0.773164192466165  0.10405139433825528  0.1897781001023564  1.0000
  H   H14       1.0  0.7820961840149591  0.12242653180496865  0.951053081710155  1.0000
  H   H15       1.0  0.9311715762971738  0.8101227411495978  0.9685499693676514  1.0000
  H   H16       1.0  0.9240228056020405  0.7916923762899069  0.20748448435786582  1.0000
  C   C26       1.0  0.8362005911110596  0.41933999623794227  0.1861097750387668  1.0000
  C   C27       1.0  0.767981696856554  0.37033115559457785  0.18892726002929439  1.0000
  C   C28       1.0  0.7333955192098021  0.34560060806765436  0.07320803950325727  1.0000
  C   C29       1.0  0.7679344117790873  0.3705576982996568  0.9536223811884885  1.0000
  C   C30       1.0  0.8361536958775531  0.4195670457179983  0.9488126343056869  1.0000
  C   C31       1.0  0.8699054923644414  0.4436808814482569  0.06557607981427194  1.0000
  C   C32       1.0  0.6612257851772276  0.2937449325729584  0.07724347541645082  1.0000
  C   C33       1.0  0.6114018112223103  0.34249419236104073  0.9861047866008579  1.0000
  C   C34       1.0  0.5435734569392134  0.29367734559839964  0.9901668262518553  1.0000
  C   C35       1.0  0.5245831964855905  0.19577608977565308  0.08485483571749808  1.0000
  C   C36       1.0  0.5737201969836102  0.14562338989513335  0.17685619755257642  1.0000
  C   C37       1.0  0.6416432843231248  0.19507961810115515  0.17234277871121173  1.0000
  O   O1        1.0  0.5573185905127851  0.04707887517053644  0.2736787010914965  1.0000
  C   C38       1.0  0.49058471785335045  0.9879168021266541  0.28972628433392944  1.0000
  H   H17       1.0  0.8622041642689224  0.4379561407302599  0.5124937479952671  1.0000
  H   H18       1.0  0.741236033731313  0.3529469317267091  0.281208570876071  1.0000
  H   H19       1.0  0.7418370230320167  0.3500068200794122  0.8642949635353423  1.0000
  H   H20       1.0  0.9225337945849591  0.4814883011093609  0.06263411715348255  1.0000
  H   H21       1.0  0.8621341637834605  0.4383030220604698  0.6195225442800116  1.0000
  H   H22       1.0  0.6246533143068027  0.4195374109713661  0.9127853446270224  1.0000
  H   H23       1.0  0.5055214269483087  0.33213547982092706  0.9198363308544213  1.0000
  H   H24       1.0  0.47169439636811583  0.1598301142675187  0.08569173544255504  1.0000
  H   H25       1.0  0.6793881704034986  0.15487199427623177  0.24249952565248156  1.0000
  H   H26       1.0  0.4762290585283998  0.9394854510127546  0.20086726068400385  1.0000
  H   H27       1.0  0.4923605762290959  0.9134388807132182  0.3733963567279315  1.0000
  H   H28       1.0  0.4509511353128989  0.062240097741512956  0.3100117276258465  1.0000
  Zn  Zn1       1.0  0.7599029152968833  0.4195816800195098  0.5674763285064464  1.0000
  Zn  Zn2       1.0  0.9124446832052963  0.41932472770461504  0.5674455032146299  1.0000
  C   C39       1.0  0.8361600965082115  0.4143504850529951  0.8046453724886069  1.0000
  C   C40       1.0  0.8361891680195759  0.4245575585071377  0.33027658638965995  1.0000
  C   C41       1.0  0.8362146994521988  0.6566418421832672  0.5622910845127325  1.0000
  C   C42       1.0  0.8361345127508818  0.18226464119743313  0.572630943579904  1.0000
  O   O2        1.0  0.8940741392935105  0.4262054423158512  0.37864858710674154  1.0000
  O   O3        1.0  0.8940507973548533  0.4125066005583009  0.7562496022395364  1.0000
  O   O4        1.0  0.8940941094708115  0.6081599373498723  0.5605468001872724  1.0000
  O   O5        1.0  0.8940307751329692  0.23055211487311067  0.5743512917995062  1.0000
  O   O6        1.0  0.7783167713141922  0.6083542929401111  0.5605705399252581  1.0000
  O   O7        1.0  0.7782734594679223  0.4127025164170699  0.7562732727668409  1.0000
  O   O8        1.0  0.7782968015411329  0.4264013124542563  0.37867069630398387  1.0000
  O   O9        1.0  0.7782534373701564  0.23074797575178185  0.5743734983599367  1.0000
