data_image0
_chemical_formula_structural       NC11NC3H8C16H10C13NH13Zn2C4O8
_chemical_formula_sum              "N3 C47 H31 Zn2 O8"
_cell_length_a       17.807433833752565
_cell_length_b       10.29914801576943
_cell_length_c       10.299780419254978
_cell_angle_alpha    85.54946318164076
_cell_angle_beta     88.51101288378402
_cell_angle_gamma    90.69784511463686

_space_group_name_H-M_alt    "P 1"
_space_group_IT_number       1

loop_
  _space_group_symop_operation_xyz
  'x, y, z'

loop_
  _atom_site_type_symbol
  _atom_site_label
  _atom_site_symmetry_multiplicity
  _atom_site_fract_x
  _atom_site_fract_y
  _atom_site_fract_z
  _atom_site_occupancy
  N   N1        1.0  0.7078095114267684  0.4382820838687256  0.5341191864336945  1.0000
  C   C1        1.0  0.6569763242144616  0.4035668190602424  0.6006932348071625  1.0000
  C   C2        1.0  0.5937347152270185  0.3603838905132071  0.6835028558501166  1.0000
  C   C3        1.0  0.6054366216184891  0.2968548472708228  0.8062426482805194  1.0000
  C   C4        1.0  0.5441029449118825  0.25535134239288637  0.8867677376553675  1.0000
  C   C5        1.0  0.4709128851401359  0.2770637243385812  0.8451939342027355  1.0000
  C   C6        1.0  0.4582342682171401  0.3407472324379919  0.7219938990877284  1.0000
  C   C7        1.0  0.3804765452816263  0.36378924456508344  0.6776390060636517  1.0000
  C   C8        1.0  0.3617077983805981  0.34688744274440797  0.5480706935765636  1.0000
  C   C9        1.0  0.2884877964940685  0.36856108381967645  0.5064528362946819  1.0000
  C   C10       1.0  0.23309362138995712  0.4074549034566681  0.5935829183887027  1.0000
  C   C11       1.0  0.1577371713956665  0.42978677048990455  0.5506035490086425  1.0000
  N   N2        1.0  0.0971559583940087  0.44773993249588506  0.5160512640709811  1.0000
  C   C12       1.0  0.2511709049223274  0.4245671849766075  0.7226200309272741  1.0000
  C   C13       1.0  0.3243381062658245  0.40285866637108625  0.7644933218714796  1.0000
  C   C14       1.0  0.5204252539877121  0.38224617555797913  0.6414852267763966  1.0000
  H   H1        1.0  0.661895533511773  0.2794461282908851  0.8396140521676845  1.0000
  H   H2        1.0  0.553281509559674  0.205915415366015  0.9815205304086716  1.0000
  H   H3        1.0  0.4242603400134848  0.24251852342405722  0.9086447512037084  1.0000
  H   H4        1.0  0.4033908247910298  0.31522801632463593  0.47936992418231394  1.0000
  H   H5        1.0  0.27505764393527  0.3546574667625908  0.40642796998984676  1.0000
  H   H6        1.0  0.2087709914444465  0.455003369773586  0.7908065560940254  1.0000
  H   H7        1.0  0.3372400679050948  0.4183077832769688  0.8643348041568155  1.0000
  H   H8        1.0  0.5119453272116119  0.4330446208962684  0.546966179419706  1.0000
  C   C15       1.0  0.9024328055201646  0.06160845483321786  0.5252530612113862  1.0000
  C   C16       1.0  0.8852972526743709  0.0707625763420554  0.39257967613793543  1.0000
  C   C17       1.0  0.8766643932836261  0.9582754562721321  0.32514429351486496  1.0000
  C   C18       1.0  0.8853975941439703  0.8355131125026642  0.39217044577980564  1.0000
  C   C19       1.0  0.902539832175483  0.8244037292952802  0.524928270084168  1.0000
  C   C20       1.0  0.910953232545667  0.9379648721429764  0.5906520808559974  1.0000
  C   C21       1.0  0.8585372303672967  0.9690050230010032  0.18479184395275494  1.0000
  C   C22       1.0  0.8940928198534832  0.8888654705065733  0.09792761344160383  1.0000
  C   C23       1.0  0.8770059126999232  0.899088308091006  0.9658345195183591  1.0000
  C   C24       1.0  0.8241880240081453  0.9893463623540061  0.9188096131402372  1.0000
  C   C25       1.0  0.7884956195459046  0.0694626332816135  0.004396303775817012  1.0000
  C   C26       1.0  0.8055289595264401  0.05947976463042837  0.1365128292618154  1.0000
  C   C27       1.0  0.8066247630422776  0.9997477497380866  0.7828060386560116  1.0000
  C   C28       1.0  0.791915721251415  0.008458812834819751  0.6689050155492411  1.0000
  C   C29       1.0  0.7746916070399206  0.01865934955034554  0.535528077858606  1.0000
  C   C30       1.0  0.7599850339519277  0.027369099380819106  0.42164544720363306  1.0000
  H   H9        1.0  0.9089852350087184  0.38556105181317357  0.5763008146997346  1.0000
  H   H10       1.0  0.8796367693208961  0.16566933727169664  0.34093437646080416  1.0000
  H   H11       1.0  0.8777979128634331  0.7484242892990554  0.34110969783844447  1.0000
  H   H12       1.0  0.9241681268014946  0.9301881193324845  0.692987425894346  1.0000
  H   H13       1.0  0.9344296422056801  0.5961175233413231  0.7757015255723558  1.0000
  H   H14       1.0  0.9358215199420644  0.8194820913438955  0.13183939788490484  1.0000
  H   H15       1.0  0.9051216085994643  0.8368346875267956  0.9003575305607887  1.0000
  H   H16       1.0  0.7473646525967275  0.13942459228773285  0.9690869437905851  1.0000
  H   H17       1.0  0.7765375944033489  0.12132213551516768  0.20122769959850229  1.0000
  H   H18       1.0  0.7470714788457584  0.035016996888299845  0.32164689225798604  1.0000
  C   C31       1.0  0.9025374674499403  0.44292245956347953  0.143734159766445  1.0000
  C   C32       1.0  0.956944179907809  0.5432816522374415  0.13250627009651894  1.0000
  C   C33       1.0  0.9844545784854173  0.5942283362736613  0.00967573694120305  1.0000
  C   C34       1.0  0.9568410227715799  0.5434513936671856  0.8972108091037527  1.0000
  C   C35       1.0  0.9024352024594923  0.4430897031053225  0.9064471050769329  1.0000
  C   C36       1.0  0.8755860164396857  0.3933906092154893  0.030148859863354138  1.0000
  C   C37       1.0  0.04201474138354788  0.7003972307651558  0.9988890538256063  1.0000
  C   C38       1.0  0.03695085161924827  0.8048607625504127  0.9032538963044003  1.0000
  C   C39       1.0  0.09115213008149659  0.9047023794592184  0.8931858063745772  1.0000
  C   C40       1.0  0.15103757433537068  0.9024536825192795  0.9790827934939279  1.0000
  C   C41       1.0  0.15682161697716346  0.7977287833171196  0.07362787608687937  1.0000
  C   C42       1.0  0.10263586858445972  0.6978628425807065  0.08386802635820856  1.0000
  C   C43       1.0  0.21037731053478947  0.008121755226530247  0.9658299371626176  1.0000
  N   N3        1.0  0.267964566161222  0.9768659427936972  0.8702933620990985  1.0000
  H   H19       1.0  0.8818364878825565  0.4046347827935084  0.4754679332627194  1.0000
  H   H20       1.0  0.9773143632680868  0.5832856896651477  0.21941428667661533  1.0000
  H   H21       1.0  0.9786249569510822  0.5811387044475165  0.8023768273195886  1.0000
  H   H22       1.0  0.8336139653127401  0.31596702138527744  0.038042090245843374  1.0000
  H   H23       1.0  0.8816898391389791  0.40486994886965144  0.5825118994660312  1.0000
  H   H24       1.0  0.9906188020622057  0.8100822355118735  0.8370996110882212  1.0000
  H   H25       1.0  0.0863245770219574  0.9839919412210321  0.8185372757541218  1.0000
  H   H26       1.0  0.20343272555570469  0.7931664037214612  0.13924241340845822  1.0000
  H   H27       1.0  0.10877265534080238  0.6175878399787011  0.15699033979396226  1.0000
  H   H28       1.0  0.18443200990115471  0.10252606014236676  0.9337135685906368  1.0000
  H   H29       1.0  0.236286985561992  0.02006244069196228  0.06147951647740779  1.0000
  H   H30       1.0  0.3058863640620548  0.05548517569575706  0.858561473723094  1.0000
  H   H31       1.0  0.29809331025180774  0.8972876454128023  0.9097013557637221  1.0000
  Zn  Zn1       1.0  0.820166483982803  0.44100794137715327  0.5289126600831942  1.0000
  Zn  Zn2       1.0  0.9847989681674618  0.44500345677822684  0.5212683806127167  1.0000
  C   C44       1.0  0.9024521097487272  0.4378839420328393  0.7622803390918784  1.0000
  C   C45       1.0  0.9025151403960007  0.44812913854587144  0.28790074489320716  1.0000
  C   C46       1.0  0.9025164351996793  0.6802179672847244  0.5198148164480634  1.0000
  C   C47       1.0  0.9024507585392444  0.20579355150523804  0.5303663400463334  1.0000
  O   O1        1.0  0.9649848161963344  0.45138715860547807  0.3333834060320573  1.0000
  O   O2        1.0  0.9649346800208211  0.4376574458215947  0.7109954732948953  1.0000
  O   O3        1.0  0.9649857812327417  0.6333452158005441  0.5152028868080976  1.0000
  O   O4        1.0  0.9649336588208615  0.25569939653281826  0.529175897751877  1.0000
  O   O5        1.0  0.8400317371484174  0.6303120002605009  0.52100514554582  1.0000
  O   O6        1.0  0.8399806361613151  0.43462579070823915  0.7167976621250929  1.0000
  O   O7        1.0  0.8400307725898408  0.44835545789093234  0.339184033529383  1.0000
  O   O8        1.0  0.8399796151969343  0.25266768654992244  0.5349766226179669  1.0000
