data_image0
_chemical_formula_structural       NC9NC5H8C16H10C12NH11Zn2C4O8
_chemical_formula_sum              "N3 C46 H29 Zn2 O8"
_cell_length_a       17.807436237873137
_cell_length_b       10.29914801576943
_cell_length_c       10.299774167527174
_cell_angle_alpha    85.55390253719857
_cell_angle_beta     89.38598095942662
_cell_angle_gamma    88.40369483635645

_space_group_name_H-M_alt    "P 1"
_space_group_IT_number       1

loop_
  _space_group_symop_operation_xyz
  'x, y, z'

loop_
  _atom_site_type_symbol
  _atom_site_label
  _atom_site_symmetry_multiplicity
  _atom_site_fract_x
  _atom_site_fract_y
  _atom_site_fract_z
  _atom_site_occupancy
  N   N1        1.0  0.7077032237410671  0.3874331545013514  0.556605887255816  1.0000
  C   C1        1.0  0.6471115087837293  0.3522374539186466  0.5455972439344061  1.0000
  C   C2        1.0  0.5717420749714649  0.30845787834199756  0.5319036869254345  1.0000
  C   C3        1.0  0.5536477534137596  0.23700614437930145  0.42693530242539435  1.0000
  C   C4        1.0  0.4804679123200766  0.19438802073179673  0.4135571628867958  1.0000
  C   C5        1.0  0.4243336235807321  0.2228440627953756  0.505115116472806  1.0000
  C   C6        1.0  0.346562327491668  0.1776669233138506  0.4909796412785763  1.0000
  C   C7        1.0  0.2843956761089679  0.25943706744169703  0.5168830532565507  1.0000
  C   C8        1.0  0.2110735007824569  0.21661589419584648  0.5035186797299633  1.0000
  C   C9        1.0  0.1478571121555243  0.3010777048864468  0.5297848464913115  1.0000
  N   N2        1.0  0.0970441232228966  0.36897915760123934  0.550902120569646  1.0000
  C   C10       1.0  0.1993343975544865  0.09176656955086804  0.4642256541269576  1.0000
  C   C11       1.0  0.2606436777413645  0.009982569571117317  0.43831385863325556  1.0000
  C   C12       1.0  0.3338463794889042  0.05240911134480286  0.45147586832789877  1.0000
  C   C13       1.0  0.4431194040632295  0.29479026618749793  0.6103025133384397  1.0000
  C   C14       1.0  0.5163521003436228  0.33721793459605465  0.6235250887709576  1.0000
  H   H1        1.0  0.596044372613594  0.21449788829346716  0.35523501221654397  1.0000
  H   H2        1.0  0.4675534456532397  0.1406769951093343  0.330662773927042  1.0000
  H   H3        1.0  0.2929048435330311  0.3569179905287585  0.5457178428782452  1.0000
  H   H4        1.0  0.1428653206588173  0.05772476865818632  0.4536455466188143  1.0000
  H   H5        1.0  0.2514363617043694  0.9133214519791685  0.40827836263748973  1.0000
  H   H6        1.0  0.3804792901804133  0.9866533889436777  0.43245594933236364  1.0000
  H   H7        1.0  0.4014395021441732  0.3167598164107963  0.683297474743821  1.0000
  H   H8        1.0  0.5297951579718747  0.39214932970771055  0.7053773805917747  1.0000
  C   C15       1.0  0.9023237541954493  0.9968072106213832  0.5539202987542837  1.0000
  C   C16       1.0  0.8851794862018143  0.007179808778930319  0.4207036077141475  1.0000
  C   C17       1.0  0.8765421962096639  0.8953065106100951  0.35299451238622237  1.0000
  C   C18       1.0  0.8852797990826897  0.7719231214043912  0.42029756644119454  1.0000
  C   C19       1.0  0.9024307578557769  0.759594788614101  0.5535989084651227  1.0000
  C   C20       1.0  0.9108484763785296  0.8725577139511732  0.6195894737752579  1.0000
  C   C21       1.0  0.8584058137153241  0.9073250653905424  0.21206731652318567  1.0000
  C   C22       1.0  0.8939551760407348  0.824630218308734  0.12633275163821134  1.0000
  C   C23       1.0  0.876859592150988  0.8360680886239652  0.9936978928172562  1.0000
  C   C24       1.0  0.8240391352736125  0.9301089093376287  0.9449959976872786  1.0000
  C   C25       1.0  0.788352873738104  0.012790187233024941  0.02944868619463059  1.0000
  C   C26       1.0  0.8053948926245763  0.0015961275838267674  0.16210527534244057  1.0000
  C   C27       1.0  0.8064669403771461  0.9417591854944943  0.8084355562894463  1.0000
  C   C28       1.0  0.7917504165495751  0.9515161795176055  0.6940681631402845  1.0000
  C   C29       1.0  0.7745175409490525  0.9629414889808489  0.5601451116394025  1.0000
  C   C30       1.0  0.7598034870314896  0.9726969941391125  0.4457961892202529  1.0000
  H   H9        1.0  0.9088795374001063  0.3202939002647074  0.6051758038906965  1.0000
  H   H10       1.0  0.8795155990822977  0.10248849295067552  0.3688788849732656  1.0000
  H   H11       1.0  0.877676774882148  0.6853752772593101  0.368995810286755  1.0000
  H   H12       1.0  0.9240700929403585  0.8638412764250526  0.7223438148614048  1.0000
  H   H13       1.0  0.9343370464260635  0.52904124688627  0.8053832488438177  1.0000
  H   H14       1.0  0.9356856876148297  0.7522580281277281  0.1615694595541335  1.0000
  H   H15       1.0  0.9049705794625791  0.771794100147558  0.9291141699235292  1.0000
  H   H16       1.0  0.7472199948273706  0.08569800429288943  0.9928333934006899  1.0000
  H   H17       1.0  0.7764081946867285  0.06552158227490001  0.2258990766603075  1.0000
  H   H18       1.0  0.7468833631253712  0.9812631489790591  0.34538819257021247  1.0000
  C   C31       1.0  0.902402804439732  0.378085264758629  0.1724071727898071  1.0000
  C   C32       1.0  0.8288193493205148  0.3322668839415779  0.176326587354104  1.0000
  C   C33       1.0  0.7915077425907763  0.3091674212492097  0.06116510298393063  1.0000
  C   C34       1.0  0.8287677696623825  0.3325006495504803  0.9410225349462582  1.0000
  C   C35       1.0  0.9023517023470314  0.37831678104418187  0.9351119699576147  1.0000
  C   C36       1.0  0.938757049042351  0.4008530312917089  0.05132963820585057  1.0000
  C   C37       1.0  0.7136607118179719  0.2606947966431923  0.06636496484546606  1.0000
  C   C38       1.0  0.6925334592224698  0.16323389711435032  0.16201449939542267  1.0000
  C   C39       1.0  0.6192603523797218  0.11766715666804117  0.16677493265957355  1.0000
  C   C40       1.0  0.5659554026395034  0.16872353251945338  0.07623088394307898  1.0000
  C   C41       1.0  0.5865868521764127  0.26581773804476194  0.9807481410598293  1.0000
  C   C42       1.0  0.6598374147667558  0.3114868175561498  0.9757217154951761  1.0000
  N   N3        1.0  0.4910140111715635  0.12205971325672249  0.08123645042466432  1.0000
  H   H19       1.0  0.9304542388636536  0.39548988967484666  0.4983711324892224  1.0000
  H   H20       1.0  0.7999742460167657  0.31612944506130436  0.26904218302134164  1.0000
  H   H21       1.0  0.8006296980568366  0.3131570207129688  0.8521130043292513  1.0000
  H   H22       1.0  0.9955234598043387  0.43619890799005856  0.047538001185598144  1.0000
  H   H23       1.0  0.9303792476797318  0.39583042287919  0.605402312206325  1.0000
  H   H24       1.0  0.7329395202266351  0.12104710322908452  0.23208926873546343  1.0000
  H   H25       1.0  0.6040948479209465  0.04233282017342721  0.24084734123094265  1.0000
  H   H26       1.0  0.5458669362773382  0.30635395530978915  0.9104086148332211  1.0000
  H   H27       1.0  0.6741247961508603  0.38772934419522076  0.9019938256339759  1.0000
  H   H28       1.0  0.45088617015568977  0.15952115467661288  0.01414485969189938  1.0000
  H   H29       1.0  0.4751050677666945  0.04970613689748005  0.1520713800952178  1.0000
  Zn  Zn1       1.0  0.8200585949229904  0.3821042663461718  0.5549674153260598  1.0000
  Zn  Zn2       1.0  0.9846887316434066  0.37429746199340763  0.5525512731105642  1.0000
  C   C43       1.0  0.9023589693254288  0.3730989878666937  0.7909466664106615  1.0000
  C   C44       1.0  0.902390155218304  0.3833042940094453  0.31657212241217847  1.0000
  C   C45       1.0  0.9024070178858363  0.6154103225423775  0.5484847446934749  1.0000
  C   C46       1.0  0.902342050257588  0.14099140159389378  0.5590341148469804  1.0000
  O   O1        1.0  0.9648621881373617  0.382087540150857  0.3640382854771491  1.0000
  O   O2        1.0  0.9648374007826895  0.36838957794598914  0.7416463338928527  1.0000
  O   O3        1.0  0.9648753583023023  0.5640590854893324  0.5458566284394641  1.0000
  O   O4        1.0  0.9648241744484608  0.18641804453284472  0.5598278943806323  1.0000
  O   O5        1.0  0.8399230959377507  0.5699836864722252  0.5476907948736711  1.0000
  O   O6        1.0  0.8398851386382613  0.3743157393342411  0.7434804304271236  1.0000
  O   O7        1.0  0.8399099261411338  0.38801365580336067  0.36587082069661614  1.0000
  O   O8        1.0  0.8398719124413359  0.19234415092550883  0.561660526967684  1.0000
