data_image0
_chemical_formula_structural       NC12NC2H8C12SCH12C12NCOH11Zn2C4O8
_chemical_formula_sum              "N3 C44 H31 S1 O9 Zn2"
_cell_length_a       17.80743265337812
_cell_length_b       10.299776766347529
_cell_length_c       10.299148425239203
_cell_angle_alpha    85.5384344644465
_cell_angle_beta     91.51916060690998
_cell_angle_gamma    89.41689066054833

_space_group_name_H-M_alt    "P 1"
_space_group_IT_number       1

loop_
  _space_group_symop_operation_xyz
  'x, y, z'

loop_
  _atom_site_type_symbol
  _atom_site_label
  _atom_site_symmetry_multiplicity
  _atom_site_fract_x
  _atom_site_fract_y
  _atom_site_fract_z
  _atom_site_occupancy
  N   N1        1.0  0.7073574823439586  0.40720446747804395  0.6013103998308085  1.0000
  C   C1        1.0  0.6565418481391403  0.43678906112440563  0.5326092963575697  1.0000
  C   C2        1.0  0.5933221835853755  0.47359014676056943  0.44715377198857786  1.0000
  C   C3        1.0  0.6050566511701615  0.5276583741494905  0.32052964428369335  1.0000
  C   C4        1.0  0.5437442827103287  0.5629549727308987  0.23747016878066218  1.0000
  C   C5        1.0  0.4705431875323378  0.5444470562873613  0.28037489542777383  1.0000
  C   C6        1.0  0.4578319028395124  0.4902598497593893  0.40746718459797715  1.0000
  C   C7        1.0  0.5200015891131198  0.45496651129735244  0.49051014771266743  1.0000
  C   C8        1.0  0.3800624056993697  0.47063673202139  0.45323230708448703  1.0000
  C   C9        1.0  0.3612537892265688  0.49777507100023355  0.5802838790857836  1.0000
  C   C10       1.0  0.2880227346329445  0.47930871236112615  0.6232291721031689  1.0000
  C   C11       1.0  0.2326572591934035  0.4334494288058959  0.5399608939692417  1.0000
  C   C12       1.0  0.1572895101547145  0.4144297200857505  0.5843071640479984  1.0000
  N   N2        1.0  0.09669917716385222  0.39913915346622986  0.6199585144631485  1.0000
  C   C13       1.0  0.2507743394998785  0.4061419738651033  0.4134523123432372  1.0000
  C   C14       1.0  0.3239525714366869  0.4246232141839632  0.37025112020673445  1.0000
  H   H1        1.0  0.6615242654660808  0.5424950158057325  0.28609147022844406  1.0000
  H   H2        1.0  0.552947860196412  0.6050885914904174  0.13968775189652338  1.0000
  H   H3        1.0  0.4239072630811563  0.5741070890464548  0.21478189382294577  1.0000
  H   H4        1.0  0.5114966769816457  0.4114476382217349  0.5881680650972925  1.0000
  H   H5        1.0  0.4029140734507229  0.5349294794922006  0.6458615062002206  1.0000
  H   H6        1.0  0.2745617229926115  0.5011172883989201  0.721243647449707  1.0000
  H   H7        1.0  0.2083968769355637  0.3702546852922344  0.34828770380171736  1.0000
  H   H8        1.0  0.3368854410159599  0.40127898506619064  0.2725399423757007  1.0000
  C   C15       1.0  0.9021027612689466  0.021805143091622847  0.6106364077584836  1.0000
  C   C16       1.0  0.906596939530271  0.010093718632529836  0.7473745209007034  1.0000
  C   C17       1.0  0.9088018442028162  0.8870223217715411  0.8166627057436211  1.0000
  C   C18       1.0  0.9064532855777058  0.774808911774423  0.7473828317171713  1.0000
  C   C19       1.0  0.901961113864261  0.7845283474672823  0.610644065250112  1.0000
  C   C20       1.0  0.8998105751281371  0.908464482677225  0.5430362584416093  1.0000
  C   C21       1.0  0.9135478986014496  0.875697033759999  0.9613158046227481  1.0000
  C   C22       1.0  0.8705407976322665  0.783096829191277  0.03330346955493246  1.0000
  C   C23       1.0  0.8750299533927768  0.7726723976565961  0.16943671338968203  1.0000
  C   C24       1.0  0.9223386325675882  0.8545727395199992  0.2353800989308772  1.0000
  C   C25       1.0  0.965524810223598  0.9465948788131131  0.16477416611850126  1.0000
  C   C26       1.0  0.9611458158395828  0.9573669214113335  0.028635782932534215  1.0000
  S   S1        1.0  0.9281816817709149  0.8407345058452215  0.41006174811363805  1.0000
  C   C27       1.0  0.8526868291636771  0.9583521279053354  0.4259758116569642  1.0000
  H   H9        1.0  0.9004198311573051  0.3537205971418249  0.5585343952132569  1.0000
  H   H10       1.0  0.9073569846481766  0.0968871124693289  0.8003727329876937  1.0000
  H   H11       1.0  0.9091721992355806  0.6797170008701275  0.8002787173499972  1.0000
  H   H12       1.0  0.8963440213383993  0.9167308497551622  0.4375486428374493  1.0000
  H   H13       1.0  0.9002118850389934  0.4607788988215724  0.5585435433039456  1.0000
  H   H14       1.0  0.8327295730983042  0.7199355377475946  0.9843752253674505  1.0000
  H   H15       1.0  0.8414335348680485  0.7012829949117496  0.2235527206266792  1.0000
  H   H16       1.0  0.002536236298988026  0.009827955787123699  0.215253141667762  1.0000
  H   H17       1.0  0.9956902048796339  0.028367150816327236  0.9759783155819097  1.0000
  H   H18       1.0  0.8677333139049996  0.05439038477611824  0.3778156175191202  1.0000
  H   H19       1.0  0.8439660575292441  0.9691685736228424  0.5308443075157049  1.0000
  H   H20       1.0  0.7998293496956296  0.9239320217209326  0.3813192735358043  1.0000
  C   C28       1.0  0.9020884021989074  0.4033214171564554  0.22924671976675115  1.0000
  C   C29       1.0  0.9783038864302132  0.43730114496278905  0.2289284098333444  1.0000
  C   C30       1.0  0.016827439370733277  0.45431784784642804  0.11162916522321842  1.0000
  C   C31       1.0  0.9781455768042788  0.43696427735273513  0.9936636659449207  1.0000
  C   C32       1.0  0.9019754387849824  0.40301208357615725  0.9920336921837865  1.0000
  C   C33       1.0  0.8643937212467281  0.3863807347534396  0.11035244017615686  1.0000
  C   C34       1.0  0.09740888481540555  0.4902409977673652  0.1123829192120609  1.0000
  C   C35       1.0  0.14790111718795607  0.4318246742491725  0.031202190562293675  1.0000
  C   C36       1.0  0.22369184027576217  0.46576765090038386  0.032058850127602234  1.0000
  C   C37       1.0  0.2507651715458783  0.5574788540319799  0.11486629638324986  1.0000
  C   C38       1.0  0.2001980398081762  0.6177429260068221  0.19447507586575097  1.0000
  C   C39       1.0  0.12437334618255713  0.5839073205419294  0.19371363249223128  1.0000
  N   N3        1.0  0.32877949511428506  0.5920693758283424  0.11206818876920055  1.0000
  C   C40       1.0  0.37198562741704166  0.6278470166741434  0.2228683995345373  1.0000
  O   O1        1.0  0.3465686596453639  0.6142111331349007  0.3360109259376365  1.0000
  H   H21       1.0  0.7583550985210405  0.3384199994642818  0.4372061014361792  1.0000
  H   H22       1.0  0.008108081848961612  0.4488790384286805  0.32028255906485303  1.0000
  H   H23       1.0  0.007291171871138369  0.45175204581403805  0.9028270291669602  1.0000
  H   H24       1.0  0.8056426691007416  0.3601890054832042  0.10981033828827069  1.0000
  H   H25       1.0  0.8726805681821929  0.389916815156899  0.6639337278267168  1.0000
  H   H26       1.0  0.12897403038085598  0.35870772293460007  0.9681214166293355  1.0000
  H   H27       1.0  0.2616597621389758  0.41944365695509345  0.9689216035580293  1.0000
  H   H28       1.0  0.2186984044749356  0.6930332327994924  0.25512884361234023  1.0000
  H   H29       1.0  0.0864935756441132  0.6328957146925007  0.25496257754557994  1.0000
  H   H30       1.0  0.3576750779280591  0.5825315712039218  0.02626894070885233  1.0000
  H   H31       1.0  0.42838766705907183  0.6637180314436086  0.20974668421947595  1.0000
  Zn  Zn1       1.0  0.8197130880994385  0.4048735217791839  0.6066993302726824  1.0000
  Zn  Zn2       1.0  0.984343569313397  0.401459501474166  0.6145801776493145  1.0000
  C   C41       1.0  0.9019960828162453  0.3978969400415393  0.8478505192840367  1.0000
  C   C42       1.0  0.9020623720330854  0.4084376844887465  0.37342920218763975  1.0000
  C   C43       1.0  0.9019847676488815  0.6403596116333412  0.605466908212507  1.0000
  C   C44       1.0  0.9020736313031364  0.1659734537407318  0.6158128797974642  1.0000
  O   O2        1.0  0.9645300467657582  0.408853481922713  0.424808900862675  1.0000
  O   O3        1.0  0.9644791342722747  0.39488900062618404  0.802451827537523  1.0000
  O   O4        1.0  0.9644691547196648  0.5906806912132445  0.6067253063893203  1.0000
  O   O5        1.0  0.9645399701538313  0.2130618018302839  0.6205353219408252  1.0000
  O   O6        1.0  0.8395166310787011  0.5932712225895205  0.6007441832849938  1.0000
  O   O7        1.0  0.8395266103483215  0.39748109232512685  0.7964706351987239  1.0000
  O   O8        1.0  0.8395775231314048  0.41144552899817066  0.4188261470244514  1.0000
  O   O9        1.0  0.8395874465037121  0.21565383957756468  0.6145526654764766  1.0000
