data_image0
_chemical_formula_structural       NC12NC2H8C12OCH12C13OH12Zn2C4O8
_chemical_formula_sum              "N2 C44 H32 O10 Zn2"
_cell_length_a       17.80743265337812
_cell_length_b       10.29979075500242
_cell_length_c       10.299153481560891
_cell_angle_alpha    85.5777986716743
_cell_angle_beta     91.5511256746575
_cell_angle_gamma    89.41792083348325

_space_group_name_H-M_alt    "P 1"
_space_group_IT_number       1

loop_
  _space_group_symop_operation_xyz
  'x, y, z'

loop_
  _atom_site_type_symbol
  _atom_site_label
  _atom_site_symmetry_multiplicity
  _atom_site_fract_x
  _atom_site_fract_y
  _atom_site_fract_z
  _atom_site_occupancy
  N   N1        1.0  0.7069260670964096  0.40611081696497187  0.6012270015188619  1.0000
  C   C1        1.0  0.656088898839537  0.43564142963235786  0.532525988428306  1.0000
  C   C2        1.0  0.5928424486495  0.47237536973647654  0.4470705763171612  1.0000
  C   C3        1.0  0.6045372224747161  0.5263441008442067  0.32044666387227494  1.0000
  C   C4        1.0  0.5431988152998547  0.5615754334145298  0.237387347532239  1.0000
  C   C5        1.0  0.4700111681377419  0.5431012285772723  0.2802920211183093  1.0000
  C   C6        1.0  0.4573397246659279  0.4890138867314604  0.40738408566265316  1.0000
  C   C7        1.0  0.519535444445353  0.45378580128051915  0.4904268900438489  1.0000
  C   C8        1.0  0.3795845731332909  0.4694267288927241  0.4531491389807758  1.0000
  C   C9        1.0  0.3608164920113305  0.4966654411309257  0.5801918758348688  1.0000
  C   C10       1.0  0.28759889866211014  0.4782328263650202  0.6231371094868643  1.0000
  C   C11       1.0  0.2322066127077343  0.4323075725782608  0.5398775947771166  1.0000
  C   C12       1.0  0.1568527644776713  0.4133227088625071  0.5842237983576963  1.0000
  N   N2        1.0  0.09627360678040711  0.39806015522921934  0.6198750953159837  1.0000
  C   C13       1.0  0.2502833284238563  0.4049001714558045  0.413377840731054  1.0000
  C   C14       1.0  0.3234480180771581  0.4233474661984331  0.37017671839058264  1.0000
  H   H1        1.0  0.6609940423372734  0.5411536832068495  0.28600853442340113  1.0000
  H   H2        1.0  0.5523717435512976  0.6036322211111498  0.13960505655687472  1.0000
  H   H3        1.0  0.423354696147293  0.5727097319071568  0.21469895607696365  1.0000
  H   H4        1.0  0.5110611300151886  0.410343651877773  0.5880848340605316  1.0000
  H   H5        1.0  0.4024978997833639  0.5338718111385483  0.6457624914114399  1.0000
  H   H6        1.0  0.274169165776804  0.5001188415817985  0.7211446765137444  1.0000
  H   H7        1.0  0.2078848843331188  0.36896125549795644  0.34822009015995303  1.0000
  H   H8        1.0  0.33634969175317747  0.39992602687233325  0.2724725972754096  1.0000
  C   C15       1.0  0.9016709534675889  0.020716284767357207  0.6105933859324209  1.0000
  C   C16       1.0  0.8799462064653373  0.010048046430121582  0.7409923632175708  1.0000
  C   C17       1.0  0.8688784885569465  0.8875073042243148  0.8070305093605799  1.0000
  C   C18       1.0  0.8798112243533973  0.774768519926926  0.7409201123587363  1.0000
  C   C19       1.0  0.9015359378482726  0.7834445438434521  0.6105202009438313  1.0000
  C   C20       1.0  0.9123459051399194  0.9068623241867313  0.5460877439736265  1.0000
  C   C21       1.0  0.8458995141003759  0.8772749216915882  0.9449867815687034  1.0000
  C   C22       1.0  0.7910909430224956  0.7875586625925899  0.9874277356077057  1.0000
  C   C23       1.0  0.7695313724415304  0.778200440404071  0.11713559444019572  1.0000
  C   C24       1.0  0.8022946442331711  0.8579005952373324  0.2060539323655478  1.0000
  C   C25       1.0  0.8573035355477817  0.9482224896499005  0.1654942988811664  1.0000
  C   C26       1.0  0.8786301158860186  0.9572241469839512  0.035248575413437844  1.0000
  O   O1        1.0  0.8920440988366631  0.030235094115124372  0.2510275611963799  1.0000
  C   C27       1.0  0.8759604713049023  0.03159472744810565  0.385594798184291  1.0000
  H   H9        1.0  0.9099818944639461  0.35223214677307824  0.5609286451132209  1.0000
  H   H10       1.0  0.8705859973621544  0.0972863461091591  0.7909733589983694  1.0000
  H   H11       1.0  0.8723305144258852  0.6800418349484725  0.791930251322756  1.0000
  H   H12       1.0  0.9291062077707676  0.9143240109045844  0.4454904700238369  1.0000
  H   H13       1.0  0.9097766610958169  0.4592998083147566  0.5608144614945583  1.0000
  H   H14       1.0  0.7642086787330841  0.7258613380243107  0.9199299453511331  1.0000
  H   H15       1.0  0.7271073170197174  0.709119897597209  0.14878283090389455  1.0000
  H   H16       1.0  0.7845077622917085  0.8485556095327772  0.30586969962593613  1.0000
  H   H17       1.0  0.9216605942927985  0.025866492464617252  0.005143257992547112  1.0000
  H   H18       1.0  0.8889466327259156  0.9348156291310075  0.43683990825204966  1.0000
  H   H19       1.0  0.9114193206422925  0.105515948049266  0.4295078947910138  1.0000
  H   H20       1.0  0.8159892973343641  0.05775069373630126  0.39715808272221054  1.0000
  C   C28       1.0  0.9015389385424116  0.4019343315189885  0.2291811896617144  1.0000
  C   C29       1.0  0.8238708651207541  0.3791601960413251  0.2261348401755654  1.0000
  C   C30       1.0  0.7846277577242301  0.3677731793803285  0.10742923035577845  1.0000
  C   C31       1.0  0.8240480584514694  0.3794738295423843  0.9908353316235079  1.0000
  C   C32       1.0  0.9016679461149466  0.4022265272749519  0.9919324278072272  1.0000
  C   C33       1.0  0.9399601600734185  0.4133203176663016  0.11161713250112926  1.0000
  C   C34       1.0  0.7025134475550917  0.3437083931054066  0.10518155916309979  1.0000
  C   C35       1.0  0.6549874432289016  0.4099275395879296  0.010231939789521416  1.0000
  C   C36       1.0  0.5777130222032802  0.38732509796650927  0.008194699149763895  1.0000
  C   C37       1.0  0.5466641229604462  0.297255316846619  0.1001755285043775  1.0000
  C   C38       1.0  0.5936859419089487  0.23214286990343203  0.19601943405604505  1.0000
  C   C39       1.0  0.6709639321607219  0.2547155904824947  0.19823499789783927  1.0000
  C   C40       1.0  0.4634139701979755  0.2756901387944408  0.10010664788614632  1.0000
  O   O2        1.0  0.4296549797190193  0.36397579880300346  0.17798925939487864  1.0000
  H   H21       1.0  0.048045585068616115  0.4457532506129158  0.4421550385044464  1.0000
  H   H22       1.0  0.7935838056939186  0.3720227826080382  0.31616048161056165  1.0000
  H   H23       1.0  0.7942427338416028  0.3690379080927628  0.899229633985525  1.0000
  H   H24       1.0  0.9998302948948187  0.4308738082647914  0.11317915651925126  1.0000
  H   H25       1.0  0.931513330642858  0.411064136447689  0.6648718733570926  1.0000
  H   H26       1.0  0.6774321797602748  0.4807192924029766  0.9387430491082673  1.0000
  H   H27       1.0  0.5420590737876132  0.44034236851385367  0.9350016261813949  1.0000
  H   H28       1.0  0.570548066189243  0.16357183453219104  0.2689148139805795  1.0000
  H   H29       1.0  0.7061664045729127  0.2015071559773267  0.2719296781316949  1.0000
  H   H30       1.0  0.45150835221368346  0.17414941322078703  0.13836420640729075  1.0000
  H   H31       1.0  0.43963206020382906  0.28954709629865993  0.9988355685742087  1.0000
  H   H32       1.0  0.3750454172594134  0.34575147196073974  0.17467200904446756  1.0000
  Zn  Zn1       1.0  0.8192833618981608  0.4037841054779505  0.6066159259643458  1.0000
  Zn  Zn2       1.0  0.9839163131517307  0.4003762773089905  0.6144967651237967  1.0000
  C   C41       1.0  0.9016427865577326  0.3969976491134719  0.847756539141467  1.0000
  C   C42       1.0  0.9015586860103116  0.4071643351294565  0.37335636531675886  1.0000
  C   C43       1.0  0.9015566978541832  0.6392707890559122  0.6053586235881132  1.0000
  C   C44       1.0  0.9016447188240976  0.16488963607290907  0.6157543475704015  1.0000
  O   O3        1.0  0.9640426614529293  0.4076206533430238  0.42473360925605674  1.0000
  O   O4        1.0  0.964111411879622  0.39395388830515365  0.8023602960153202  1.0000
  O   O5        1.0  0.964041052166615  0.5895925307216972  0.6066222237538763  1.0000
  O   O6        1.0  0.9641129649697497  0.2119820213422654  0.6204715814510313  1.0000
  O   O7        1.0  0.839086653898994  0.5921783626090111  0.6006411069409365  1.0000
  O   O8        1.0  0.8391570133206163  0.39654128047090986  0.7963791098059163  1.0000
  O   O9        1.0  0.8390882626878443  0.4102079996536001  0.4187508616252189  1.0000
  O   O10       1.0  0.8391585662197037  0.21456935840139213  0.6144889311904878  1.0000
