data_image0
_chemical_formula_structural       NC8NC6H8C12ClH9C12NCOH11Zn2C4O8
_chemical_formula_sum              "N3 C43 H28 Cl1 O9 Zn2"
_cell_length_a       17.457602349358154
_cell_length_b       10.299768534541528
_cell_length_c       10.299148425239203
_cell_angle_alpha    85.5385229165027
_cell_angle_beta     92.86184502014838
_cell_angle_gamma    91.70638861519478

_space_group_name_H-M_alt    "P 1"
_space_group_IT_number       1

loop_
  _space_group_symop_operation_xyz
  'x, y, z'

loop_
  _atom_site_type_symbol
  _atom_site_label
  _atom_site_symmetry_multiplicity
  _atom_site_fract_x
  _atom_site_fract_y
  _atom_site_fract_z
  _atom_site_occupancy
  N   N1        1.0  0.7229085118042075  0.45339555988289404  0.6264751023263246  1.0000
  C   C1        1.0  0.6618234728118759  0.40747509436362606  0.6158570955543838  1.0000
  C   C2        1.0  0.5858311009121029  0.3503557456153872  0.602657837869248  1.0000
  C   C3        1.0  0.5272987547477629  0.39048605973874584  0.677561465036221  1.0000
  C   C4        1.0  0.4527447744664452  0.3354847024900487  0.6649767582052835  1.0000
  C   C5        1.0  0.3906212882335204  0.37785630422990835  0.7443025356340858  1.0000
  C   C6        1.0  0.31608656895398024  0.39634785215218704  0.6885363275796392  1.0000
  C   C7        1.0  0.2575541687123439  0.4362941970277838  0.7635479083511485  1.0000
  C   C8        1.0  0.1815817443966239  0.45539251848315065  0.705566127552864  1.0000
  N   N2        1.0  0.120512830520877  0.4707411892176221  0.658948926619688  1.0000
  C   C9        1.0  0.27306429420371436  0.4579919215160435  0.8948342541069589  1.0000
  C   C10       1.0  0.3468143246019857  0.4398891957871267  0.9509880975421214  1.0000
  C   C11       1.0  0.40533508480072217  0.4001227129262752  0.8764342720951945  1.0000
  C   C12       1.0  0.43801187455887897  0.23967621449065057  0.5760553939625306  1.0000
  C   C13       1.0  0.49653249490086954  0.19982441145987195  0.5015518041787026  1.0000
  C   C14       1.0  0.5703016476000532  0.2549379139846668  0.5146864979562338  1.0000
  H   H1        1.0  0.5396469750359468  0.4656520596841083  0.7441988803178343  1.0000
  H   H2        1.0  0.3037541706905168  0.38142026583910593  0.5865051662315317  1.0000
  H   H3        1.0  0.22820027568017834  0.4888499185366657  0.9536747391706086  1.0000
  H   H4        1.0  0.358633363856508  0.4563745875161076  0.05264603160771364  1.0000
  H   H5        1.0  0.4618108759949157  0.3851117615472628  0.9225429655162991  1.0000
  H   H6        1.0  0.3815202309291581  0.1943454280977046  0.5654012892230034  1.0000
  H   H7        1.0  0.4846984776057839  0.1257753655221321  0.4337160354333893  1.0000
  H   H8        1.0  0.6151654676683479  0.2232100117003155  0.456357137520641  1.0000
  C   C15       1.0  0.9216419780932539  0.08069996886155995  0.6427042824283407  1.0000
  C   C16       1.0  0.9267156402998996  0.09054397051311125  0.506640295419784  1.0000
  C   C17       1.0  0.9293602605216459  0.9783958517328812  0.43770900432273163  1.0000
  C   C18       1.0  0.9268621671624567  0.8552626388701696  0.5066677538400723  1.0000
  C   C19       1.0  0.921786700130921  0.8434270294710156  0.6427315313878845  1.0000
  C   C20       1.0  0.9192055934891704  0.956704392294757  0.7099878837705205  1.0000
  C   C21       1.0  0.9347287922581465  0.9898636971540785  0.29376473222997723  1.0000
  C   C22       1.0  0.8910938663423894  0.08153127194228249  0.2157319487888436  1.0000
  C   C23       1.0  0.8962152372677781  0.09213231866231864  0.08026107740568977  1.0000
  C   C24       1.0  0.9448977023939259  0.011585410646918648  0.021124984430429317  1.0000
  C   C25       1.0  0.988520285073433  0.9202301726104668  0.09764543463836017  1.0000
  C   C26       1.0  0.9835351556836387  0.9092428121113707  0.2331420776500206  1.0000
  Cl  Cl1       1.0  0.9512377400046326  0.025128315185718453  0.8511460012785581  1.0000
  H   H9        1.0  0.9196692986058247  0.4044009540240321  0.6945448910208052  1.0000
  H   H10       1.0  0.9296815259440929  0.18570773768526094  0.45414629094054715  1.0000
  H   H11       1.0  0.9278259219144925  0.7684929961851262  0.4537966578432153  1.0000
  H   H12       1.0  0.9152907196621145  0.9483419755549719  0.8149549228782804  1.0000
  H   H13       1.0  0.9198832558029025  0.5114646929342155  0.6945855961945224  1.0000
  H   H14       1.0  0.8522960489063806  0.14379511556196722  0.259309889046597  1.0000
  H   H15       1.0  0.8621604204243639  0.16278400817430994  0.021364051117309657  1.0000
  H   H16       1.0  0.026462750246263766  0.8578831041325633  0.05230803968486786  1.0000
  H   H17       1.0  0.018563742252417414  0.8389275363712346  0.2906242267426322  1.0000
  C   C27       1.0  0.9217720698419422  0.46222187743165866  0.26132643496615104  1.0000
  C   C28       1.0  0.9996184913099234  0.5011765198644194  0.2637157321493464  1.0000
  C   C29       1.0  0.038966350660521565  0.5207078191030774  0.14778505792856733  1.0000
  C   C30       1.0  0.9994566929767364  0.5008293141128519  0.028445355583123222  1.0000
  C   C31       1.0  0.9216565908618228  0.4619051657794644  0.024109385897396862  1.0000
  C   C32       1.0  0.8832707081654628  0.44282069768090127  0.1410930217276607  1.0000
  C   C33       1.0  0.12127215949410708  0.5618908687878388  0.15140152268720852  1.0000
  C   C34       1.0  0.17281417079909556  0.5067689978891146  0.07201194527940746  1.0000
  C   C35       1.0  0.25022679955686744  0.5456591657968957  0.0755611269723917  1.0000
  C   C36       1.0  0.2779096912908863  0.639138934299019  0.1593329499404732  1.0000
  C   C37       1.0  0.22629189159357455  0.6961036970514933  0.2371479782261967  1.0000
  C   C38       1.0  0.14884461184698394  0.6573186850363189  0.2336928098645541  1.0000
  N   N3        1.0  0.35759337296422  0.6788217854599328  0.15930634824930778  1.0000
  C   C39       1.0  0.40173034052558165  0.7174199620881727  0.27164202097979895  1.0000
  O   O1        1.0  0.3757686001588061  0.7021249633336479  0.3838815176618515  1.0000
  H   H18       1.0  0.7749627022426913  0.3879383506035916  0.4641795663469739  1.0000
  H   H19       1.0  0.0300598187358303  0.5146998327469607  0.35612864041910064  1.0000
  H   H20       1.0  0.029226655950109537  0.5175195726428294  0.9386441940315846  1.0000
  H   H21       1.0  0.8232624412881632  0.4127940329069757  0.13846374865254374  1.0000
  H   H22       1.0  0.8917348254244861  0.44689769373096144  0.6949687001425904  1.0000
  H   H23       1.0  0.1534575222810879  0.4324154795774886  0.008256679891674334  1.0000
  H   H24       1.0  0.2889831990038114  0.5018124129748964  0.013770669174073769  1.0000
  H   H25       1.0  0.24521358333586396  0.7726027575530763  0.2984611543467188  1.0000
  H   H26       1.0  0.1101792460976958  0.7038356372999286  0.2935981827623084  1.0000
  H   H27       1.0  0.38709878630057704  0.6711697344304555  0.07453290970070081  1.0000
  H   H28       1.0  0.45934339820993264  0.7569727669119042  0.26052437381900506  1.0000
  Zn  Zn1       1.0  0.8376485276961537  0.4583976480099812  0.6358538453320333  1.0000
  Zn  Zn2       1.0  0.0057727967491338905  0.4657284488660378  0.6495808163899288  1.0000
  C   C40       1.0  0.9216757323652359  0.45679128150251014  0.8799267805056685  1.0000
  C   C41       1.0  0.9217474282834445  0.4673365339906861  0.40550815864702594  1.0000
  C   C42       1.0  0.9217561726451573  0.6992573910462523  0.6375506166157141  1.0000
  C   C43       1.0  0.921666930327939  0.22486886161564357  0.6478843870398194  1.0000
  O   O2        1.0  0.9855414411949485  0.4718293944390446  0.4591061760056525  1.0000
  O   O3        1.0  0.9854841494048737  0.4578613497143975  0.8367468426562672  1.0000
  O   O4        1.0  0.9855482456584798  0.6536557615100198  0.6410263052868179  1.0000
  O   O5        1.0  0.985477287588422  0.27603498947256244  0.6548266113109156  1.0000
  O   O6        1.0  0.8579439794843052  0.6480911049032312  0.6306080457198731  1.0000
  O   O7        1.0  0.8578798835337222  0.45229825343868235  0.8263285138953111  1.0000
  O   O8        1.0  0.857937175602614  0.4662662535579767  0.4486862857541116  1.0000
  O   O9        1.0  0.8578730219764474  0.27047183926212837  0.6444068184323883  1.0000
