data_image0
_chemical_formula_structural       NC12NC2H8C16H10C12ClH9Zn2C4O8
_chemical_formula_sum              "N2 C46 H27 Cl1 Zn2 O8"
_cell_length_a       17.80743265337812
_cell_length_b       10.29914801576943
_cell_length_c       10.299771906710086
_cell_angle_alpha    85.52082016499398
_cell_angle_beta     91.54320236892109
_cell_angle_gamma    89.44985071264975

_space_group_name_H-M_alt    "P 1"
_space_group_IT_number       1

loop_
  _space_group_symop_operation_xyz
  'x, y, z'

loop_
  _atom_site_type_symbol
  _atom_site_label
  _atom_site_symmetry_multiplicity
  _atom_site_fract_x
  _atom_site_fract_y
  _atom_site_fract_z
  _atom_site_occupancy
  N   N1        1.0  0.7074778185607186  0.40715423546230345  0.6007983100470522  1.0000
  C   C1        1.0  0.6566552075941013  0.436732867191322  0.5320887634997276  1.0000
  C   C2        1.0  0.5934268653404522  0.47352653709207093  0.4466227363435731  1.0000
  C   C3        1.0  0.605148324115028  0.5275837353461172  0.31998324133529077  1.0000
  C   C4        1.0  0.5438273671957953  0.5628730843404726  0.2369137572943265  1.0000
  C   C5        1.0  0.470630618678881  0.5443688883666784  0.2798237702566735  1.0000
  C   C6        1.0  0.45793241727283673  0.4901927589043049  0.4069314493432219  1.0000
  C   C7        1.0  0.5201106890737697  0.45490666825600234  0.48998442059403424  1.0000
  C   C8        1.0  0.38016759527119764  0.4705736201661903  0.4527021604081747  1.0000
  C   C9        1.0  0.3613985625775941  0.49773021977098075  0.5797347514828726  1.0000
  C   C10       1.0  0.28817187800610156  0.47926759033956845  0.6226853108525177  1.0000
  C   C11       1.0  0.23277130855556402  0.43339385748272274  0.5394413380634753  1.0000
  C   C12       1.0  0.1574080880939806  0.41437800396298186  0.5837930255569126  1.0000
  N   N2        1.0  0.09682139575804441  0.3990905366567905  0.6194487312131423  1.0000
  C   C13       1.0  0.25084888131908395  0.40606819475696954  0.412951776744503  1.0000
  C   C14       1.0  0.32402268617581315  0.4245456752358079  0.36974532709312435  1.0000
  H   H1        1.0  0.661612443287237  0.5424173890242563  0.28554083217984183  1.0000
  H   H2        1.0  0.5530210230557843  0.6049982197724588  0.13911931245805031  1.0000
  H   H3        1.0  0.4239884939928841  0.5740233539082582  0.21422210995905888  1.0000
  H   H4        1.0  0.5116152168860248  0.4113961405173794  0.5876549587854125  1.0000
  H   H5        1.0  0.4030868233585532  0.5348960995184824  0.6452927982471299  1.0000
  H   H6        1.0  0.2747416878853939  0.501090330746017  0.7206847744719556  1.0000
  H   H7        1.0  0.2084439551718227  0.37016959849701303  0.3478061885738972  1.0000
  H   H8        1.0  0.33692430702228576  0.40118718387297214  0.2720497921227647  1.0000
  C   C15       1.0  0.9020997219824395  0.02172200861579099  0.6102866604756461  1.0000
  C   C16       1.0  0.8849338858331646  0.03171482085345434  0.47599048725990367  1.0000
  C   C17       1.0  0.8762856342580836  0.9196505326243597  0.4077375168254609  1.0000
  C   C18       1.0  0.8850341343894679  0.7964610461668706  0.4755906993365071  1.0000
  C   C19       1.0  0.9022066749844521  0.7845126284887156  0.6099719465488798  1.0000
  C   C20       1.0  0.9106350768700898  0.8976616870754566  0.6764925610769725  1.0000
  C   C21       1.0  0.8581264352574857  0.9312673246526542  0.2656683706061169  1.0000
  C   C22       1.0  0.8936623488444212  0.8495708133534138  0.1821529794091532  1.0000
  C   C23       1.0  0.8765452907564192  0.8606298576601685  0.04844171457253288  1.0000
  C   C24       1.0  0.8237165172574317  0.9532898836278594  0.9964331655807972  1.0000
  C   C25       1.0  0.7880434971813043  0.03496992015121991  0.07865804903762474  1.0000
  C   C26       1.0  0.8051069932616347  0.02415324482784853  0.21238769470542418  1.0000
  C   C27       1.0  0.8061222128649844  0.9645509051188176  0.8587662967698217  1.0000
  C   C28       1.0  0.7913871726539314  0.9739819022607974  0.7434722826142854  1.0000
  C   C29       1.0  0.7741326145573305  0.9850254733338848  0.6084641688485051  1.0000
  C   C30       1.0  0.7594000472476093  0.9944550367454745  0.49318878090168905  1.0000
  H   H9        1.0  0.908663803221289  0.3453537408919156  0.6619549646386917  1.0000
  H   H10       1.0  0.8792616174706386  0.126902588251812  0.4238087260320871  1.0000
  H   H11       1.0  0.8774227950114923  0.7097402476770464  0.42381063372939476  1.0000
  H   H12       1.0  0.9238733296262912  0.8892381290375188  0.7800793970665372  1.0000
  H   H13       1.0  0.9341537235368577  0.5546636368173362  0.8637654586072516  1.0000
  H   H14       1.0  0.9353989102278429  0.7782913996473285  0.2200019193665088  1.0000
  H   H15       1.0  0.9046461595007732  0.7971434417393253  0.9856129939790939  1.0000
  H   H16       1.0  0.7469043524509245  0.10680170756782581  0.039467834824599146  1.0000
  H   H17       1.0  0.7761302788233162  0.08726822456263394  0.27437167361922077  1.0000
  H   H18       1.0  0.7464636670225081  0.0027349887461936007  0.3919672729093664  1.0000
  C   C31       1.0  0.9021174601697391  0.4032243915510558  0.2287582655053324  1.0000
  C   C32       1.0  0.9702690787432344  0.47070185206242954  0.22566629333709276  1.0000
  C   C33       1.0  0.004838678030719246  0.5047843023440233  0.10697102853344198  1.0000
  C   C34       1.0  0.9703415186263935  0.4704851708376532  0.9904000773188888  1.0000
  C   C35       1.0  0.9021889344847339  0.40301029043710046  0.991500346200179  1.0000
  C   C36       1.0  0.868458902343603  0.3697569225615489  0.11116560076995952  1.0000
  C   C37       1.0  0.0769379064494371  0.5761684226813977  0.10475375173927759  1.0000
  C   C38       1.0  0.08882584903457968  0.6789363133533086  0.1850821141639054  1.0000
  C   C39       1.0  0.156721169209191  0.7460234288872076  0.1828094545862593  1.0000
  C   C40       1.0  0.21349900089972418  0.7113737802249851  0.10055520258625439  1.0000
  C   C41       1.0  0.2023283849236306  0.6094505747239969  0.020389636362458496  1.0000
  C   C42       1.0  0.13450037465219533  0.5421617258551301  0.022289973004347763  1.0000
  Cl  Cl1       1.0  0.29863891647078633  0.7956681860006749  0.09793789284261045  1.0000
  H   H19       1.0  0.876128468430114  0.3775698209849718  0.5573844269358073  1.0000
  H   H20       1.0  0.9971514423461265  0.49534680047842783  0.3159242525927286  1.0000
  H   H21       1.0  0.9962346909770449  0.4980924408752412  0.8985190473618192  1.0000
  H   H22       1.0  0.8158826093104143  0.3177022973271466  0.11278269014431075  1.0000
  H   H23       1.0  0.8762339758369582  0.37725303677659294  0.6644704281143579  1.0000
  H   H24       1.0  0.045277626206772004  0.7084938665479441  0.24835798341834092  1.0000
  H   H25       1.0  0.16503918926060912  0.8251320168606708  0.24480827802581429  1.0000
  H   H26       1.0  0.24621974989441076  0.5820332487835782  0.9567857288019601  1.0000
  H   H27       1.0  0.12742922222671726  0.46248698906767904  0.9605706387755637  1.0000
  Zn  Zn1       1.0  0.8198339682098272  0.4048237565051034  0.6061879071288945  1.0000
  Zn  Zn2       1.0  0.9844652431222364  0.4014104183088636  0.6140697316123505  1.0000
  C   C43       1.0  0.9021730298318504  0.39787666464477  0.8473277893829645  1.0000
  C   C44       1.0  0.9021279795103535  0.40835911161433613  0.37293006221853586  1.0000
  C   C45       1.0  0.9021821128996027  0.6403305079198687  0.6048560268076095  1.0000
  C   C46       1.0  0.9021188400531347  0.16590370905351204  0.6154018919872493  1.0000
  O   O1        1.0  0.9646082199487855  0.40878136030929846  0.4243065478740886  1.0000
  O   O2        1.0  0.9646441175711107  0.39486279153993453  0.8019330526935311  1.0000
  O   O3        1.0  0.9646506101738044  0.5906473533146694  0.6061353480065623  1.0000
  O   O4        1.0  0.9646016711607663  0.21299680901762863  0.6201041524924846  1.0000
  O   O5        1.0  0.8396974839907223  0.593237366962559  0.6001534835522484  1.0000
  O   O6        1.0  0.8396909915969202  0.39745436563976955  0.7959511183493477  1.0000
  O   O7        1.0  0.8396550938718791  0.41137288958675833  0.41832305214164855  1.0000
  O   O8        1.0  0.8396485450886106  0.2155883289782441  0.6141207541321061  1.0000
