data_image0
_chemical_formula_structural       NC10NC3NH7C12SCH12C12BrH9Zn2C4O8
_chemical_formula_sum              "N3 C42 H28 S1 Br1 Zn2 O8"
_cell_length_a       19.210446455230148
_cell_length_b       10.299776766347529
_cell_length_c       10.299148005577397
_cell_angle_alpha    85.55397783742741
_cell_angle_beta     89.9640022898858
_cell_angle_gamma    89.9285037425463

_space_group_name_H-M_alt    "P 1"
_space_group_IT_number       1

loop_
  _space_group_symop_operation_xyz
  'x, y, z'

loop_
  _atom_site_type_symbol
  _atom_site_label
  _atom_site_symmetry_multiplicity
  _atom_site_fract_x
  _atom_site_fract_y
  _atom_site_fract_z
  _atom_site_occupancy
  N   N1        1.0  0.6555768569740199  0.42037916356184435  0.5673468832340061  1.0000
  C   C1        1.0  0.5953476910023393  0.42258658485113076  0.5675781886705371  1.0000
  C   C2        1.0  0.5205424869779752  0.4253233830630825  0.5678647473826031  1.0000
  C   C3        1.0  0.4848983976483401  0.5415484559219028  0.5829849445331403  1.0000
  C   C4        1.0  0.4122328911294779  0.5416999976649195  0.5829323548117804  1.0000
  C   C5        1.0  0.375375530948341  0.42603231767439165  0.5679512815898395  1.0000
  C   C6        1.0  0.2980537853816919  0.4246759011376193  0.5678005926024339  1.0000
  C   C7        1.0  0.2602873724293285  0.5282540144528902  0.5044427932516127  1.0000
  C   C8        1.0  0.1875094030580474  0.5268518372563573  0.5043336208739413  1.0000
  C   C9        1.0  0.1514963809232522  0.4221290581040851  0.5675312658012475  1.0000
  C   C10       1.0  0.0765672274644013  0.42082703197973426  0.567394344344077  1.0000
  N   N2        1.0  0.0163296698929526  0.4197801587625001  0.5672842943670624  1.0000
  C   C11       1.0  0.1885391097122489  0.3186766380986603  0.6308640638924548  1.0000
  C   C12       1.0  0.261318987204915  0.31980454623524457  0.6310234662069261  1.0000
  C   C13       1.0  0.4136289477134205  0.3116274071930365  0.5531193830351209  1.0000
  N   N3        1.0  0.4843982270050757  0.314072292014997  0.553285115674059  1.0000
  H   H1        1.0  0.5129735574449212  0.6309777971296675  0.5950398571051649  1.0000
  H   H2        1.0  0.3849377672525814  0.6317109619042784  0.5963820928699963  1.0000
  H   H3        1.0  0.2870050729323916  0.6095135686073261  0.45345523654000197  1.0000
  H   H4        1.0  0.1593533257504328  0.6072834911534772  0.4546764632146729  1.0000
  H   H5        1.0  0.1611821266701892  0.23728162846465217  0.6804216684351081  1.0000
  H   H6        1.0  0.288829837768815  0.23949184087660402  0.6821184234637598  1.0000
  H   H7        1.0  0.3873901111492592  0.2207535519997128  0.539623338579351  1.0000
  C   C14       1.0  0.8360222228905193  0.03871442617557386  0.567313983782155  1.0000
  C   C15       1.0  0.8401711711808794  0.027126365934504904  0.7038332524635726  1.0000
  C   C16       1.0  0.8422064556769006  0.9041160930841611  0.7730140229978575  1.0000
  C   C17       1.0  0.8400380638719919  0.7918388083932804  0.703848466563767  1.0000
  C   C18       1.0  0.8358909748746896  0.8014349181431449  0.5673284481442302  1.0000
  C   C19       1.0  0.8339058771495358  0.9253114288275412  0.4998254077381554  1.0000
  C   C20       1.0  0.8465879036447295  0.892921151729133  0.9174360070009535  1.0000
  C   C21       1.0  0.8067305034208204  0.799516375387222  0.9914889166033263  1.0000
  C   C22       1.0  0.8108748654472041  0.7892150470918455  0.12740357004158442  1.0000
  C   C23       1.0  0.854702622207994  0.8720399588918296  0.19107209702059325  1.0000
  C   C24       1.0  0.8947257965691274  0.9648704780345664  0.11839228478277175  1.0000
  C   C25       1.0  0.8906835080627343  0.9755215270974138  0.982467198167779  1.0000
  S   S1        1.0  0.8600971704230715  0.8583612723051351  0.3654692833668278  1.0000
  C   C26       1.0  0.7901436362697539  0.9745364649191081  0.38501100591807846  1.0000
  H   H8        1.0  0.8344686708210186  0.37058343964408813  0.5152939405418426  1.0000
  H   H9        1.0  0.840869499706272  0.11394875849742192  0.7567938267404268  1.0000
  H   H10       1.0  0.8425514454391412  0.6968134075879149  0.7566125808227362  1.0000
  H   H11       1.0  0.8307056158867782  0.9334826355067984  0.39450659664584364  1.0000
  H   H12       1.0  0.8342759918064472  0.4776377587906275  0.5153130815336919  1.0000
  H   H13       1.0  0.7717009674138565  0.7356171545912972  0.944378762401469  1.0000
  H   H14       1.0  0.7797391761874457  0.7171965492809973  0.1831329559294954  1.0000
  H   H15       1.0  0.9290140851206702  0.028826579556976206  0.16709157302908528  1.0000
  H   H16       1.0  0.9226974018734713  0.04716941544109621  0.9281507657082446  1.0000
  H   H17       1.0  0.8040907278083602  0.07084995280977346  0.33612874676310844  1.0000
  H   H18       1.0  0.7820514768025758  0.9852143477346581  0.49029638640526885  1.0000
  H   H19       1.0  0.7411721170027838  0.9390912502677834  0.3428955334084721  1.0000
  C   C27       1.0  0.8360514585157249  0.42012655819951394  0.18593299496539517  1.0000
  C   C28       1.0  0.7705651745451806  0.4810145516182971  0.1805084693293455  1.0000
  C   C29       1.0  0.737264224219047  0.5118329637361361  0.06061986900206495  1.0000
  C   C30       1.0  0.7703328646315473  0.48094213298759536  0.9452314733423575  1.0000
  C   C31       1.0  0.8358617043110088  0.4200228023876138  0.948709379338474  1.0000
  C   C32       1.0  0.8683173652879526  0.38998816076627696  0.06948396782315536  1.0000
  C   C33       1.0  0.6679881364086797  0.5762470435294347  0.055926291732605105  1.0000
  C   C34       1.0  0.6533489725748389  0.677588190406947  0.1360087567214776  1.0000
  C   C35       1.0  0.5881148905108216  0.7381049113599514  0.13139634216586105  1.0000
  C   C36       1.0  0.5367784448880907  0.6982468027766697  0.047039846165277455  1.0000
  C   C37       1.0  0.5507183302692811  0.5976936753295967  0.9671050520025424  1.0000
  C   C38       1.0  0.6158932698298625  0.536955089159953  0.9713249341636261  1.0000
  Br  Br1       1.0  0.4477096349903278  0.7810645930217142  0.04100662064602978  1.0000
  H   H20       1.0  0.861254510579704  0.3967590731385564  0.5154909880586269  1.0000
  H   H21       1.0  0.744875140208925  0.5030032441534609  0.2698528513123304  1.0000
  H   H22       1.0  0.7453295061653064  0.5060783776394964  0.8524198099852396  1.0000
  H   H23       1.0  0.9188295775152457  0.3430276685112854  0.07295199790273554  1.0000
  H   H24       1.0  0.9597381920008815  0.30577566978879633  0.7479248277746575  1.0000
  H   H25       1.0  0.6926202212567057  0.7111397903901133  0.20091015874587081  1.0000
  H   H26       1.0  0.5775896412373375  0.8161880085102164  0.19320414562786592  1.0000
  H   H27       1.0  0.5110349298986507  0.5662947262549689  0.9018967611013542  1.0000
  H   H28       1.0  0.6252538523128829  0.4581846407772434  0.9097184137650256  1.0000
  Zn  Zn1       1.0  0.7596823239838614  0.4202028386756713  0.5673363208200344  1.0000
  Zn  Zn2       1.0  0.9122241861186462  0.41994589975617247  0.5673054928959904  1.0000
  C   C39       1.0  0.8358969181548396  0.4148687811612024  0.804528240400149  1.0000
  C   C40       1.0  0.8360112573863321  0.42528159305133384  0.3301137004831627  1.0000
  C   C41       1.0  0.8359134693792976  0.6572652256680094  0.5621502631160291  1.0000
  C   C42       1.0  0.8359946543613136  0.182883588335234  0.5724917469903907  1.0000
  O   O1        1.0  0.8938866081967353  0.4269084971716892  0.378490363218142  1.0000
  O   O2        1.0  0.8937973113879268  0.4130458866839044  0.7561278061006296  1.0000
  O   O3        1.0  0.8938098960057932  0.6087840822753203  0.5604058747625809  1.0000
  O   O4        1.0  0.8938739715492893  0.23117031097132879  0.5742121971872922  1.0000
  O   O5        1.0  0.7780324864981688  0.6089784275496108  0.5604296165324212  1.0000
  O   O6        1.0  0.7780199016258135  0.41324179225658364  0.7561514786510504  1.0000
  O   O7        1.0  0.7781091988771289  0.42710435770117683  0.3785124742880128  1.0000
  O   O8        1.0  0.7780965622042131  0.23136616219885653  0.5742344056297501  1.0000
