data_image0
_chemical_formula_structural       NC10NC3NCH9C12OCH12C12IH9Zn2C4O8
_chemical_formula_sum              "N3 C43 H30 O9 I1 Zn2"
_cell_length_a       19.437513618241372
_cell_length_b       10.29979075500242
_cell_length_c       10.29977335064465
_cell_angle_alpha    85.53982299009832
_cell_angle_beta     90.35638175706923
_cell_angle_gamma    89.50469088654314

_space_group_name_H-M_alt    "P 1"
_space_group_IT_number       1

loop_
  _space_group_symop_operation_xyz
  'x, y, z'

loop_
  _atom_site_type_symbol
  _atom_site_label
  _atom_site_symmetry_multiplicity
  _atom_site_fract_x
  _atom_site_fract_y
  _atom_site_fract_z
  _atom_site_occupancy
  N   N1        1.0  0.6474934792875615  0.41088586371932356  0.5756251484379205  1.0000
  C   C1        1.0  0.5885570269671941  0.42789678726930824  0.5726491309646109  1.0000
  C   C2        1.0  0.5151126641005342  0.4491503703341102  0.5689551130595549  1.0000
  C   C3        1.0  0.47336507427574653  0.3479653264343807  0.5572957860682339  1.0000
  C   C4        1.0  0.39747257572086686  0.35803251685260773  0.5500744219154219  1.0000
  C   C5        1.0  0.3578936600644066  0.4388574247316721  0.6158171021110292  1.0000
  C   C6        1.0  0.2817117400135934  0.4302521887065842  0.6073729780409629  1.0000
  C   C7        1.0  0.2485960414217424  0.3089069583096118  0.6120163527572515  1.0000
  C   C8        1.0  0.1768614601214822  0.30253776641299446  0.6048482763306036  1.0000
  C   C9        1.0  0.1372720742475197  0.4170409967084374  0.5933990577371859  1.0000
  C   C10       1.0  0.0634230522309209  0.4103336869149108  0.5860628894810347  1.0000
  N   N2        1.0  0.0040535365235803  0.4049415997398198  0.5801650686098874  1.0000
  C   C11       1.0  0.1696713241326445  0.5380753951089694  0.5895009608966599  1.0000
  C   C12       1.0  0.2413902776274199  0.5446985539966145  0.5967310589339365  1.0000
  C   C13       1.0  0.3865746331196085  0.5311094659419731  0.7057372736491156  1.0000
  N   N3        1.0  0.4435470488203055  0.5943287124484338  0.6853330385465759  1.0000
  C   C14       1.0  0.48737394802941925  0.585108301175828  0.5722252170356297  1.0000
  H   H1        1.0  0.4957623511708736  0.25291436453238725  0.5451745389127962  1.0000
  H   H2        1.0  0.3727614082549256  0.28854195729165455  0.49175614323371586  1.0000
  H   H3        1.0  0.2780619673185586  0.21899202557306108  0.6230372103983237  1.0000
  H   H4        1.0  0.1522831983237558  0.20831103273987606  0.608735441321451  1.0000
  H   H5        1.0  0.1395205314554527  0.627334592588489  0.5807922562056766  1.0000
  H   H6        1.0  0.2654869508429185  0.639338088791432  0.5928284341853913  1.0000
  H   H7        1.0  0.3565796463339462  0.551464415070746  0.7901041209179109  1.0000
  H   H8        1.0  0.5301163094019558  0.6554179694773021  0.5779886418724547  1.0000
  H   H9        1.0  0.45769016955853403  0.6132494870119973  0.4815794423728694  1.0000
  C   C15       1.0  0.8258386371942762  0.026544851248552437  0.5779349071099573  1.0000
  C   C16       1.0  0.8059343141317606  0.015671864199823915  0.7091198218198844  1.0000
  C   C17       1.0  0.7957940421240803  0.8930270737084386  0.7755583692187966  1.0000
  C   C18       1.0  0.8058107035704078  0.7803916511143191  0.7090524627011605  1.0000
  C   C19       1.0  0.8257149960114258  0.7892724241798716  0.5778666150845924  1.0000
  C   C20       1.0  0.8356191115686229  0.9127917847158513  0.513043080954122  1.0000
  C   C21       1.0  0.7747405875286033  0.88257810252253  0.9143459528316531  1.0000
  C   C22       1.0  0.7245444175650868  0.7925354309843761  0.9587724746505617  1.0000
  C   C23       1.0  0.704791409306226  0.7829738175298887  0.08926029242342015  1.0000
  C   C24       1.0  0.734789630910136  0.8627932545099272  0.1769906058981059  1.0000
  C   C25       1.0  0.7851691230615979  0.9534414030303978  0.13443812798847987  1.0000
  C   C26       1.0  0.8047087977445703  0.9626455406930661  0.0034208930990157205  1.0000
  O   O1        1.0  0.8169783653013254  0.0355862956527353  0.21871175170137802  1.0000
  C   C27       1.0  0.802239847267091  0.03676911134597827  0.3538604813852685  1.0000
  H   H10       1.0  0.8334531482063434  0.35813889504910557  0.5279694987818409  1.0000
  H   H11       1.0  0.7973588700512292  0.10282606246559567  0.759439502054877  1.0000
  H   H12       1.0  0.7989564189092275  0.6855904093961342  0.7603331730088594  1.0000
  H   H13       1.0  0.850974985352799  0.9204114295419351  0.4118394685361575  1.0000
  H   H14       1.0  0.833265204994797  0.46520551555087836  0.5278627528443931  1.0000
  H   H15       1.0  0.6999305011904075  0.7307366124676781  0.8922494059551109  1.0000
  H   H16       1.0  0.6659376221352143  0.7136414170704748  0.12244445039828544  1.0000
  H   H17       1.0  0.7184936778246043  0.8532852429953374  0.2774499170032193  1.0000
  H   H18       1.0  0.8441178360962465  0.03154202058712774  0.9717566657461467  1.0000
  H   H19       1.0  0.8141289428016207  0.940026674081095  0.404634548211938  1.0000
  H   H20       1.0  0.8347097544696686  0.11085414705373697  0.3964883126225236  1.0000
  H   H21       1.0  0.7473179320997304  0.06259106185959085  0.3675966962949627  1.0000
  C   C28       1.0  0.8257439884146465  0.40801527687707684  0.19653116149140204  1.0000
  C   C29       1.0  0.888099920941605  0.4759790357863831  0.19098187188774363  1.0000
  C   C30       1.0  0.9197292591371247  0.5103084254044432  0.0710403981074259  1.0000
  C   C31       1.0  0.8881661358140449  0.47576377599364017  0.9557131203300786  1.0000
  C   C32       1.0  0.8258096267698372  0.4078020316361679  0.9592704442160525  1.0000
  C   C33       1.0  0.794947990429222  0.37430727838536604  0.08015205764776678  1.0000
  C   C34       1.0  0.9856963639388019  0.5822060960381377  0.0662237272498385  1.0000
  C   C35       1.0  0.9965024628409566  0.6850447575836318  0.14616293419959026  1.0000
  C   C36       1.0  0.05862672732295149  0.7526011102645416  0.14142811839495883  1.0000
  C   C37       1.0  0.11063534983254497  0.7183745440282339  0.05710389366778834  1.0000
  C   C38       1.0  0.10049276671826624  0.616411015783555  0.9773157981645282  1.0000
  C   C39       1.0  0.038438334293265264  0.5486275276288741  0.9816455812236797  1.0000
  I   I1        1.0  0.2042962640347239  0.8204516102269552  0.05026914395745341  1.0000
  H   H22       1.0  0.8019635390209785  0.38218333692469364  0.5260939214076428  1.0000
  H   H23       1.0  0.9126981954955865  0.5008158656959933  0.2802697329667274  1.0000
  H   H24       1.0  0.9118558298570247  0.5035564699055894  0.8628994879608105  1.0000
  H   H25       1.0  0.7468428409150902  0.32187747494706676  0.08366471746948756  1.0000
  H   H26       1.0  0.8020596635009335  0.3818695937472991  0.6331753329584258  1.0000
  H   H27       1.0  0.9566032668937583  0.7142877614741305  0.21104311397096298  1.0000
  H   H28       1.0  0.06622816808242815  0.8317511092494485  0.20310384018061844  1.0000
  H   H29       1.0  0.14072950014773267  0.5893986068647599  0.9121485799707432  1.0000
  H   H30       1.0  0.032032588594976374  0.46891670971839017  0.9201460410566744  1.0000
  Zn  Zn1       1.0  0.7503890164052359  0.4091669862238476  0.5769427806123606  1.0000
  Zn  Zn2       1.0  0.90115800826371  0.4066498047066833  0.5788581072824128  1.0000
  C   C40       1.0  0.8257965201977205  0.40266868574912507  0.8150968007138684  1.0000
  C   C41       1.0  0.8257521506092255  0.41314971627728436  0.3407042354162837  1.0000
  C   C42       1.0  0.8257343630864981  0.645102207477326  0.5727043351213377  1.0000
  C   C43       1.0  0.8258142565324614  0.17071463508658247  0.5830967697336147  1.0000
  O   O2        1.0  0.88297093750597  0.41391195803670877  0.38981689305918965  1.0000
  O   O3        1.0  0.8830079096912293  0.3999949818441204  0.7674374579368217  1.0000
  O   O4        1.0  0.8829569458543598  0.5957631291297676  0.5717038170846056  1.0000
  O   O5        1.0  0.8830218498857099  0.21814382092744844  0.5855504358821546  1.0000
  O   O6        1.0  0.7685251233331778  0.5976729708634891  0.5702504513521802  1.0000
  O   O7        1.0  0.7685760869079755  0.4019063839007486  0.7659840228191581  1.0000
  O   O8        1.0  0.7685391146414502  0.4158233152731623  0.38836189654257103  1.0000
  O   O9        1.0  0.7685900270282613  0.2200551688479213  0.5840955367343494  1.0000
