data_image0
_chemical_formula_structural       NC10NC5H10C13OH12C12BrH9Zn2C4O8
_chemical_formula_sum              "N2 C44 H31 O9 Br1 Zn2"
_cell_length_a       19.4436361288709
_cell_length_b       10.299150109392551
_cell_length_c       10.299148005577397
_cell_angle_alpha    85.53215182685325
_cell_angle_beta     89.67790826124899
_cell_angle_gamma    89.39953782186457

_space_group_name_H-M_alt    "P 1"
_space_group_IT_number       1

loop_
  _space_group_symop_operation_xyz
  'x, y, z'

loop_
  _atom_site_type_symbol
  _atom_site_label
  _atom_site_symmetry_multiplicity
  _atom_site_fract_x
  _atom_site_fract_y
  _atom_site_fract_z
  _atom_site_occupancy
  N   N1        1.0  0.6477571825034493  0.40962743496520004  0.5615454372619038  1.0000
  C   C1        1.0  0.5889168555380297  0.4195255282058761  0.5759268989211985  1.0000
  C   C2        1.0  0.5155820847309629  0.43186976024231427  0.5939160847772536  1.0000
  C   C3        1.0  0.4734215015685844  0.3999005309903003  0.499247828847039  1.0000
  C   C4        1.0  0.3975140170995252  0.4103379441865578  0.5045727202370567  1.0000
  C   C5        1.0  0.3577588943374906  0.38555391736241895  0.6116592615553604  1.0000
  C   C6        1.0  0.2816401056142018  0.38947498191853147  0.5986978678026571  1.0000
  C   C7        1.0  0.24104947072838293  0.4471109271255891  0.6924544715685232  1.0000
  C   C8        1.0  0.1693874256901097  0.45075233319295305  0.681908781370179  1.0000
  C   C9        1.0  0.1373212748518146  0.39636165990211425  0.5778931616572776  1.0000
  C   C10       1.0  0.06353000373867451  0.4000643636332146  0.5671921605513675  1.0000
  N   N2        1.0  0.0042068267322536  0.40304114309150396  0.5585892651089732  1.0000
  C   C11       1.0  0.17718706970640893  0.3380184460223059  0.4845200493456794  1.0000
  C   C12       1.0  0.2488656007623288  0.33432289208369426  0.4948139663840343  1.0000
  C   C13       1.0  0.385873990806643  0.3450480957057742  0.7427745495632816  1.0000
  C   C14       1.0  0.44452113143856686  0.38815827805078085  0.7900052739890289  1.0000
  C   C15       1.0  0.4887255364193183  0.48604792672785035  0.7156011818670975  1.0000
  H   H1        1.0  0.4955426739241678  0.37080998950802213  0.4089457605253972  1.0000
  H   H2        1.0  0.3728292849010142  0.43286413450314565  0.4114017755864312  1.0000
  H   H3        1.0  0.2648970798436688  0.4903793928952227  0.7732928105033008  1.0000
  H   H4        1.0  0.1390209148012652  0.4960472169901602  0.7548185466963542  1.0000
  H   H5        1.0  0.1528674806699686  0.2949455462716801  0.4040161465464822  1.0000
  H   H6        1.0  0.2785667548426141  0.28678422021349825  0.42260131921293365  1.0000
  H   H7        1.0  0.3549075670612797  0.28080545525446743  0.8070463608872622  1.0000
  H   H8        1.0  0.4596584793610198  0.35405708537682234  0.8879564195150325  1.0000
  H   H9        1.0  0.45860549387583316  0.576777383629097  0.6903176839857206  1.0000
  H   H10       1.0  0.5319942340910565  0.511615773980358  0.7786810977796725  1.0000
  C   C16       1.0  0.826050083048577  0.02493336923610112  0.5602109435726723  1.0000
  C   C17       1.0  0.8247495353610023  0.013132923130917185  0.6970388717737857  1.0000
  C   C18       1.0  0.8240303493455325  0.8900163902158066  0.7661503246668413  1.0000
  C   C19       1.0  0.8246170168949053  0.7778800808940018  0.6966765587611585  1.0000
  C   C20       1.0  0.8259205028044183  0.787725053703701  0.5599350092139477  1.0000
  C   C21       1.0  0.8266313100754168  0.911712100221015  0.49250129295818  1.0000
  C   C22       1.0  0.8226485426478984  0.8785147303877202  0.9108086814981735  1.0000
  C   C23       1.0  0.7803392564899854  0.7864061662439547  0.9791841625498721  1.0000
  C   C24       1.0  0.7790161909403301  0.7756649461847888  0.11530772073242201  1.0000
  C   C25       1.0  0.8204296104320561  0.8558653936106129  0.18551286811024315  1.0000
  C   C26       1.0  0.8620807121982477  0.9489396585892738  0.11778544727121998  1.0000
  C   C27       1.0  0.8634197433768127  0.9598563807186008  0.9816614679548639  1.0000
  C   C28       1.0  0.8175617420137153  0.8467042579526312  0.331629771275194  1.0000
  O   O1        1.0  0.7661450871755516  0.930823746122974  0.3722987256231217  1.0000
  H   H11       1.0  0.8280580831267218  0.25450835675741845  0.30194552296570487  1.0000
  H   H12       1.0  0.8233394301455123  0.099923163394114  0.7500616284925858  1.0000
  H   H13       1.0  0.8249964464192701  0.6827413065857465  0.7495094035541905  1.0000
  H   H14       1.0  0.8276347815511872  0.9200220668629698  0.3870284603014893  1.0000
  H   H15       1.0  0.8263755759303637  0.46403716291246716  0.5073397973892717  1.0000
  H   H16       1.0  0.7474594724454193  0.7240142705504997  0.9273457064514725  1.0000
  H   H17       1.0  0.7455461028948736  0.7049448647253546  0.16596321969987693  1.0000
  H   H18       1.0  0.8936934052165025  0.012907805225325086  0.17038065240806877  1.0000
  H   H19       1.0  0.8969126777719678  0.031021330506115108  0.9318124605936224  1.0000
  H   H20       1.0  0.8681438320874507  0.8735917132880905  0.3713821702567711  1.0000
  H   H21       1.0  0.80637510571848  0.7448829777064181  0.3695368994200583  1.0000
  H   H22       1.0  0.7663760774250938  0.921125154566049  0.46892802038223247  1.0000
  C   C29       1.0  0.8260790320381436  0.40637954790623687  0.17868397440439732  1.0000
  C   C30       1.0  0.761373896851717  0.46835990143603956  0.17376147823244503  1.0000
  C   C31       1.0  0.7284701746738672  0.49973378521131817  0.05412822400634054  1.0000
  C   C32       1.0  0.761144357984487  0.4682913317958419  0.9384863733845608  1.0000
  C   C33       1.0  0.8258915412582262  0.4062789319689948  0.941461920531967  1.0000
  C   C34       1.0  0.8579600570643319  0.3757029185517051  0.06198764388066014  1.0000
  C   C35       1.0  0.6600204420711244  0.5653034420899876  0.04996572859455961  1.0000
  C   C36       1.0  0.6455559148124258  0.6668967239410601  0.1301268965096669  1.0000
  C   C37       1.0  0.5810999731365853  0.7285015857053865  0.126014630260054  1.0000
  C   C38       1.0  0.5303758766321603  0.6894918772563003  0.04208515852618033  1.0000
  C   C39       1.0  0.5441494667571768  0.588698291802203  0.962076969557156  1.0000
  C   C40       1.0  0.6085469713619283  0.5268725262967819  0.9657972626013991  1.0000
  Br  Br1       1.0  0.4423695181115387  0.7737954020402518  0.0367347490811496  1.0000
  H   H23       1.0  0.850981451182068  0.38259166308291537  0.5080487312619155  1.0000
  H   H24       1.0  0.7359903040729839  0.4907769511359583  0.26330352963001125  1.0000
  H   H25       1.0  0.7364392507246856  0.49384482211986325  0.8458656685461321  1.0000
  H   H26       1.0  0.907869737727454  0.3278998453237325  0.06506843652305783  1.0000
  H   H27       1.0  0.9482903766528937  0.28996553135869885  0.7397273540773375  1.0000
  H   H28       1.0  0.6843587304224243  0.6997995936686201  0.1947004647036541  1.0000
  H   H29       1.0  0.5707002847181897  0.8067664352595278  0.18787702442185417  1.0000
  H   H30       1.0  0.5049394160705004  0.5579551081805785  0.8971989959731186  1.0000
  H   H31       1.0  0.61779588535203  0.44793959275006  0.9041457564913764  1.0000
  Zn  Zn1       1.0  0.7506208501020099  0.4077233007509171  0.5606998636260452  1.0000
  Zn  Zn2       1.0  0.9013431498256039  0.40493466732508665  0.559445524324824  1.0000
  C   C41       1.0  0.8259263342223011  0.4011238596847595  0.7972824685901181  1.0000
  C   C42       1.0  0.8260393112784209  0.41153571667947153  0.32286303254370896  1.0000
  C   C43       1.0  0.8259427274820206  0.6435419753112817  0.5548117336079503  1.0000
  C   C44       1.0  0.8260228668357783  0.1691160415621109  0.5653338377606909  1.0000
  O   O2        1.0  0.8832243088404024  0.41220223595395833  0.3707748283693342  1.0000
  O   O3        1.0  0.8831360749322447  0.3983398524094093  0.7484182847470529  1.0000
  O   O4        1.0  0.8831485413040591  0.5940955606611926  0.5526214566567187  1.0000
  O   O5        1.0  0.8832117910596329  0.21644653795759283  0.5665715595045344  1.0000
  O   O6        1.0  0.7687521574338584  0.5962114310714495  0.5535738288675469  1.0000
  O   O7        1.0  0.7687396908108447  0.4004572832635429  0.7493705871442793  1.0000
  O   O8        1.0  0.7688279251562236  0.4143196217534788  0.3717255692996724  1.0000
  O   O9        1.0  0.768815407350287  0.218563914454734  0.5675223978112194  1.0000
