data_image0
_chemical_formula_structural       NC10NC3NH7C13OH12C13NH9Zn2C4O8
_chemical_formula_sum              "N4 C43 H28 O9 Zn2"
_cell_length_a       19.210446455230148
_cell_length_b       10.299150109392551
_cell_length_c       10.298528502251457
_cell_angle_alpha    85.52101086159662
_cell_angle_beta     89.98780616926321
_cell_angle_gamma    89.92850971851941

_space_group_name_H-M_alt    "P 1"
_space_group_IT_number       1

loop_
  _space_group_symop_operation_xyz
  'x, y, z'

loop_
  _atom_site_type_symbol
  _atom_site_label
  _atom_site_symmetry_multiplicity
  _atom_site_fract_x
  _atom_site_fract_y
  _atom_site_fract_z
  _atom_site_occupancy
  N   N1        1.0  0.6552576827873581  0.4207880259426682  0.5666963039934327  1.0000
  C   C1        1.0  0.5950285685411336  0.4229956020240946  0.5669267832677003  1.0000
  C   C2        1.0  0.5202234285983517  0.4257325921925228  0.5672123176734567  1.0000
  C   C3        1.0  0.48458271827355304  0.5419652399487327  0.5822892370541479  1.0000
  C   C4        1.0  0.4119172000463822  0.5421168057075347  0.5822365854647711  1.0000
  C   C5        1.0  0.3750564919105411  0.4264415741216725  0.5672985874721943  1.0000
  C   C6        1.0  0.2977347126527125  0.42508506414140945  0.5671484055013671  1.0000
  C   C7        1.0  0.2599541877532229  0.5286849527510662  0.5037462572783367  1.0000
  C   C8        1.0  0.1871761939396902  0.5272826698458881  0.5036376125280533  1.0000
  C   C9        1.0  0.1511772479681906  0.42253804299435327  0.5668800317116982  1.0000
  C   C10       1.0  0.0762480638907811  0.42123592566281776  0.5667435975216311  1.0000
  N   N2        1.0  0.0160104817097803  0.42018897910418107  0.5666339393268871  1.0000
  C   C11       1.0  0.1882340831424308  0.3190638639731589  0.6302571287606142  1.0000
  C   C12       1.0  0.2610139962499752  0.32019184314320737  0.6304161120383127  1.0000
  C   C13       1.0  0.4133065940671531  0.3120291972988374  0.5525092928034594  1.0000
  N   N3        1.0  0.4840759104893315  0.31447427125331173  0.5526741036004303  1.0000
  H   H1        1.0  0.512660571799267  0.6314003273940965  0.5943108812106084  1.0000
  H   H2        1.0  0.3846250808017511  0.6321332961293817  0.5956529377774631  1.0000
  H   H3        1.0  0.2866605314181199  0.6099618408146741  0.45272381136071793  1.0000
  H   H4        1.0  0.1590090562264797  0.6077313224726806  0.45394598213387316  1.0000
  H   H5        1.0  0.1608881382424391  0.23765178778329132  0.6798495666940301  1.0000
  H   H6        1.0  0.2885362276631672  0.23986186867124992  0.6815456047438013  1.0000
  H   H7        1.0  0.3870647424819901  0.22114974678797772  0.5390469603624441  1.0000
  C   C14       1.0  0.8357030109882919  0.03908871069947528  0.5668092548990096  1.0000
  C   C15       1.0  0.8344172544298544  0.027239664719361123  0.7036369180237914  1.0000
  C   C16       1.0  0.8337047873723459  0.9040975380694563  0.7727477313606808  1.0000
  C   C17       1.0  0.8342830551768279  0.7919846676404222  0.7032735018470817  1.0000
  C   C18       1.0  0.8355718046842884  0.8018782727821137  0.566532247729894  1.0000
  C   C19       1.0  0.8362761657392171  0.9258904442285412  0.4990992292249501  1.0000
  C   C20       1.0  0.8323385357981387  0.8925443823515462  0.9174057524864199  1.0000
  C   C21       1.0  0.7895336418382963  0.7997118486036704  0.9854428721042392  1.0000
  C   C22       1.0  0.7882249385560731  0.7889217882142102  0.12156592939804634  1.0000
  C   C23       1.0  0.8301540337495041  0.8698040593827603  0.1921125905651333  1.0000
  C   C24       1.0  0.8722929407675494  0.9635911128078717  0.12471823617197686  1.0000
  C   C25       1.0  0.8736178023553153  0.9745569434979794  0.988594887336272  1.0000
  C   C26       1.0  0.8272841026650677  0.8605661837069717  0.33821720254561805  1.0000
  O   O1        1.0  0.775255702012141  0.9438141589565513  0.3784717690609132  1.0000
  H   H8        1.0  0.837677697699351  0.2687479271309585  0.3085407070210684  1.0000
  H   H9        1.0  0.833001940353332  0.11399585317499938  0.756652215272722  1.0000
  H   H10       1.0  0.8346788405244883  0.6968419345027297  0.7561134019639466  1.0000
  H   H11       1.0  0.8372682470920172  0.9342378897529517  0.3936266086423781  1.0000
  H   H12       1.0  0.8360206508094769  0.4782083101051913  0.5139367737156975  1.0000
  H   H13       1.0  0.7562453112803791  0.7367778628478243  0.9333335678608823  1.0000
  H   H14       1.0  0.7543620188572392  0.717629659617603  0.17195349850866848  1.0000
  H   H15       1.0  0.9042990499765908  0.028079920301795847  0.17757405898123446  1.0000
  H   H16       1.0  0.9075040239910009  0.04629416642518813  0.93901405599414  1.0000
  H   H17       1.0  0.8784857849910265  0.8882954087493415  0.37838326392984134  1.0000
  H   H18       1.0  0.8159708460288307  0.7585496073744751  0.3760363591985376  1.0000
  H   H19       1.0  0.7755110164813183  0.9341005510752153  0.47511020891142075  1.0000
  C   C27       1.0  0.8356472807628743  0.4206099832757326  0.1852538173887197  1.0000
  C   C28       1.0  0.7632769550378421  0.4405936840569964  0.18276901838682758  1.0000
  C   C29       1.0  0.7266135326188299  0.4505793313257147  0.06436350975453364  1.0000
  C   C30       1.0  0.7632562212125272  0.44032883794734046  0.9475094145605456  1.0000
  C   C31       1.0  0.8356275355936832  0.42035701611730536  0.9480876321339728  1.0000
  C   C32       1.0  0.8713596496397535  0.41062271600500866  0.06742670183318711  1.0000
  C   C33       1.0  0.6501035431691363  0.47170039898988825  0.0627442512480898  1.0000
  C   C34       1.0  0.6193544960144874  0.5596895224428022  0.14363367591855258  1.0000
  C   C35       1.0  0.5473357295209785  0.5795237376866902  0.14199000647648208  1.0000
  C   C36       1.0  0.5051077058265355  0.511729891894187  0.05967290182994045  1.0000
  C   C37       1.0  0.5351696832310585  0.4239782625098507  0.9788875173544413  1.0000
  C   C38       1.0  0.6071810355317817  0.40404968742016334  0.9802946121216052  1.0000
  C   C39       1.0  0.4309643017571766  0.5321999359401937  0.058101388292514766  1.0000
  N   N4        1.0  0.3713580044634666  0.5486565940228301  0.05683803235984164  1.0000
  H   H20       1.0  0.9723412909696653  0.38204030923838905  0.3973367503647367  1.0000
  H   H21       1.0  0.7351635466179017  0.44664866954218074  0.2732873192814713  1.0000
  H   H22       1.0  0.7354040774777394  0.44972304583726674  0.8558068697794763  1.0000
  H   H23       1.0  0.927136857775391  0.3952256047017533  0.06860690367424405  1.0000
  H   H24       1.0  0.9724498866553432  0.3834300425944599  0.7417920058111753  1.0000
  H   H25       1.0  0.6510967799818623  0.6144094662883535  0.2069113173144943  1.0000
  H   H26       1.0  0.5246310740387616  0.6479572044481814  0.20467613331553358  1.0000
  H   H27       1.0  0.5029460318615738  0.37070939509391  0.9150377037193311  1.0000
  H   H28       1.0  0.6292024281379194  0.3344870771879609  0.918155793984154  1.0000
  Zn  Zn1       1.0  0.7593631474291777  0.42061168714441877  0.5666858081672148  1.0000
  Zn  Zn2       1.0  0.911905002673064  0.4203547309709834  0.5666550761128719  1.0000
  C   C40       1.0  0.8356306027909128  0.41523076334639075  0.8038976107861009  1.0000
  C   C41       1.0  0.835639212778464  0.42573729067306143  0.3294434000457278  1.0000
  C   C42       1.0  0.8355931559093919  0.6576965695185439  0.5614087671253469  1.0000
  C   C43       1.0  0.8356766078747276  0.1832699241367013  0.5719323135310301  1.0000
  O   O2        1.0  0.8935253451503284  0.42735488214524553  0.37782308057691094  1.0000
  O   O3        1.0  0.8935202091491035  0.4134171684062664  0.7554942317995108  1.0000
  O   O4        1.0  0.8934891899144943  0.6092113741556384  0.5596827745614115  1.0000
  O   O5        1.0  0.893556312333658  0.23156068580682088  0.5736344404351974  1.0000
  O   O6        1.0  0.7777117857135348  0.6094057323976843  0.559706443848544  1.0000
  O   O7        1.0  0.7777428046783523  0.4136130871016219  0.7555178312657496  1.0000
  O   O8        1.0  0.7777479407740823  0.42755075609867665  0.3778451184623379  1.0000
  O   O9        1.0  0.7777789079536425  0.23175655043840715  0.5736565757040926  1.0000
