data_image0
_chemical_formula_structural       NC8NC6H8C12BrH9C12OCH12Zn2C4O8
_chemical_formula_sum              "N2 C43 H29 Br1 O9 Zn2"
_cell_length_a       17.457602349358154
_cell_length_b       10.299144633409057
_cell_length_c       10.299794127170987
_cell_angle_alpha    85.56673362329126
_cell_angle_beta     92.8688978689242
_cell_angle_gamma    91.66318000871517

_space_group_name_H-M_alt    "P 1"
_space_group_IT_number       1

loop_
  _space_group_symop_operation_xyz
  'x, y, z'

loop_
  _atom_site_type_symbol
  _atom_site_label
  _atom_site_symmetry_multiplicity
  _atom_site_fract_x
  _atom_site_fract_y
  _atom_site_fract_z
  _atom_site_occupancy
  N   N1        1.0  0.7221369940232246  0.45250385375139524  0.626265143921968  1.0000
  C   C1        1.0  0.6610718338403576  0.40657322123587547  0.6156597529415349  1.0000
  C   C2        1.0  0.5851041893921946  0.3494412318449669  0.6024761868216035  1.0000
  C   C3        1.0  0.5265599351397059  0.3896270123498222  0.6773615210988131  1.0000
  C   C4        1.0  0.4520297758316056  0.3346135719878185  0.6647919101311732  1.0000
  C   C5        1.0  0.3898937363215931  0.3770439073991292  0.744098346565021  1.0000
  C   C6        1.0  0.3153460127558926  0.39549693064870683  0.6883337078793303  1.0000
  C   C7        1.0  0.25680179659639635  0.43549880799602025  0.7633270296363681  1.0000
  C   C8        1.0  0.18081590916373583  0.4545570668813228  0.7053469124175826  1.0000
  N   N2        1.0  0.11973617383911202  0.4698735270511165  0.658731050574956  1.0000
  C   C9        1.0  0.272313042961242  0.4572909645250256  0.8945934301679277  1.0000
  C   C10       1.0  0.3460759341161946  0.43922706088927965  0.950745564439474  1.0000
  C   C11       1.0  0.4046084670230355  0.3994053807810387  0.8762099025033085  1.0000
  C   C12       1.0  0.4373327916871597  0.23873647853888058  0.5759042619587769  1.0000
  C   C13       1.0  0.49586522749756634  0.1988295090320138  0.5014188513774118  1.0000
  C   C14       1.0  0.5696105543114788  0.253955491483447  0.5145383604432066  1.0000
  H   H1        1.0  0.5388797176928293  0.46484461789417075  0.7439728307576494  1.0000
  H   H2        1.0  0.3030118684221001  0.38049606588955  0.586317565177398  1.0000
  H   H3        1.0  0.22743997133349972  0.48819249495228356  0.9534197112672083  1.0000
  H   H4        1.0  0.3578959840036525  0.45578555536663123  0.05238813310772161  1.0000
  H   H5        1.0  0.4610948846258883  0.38442629836276576  0.9223172290167279  1.0000
  H   H6        1.0  0.3808607572381474  0.19339553330137949  0.5652626301057397  1.0000
  H   H7        1.0  0.4840590431271703  0.12472807085867998  0.4336090427118724  1.0000
  H   H8        1.0  0.6144838633696628  0.22218436877242476  0.4562233640792013  1.0000
  C   C15       1.0  0.9210403257235935  0.0797984358481636  0.6425853738267364  1.0000
  C   C16       1.0  0.8883312986270734  0.08727406246214153  0.5149596342876253  1.0000
  C   C17       1.0  0.8716438669884428  0.9739233263860082  0.4501662996638909  1.0000
  C   C18       1.0  0.8881068372676622  0.8519986168583786  0.5147200730183747  1.0000
  C   C19       1.0  0.9208401863251465  0.8425692753078308  0.6424226546460641  1.0000
  C   C20       1.0  0.9371044924648105  0.9569721010193939  0.7055701726579406  1.0000
  C   C21       1.0  0.8370428562833542  0.9828768658313468  0.3151528781220303  1.0000
  C   C22       1.0  0.8627263369860809  0.07927963819942874  0.2217870842751688  1.0000
  C   C23       1.0  0.830091810005562  0.0874968066800994  0.09475396685625226  1.0000
  C   C24       1.0  0.7715075598699336  0.9998382052481961  0.059436892642393824  1.0000
  C   C25       1.0  0.7455266659532905  0.9037418317007119  0.15133790887642062  1.0000
  C   C26       1.0  0.7780275028232069  0.8951015218544288  0.2784603839715467  1.0000
  Br  Br1       1.0  0.7270207670045405  0.011351098637855994  0.8858489856606973  1.0000
  H   H9        1.0  0.9336535135456783  0.4044017759488421  0.691654768591726  1.0000
  H   H10       1.0  0.874786040239927  0.18138863654871207  0.4662948151048758  1.0000
  H   H11       1.0  0.8763284006135724  0.7644016448711599  0.4645955094890728  1.0000
  H   H12       1.0  0.962336186869773  0.9504904394595421  0.8040095386981774  1.0000
  H   H13       1.0  0.9830640511930304  0.6175246639109939  0.8831565888467479  1.0000
  H   H14       1.0  0.9086932495942291  0.14717614045719674  0.2465416400946614  1.0000
  H   H15       1.0  0.8505213133757997  0.16183821129754317  0.023767403010731325  1.0000
  H   H16       1.0  0.7000193958829182  0.8358908595689716  0.12447238098783853  1.0000
  H   H17       1.0  0.7563504785961558  0.8209197075662886  0.34848526293093096  1.0000
  C   C27       1.0  0.9209661573386875  0.4610714881213498  0.2611547175237754  1.0000
  C   C28       1.0  0.8458017247085418  0.4086619351485836  0.2578332506421859  1.0000
  C   C29       1.0  0.8076941881210274  0.38220727310200964  0.13900162467714372  1.0000
  C   C30       1.0  0.8457495076269872  0.4088861356134381  0.022524051763538555  1.0000
  C   C31       1.0  0.9209143696895876  0.4612962148078905  0.02385329177805451  1.0000
  C   C32       1.0  0.9581025824750341  0.48709257016129426  0.14365406188422303  1.0000
  C   C33       1.0  0.7281766745666913  0.32675393540034947  0.13654257861816532  1.0000
  C   C34       1.0  0.6732417695460706  0.37302431207371667  0.040899217243037134  1.0000
  C   C35       1.0  0.5985076787986846  0.32082621632873765  0.03885747139910478  1.0000
  C   C36       1.0  0.5776220692916979  0.22197346987811395  0.1318575565857214  1.0000
  C   C37       1.0  0.6318004697654445  0.17426535536439736  0.22830199758874503  1.0000
  C   C38       1.0  0.706638680257491  0.22710758771961692  0.22990074684751338  1.0000
  O   O1        1.0  0.6137682033716317  0.0748982510696039  0.32367015084646367  1.0000
  C   C39       1.0  0.5402450592985695  0.012408851387817554  0.33371521304797747  1.0000
  H   H18       1.0  0.9496172495050784  0.4809839071861861  0.589878742895714  1.0000
  H   H19       1.0  0.816332190453143  0.3899445446135308  0.3477072894066964  1.0000
  H   H20       1.0  0.8169958925836152  0.38703419915880755  0.9308486045184043  1.0000
  H   H21       1.0  0.016089105891261335  0.5275235109756671  0.14544806916019404  1.0000
  H   H22       1.0  0.9495399425127066  0.481327321740171  0.696901140960597  1.0000
  H   H23       1.0  0.6878119111116986  0.4507319856839356  0.9687554435091621  1.0000
  H   H24       1.0  0.5565517261356657  0.357391225095653  0.9650863198208643  1.0000
  H   H25       1.0  0.5193475997603826  0.18339110473035358  0.12793453407101407  1.0000
  H   H26       1.0  0.748256909172835  0.18877769065826544  0.3034708912567665  1.0000
  H   H27       1.0  0.524445049050682  0.9632596872938205  0.24357383371679364  1.0000
  H   H28       1.0  0.5422359743081926  0.9380151176330724  0.4175639652240568  1.0000
  H   H29       1.0  0.4965298020733164  0.08476230044335242  0.3504084598836499  1.0000
  Zn  Zn1       1.0  0.8368755291399022  0.45751288557051417  0.6356416021056099  1.0000
  Zn  Zn2       1.0  0.004997626544366973  0.4648538499447059  0.6493652266434133  1.0000
  C   C40       1.0  0.9209237827286652  0.456079674165637  0.879687906659983  1.0000
  C   C41       1.0  0.9209512084050252  0.4662887802621205  0.4053191990609002  1.0000
  C   C42       1.0  0.9208744107752278  0.6983876285617814  0.6372781816928861  1.0000
  C   C43       1.0  0.921000523394883  0.22397926299094828  0.6477289889130295  1.0000
  O   O2        1.0  0.9847476526824158  0.4708199428268085  0.4589101612231299  1.0000
  O   O3        1.0  0.9847281205832195  0.45711915381478363  0.8365124843611034  1.0000
  O   O4        1.0  0.9846873919404973  0.6527858542351292  0.6407648458651216  1.0000
  O   O5        1.0  0.9847883239606315  0.27515324916354733  0.654657697664528  1.0000
  O   O6        1.0  0.8570847743518172  0.6472134838479737  0.6303491263944647  1.0000
  O   O7        1.0  0.8571255025862985  0.4515483437989565  0.8260966953153832  1.0000
  O   O8        1.0  0.8571450348544635  0.46524908709470125  0.44849281087087056  1.0000
  O   O9        1.0  0.8571857061253652  0.2695823841706566  0.6442404446768217  1.0000
