data_image0
_chemical_formula_structural       NC10NC3NCH9C12NH11C12NCOH11Zn2C4O8
_chemical_formula_sum              "N5 C43 H31 O9 Zn2"
_cell_length_a       19.437513618241372
_cell_length_b       10.299770795358612
_cell_length_c       10.299148425239203
_cell_angle_alpha    85.53227456119625
_cell_angle_beta     90.33234682354211
_cell_angle_gamma    89.53989505547142

_space_group_name_H-M_alt    "P 1"
_space_group_IT_number       1

loop_
  _space_group_symop_operation_xyz
  'x, y, z'

loop_
  _atom_site_type_symbol
  _atom_site_label
  _atom_site_symmetry_multiplicity
  _atom_site_fract_x
  _atom_site_fract_y
  _atom_site_fract_z
  _atom_site_occupancy
  N   N1        1.0  0.6482686723312292  0.4110616894613748  0.5755317217717437  1.0000
  C   C1        1.0  0.5893384186014308  0.4280729328808899  0.5725555437358794  1.0000
  C   C2        1.0  0.5159017949282183  0.44932691251968904  0.5688613268718994  1.0000
  C   C3        1.0  0.4741238443347315  0.34814368856464606  0.5572009574574319  1.0000
  C   C4        1.0  0.3982362247585486  0.3582117605511914  0.549979126823539  1.0000
  C   C5        1.0  0.3586690493912226  0.43902806024603125  0.6157264786436016  1.0000
  C   C6        1.0  0.2824861996852997  0.4304239238757619  0.6072817589151707  1.0000
  C   C7        1.0  0.24932996157656703  0.30907851455591495  0.6119251506429455  1.0000
  C   C8        1.0  0.1775948957550683  0.3027102529782266  0.604756570876398  1.0000
  C   C9        1.0  0.138045330617166  0.417214548186261  0.5933068554101104  1.0000
  C   C10       1.0  0.0641957512570447  0.410508191165154  0.5859701715457788  1.0000
  N   N2        1.0  0.0048257875359463  0.405116869958976  0.5800719361582929  1.0000
  C   C11       1.0  0.1704848535712196  0.538249032068773  0.5894087914945674  1.0000
  C   C12       1.0  0.2422043605276006  0.5448712519163723  0.5966393977166817  1.0000
  C   C13       1.0  0.3873601228389772  0.5312683893212122  0.7056529947732879  1.0000
  N   N3        1.0  0.4443576466965956  0.5944900092978611  0.6852475272619889  1.0000
  C   C14       1.0  0.4882066217124716  0.585283969620122  0.5721319881913003  1.0000
  H   H1        1.0  0.49649286013363664  0.25309458445702737  0.5450786515626154  1.0000
  H   H2        1.0  0.37351536134762  0.28872882958951585  0.4916567095249056  1.0000
  H   H3        1.0  0.278764167660645  0.21916248818054318  0.6229465365778399  1.0000
  H   H4        1.0  0.1529850918862598  0.20848334467790042  0.6086437682278423  1.0000
  H   H5        1.0  0.14036505455486373  0.6275090322535908  0.5806997141929382  1.0000
  H   H6        1.0  0.2663327136498997  0.639510961904417  0.5927367405725548  1.0000
  H   H7        1.0  0.357353058025516  0.5516125731982602  0.7900256317470191  1.0000
  H   H8        1.0  0.5309705980573184  0.6555926697612815  0.5778959782982178  1.0000
  H   H9        1.0  0.4585521037555482  0.6134365530117598  0.4814801161108977  1.0000
  C   C15       1.0  0.8264881767131025  0.02672168209081205  0.5778406909185005  1.0000
  C   C16       1.0  0.8065372395990454  0.036284844414677275  0.44616693493000126  1.0000
  C   C17       1.0  0.796491052425551  0.9239933789806509  0.3794125106216397  1.0000
  C   C18       1.0  0.8066631766807532  0.8010011600685042  0.4460999808595998  1.0000
  C   C19       1.0  0.8266128686738086  0.7894467264597445  0.5777742715795837  1.0000
  C   C20       1.0  0.8364139847084262  0.9028639188707004  0.642907147333468  1.0000
  C   C21       1.0  0.7753844201321725  0.9351640498144232  0.24010932310715227  1.0000
  C   C22       1.0  0.7252937123697912  0.027196106985872603  0.19428112852278723  1.0000
  C   C23       1.0  0.7054576503855815  0.03758022566189645  0.06316828312777645  1.0000
  C   C24       1.0  0.7353368669320374  0.9563588653194361  0.9757985656178456  1.0000
  C   C25       1.0  0.7852626000122703  0.8645280148366778  0.020734037607998523  1.0000
  C   C26       1.0  0.8051537799411569  0.8538869640098627  0.15181760971396874  1.0000
  N   N4        1.0  0.715017831313952  0.9671123464049501  0.8416948534300159  1.0000
  H   H10       1.0  0.8340611451192832  0.35053041348745406  0.6280312574390794  1.0000
  H   H11       1.0  0.7996759732323319  0.13132614185728242  0.39472368828359405  1.0000
  H   H12       1.0  0.798074777697199  0.7141366117421433  0.39557491140820744  1.0000
  H   H13       1.0  0.8518047059942138  0.8947183448200998  0.7444876117614079  1.0000
  H   H14       1.0  0.8342445401845696  0.4575910182612993  0.6279339619429869  1.0000
  H   H15       1.0  0.7008108393035782  0.0899875632000855  0.260177291531557  1.0000
  H   H16       1.0  0.6666732675057963  0.10872188160387597  0.029760518273290737  1.0000
  H   H17       1.0  0.8088947088588194  0.8014054784557638  0.9541377194103235  1.0000
  H   H18       1.0  0.8444657893172957  0.7832473879091177  0.1837924486164162  1.0000
  H   H19       1.0  0.736998499793433  0.9069783632894972  0.7758304446979909  1.0000
  H   H20       1.0  0.6778439314459631  0.03528756178646453  0.8072843554631568  1.0000
  C   C27       1.0  0.8266022985286409  0.40823917601854065  0.19641193757494957  1.0000
  C   C28       1.0  0.8964119095427567  0.4426341067726822  0.19332826473376974  1.0000
  C   C29       1.0  0.9316975242935982  0.4598606758244519  0.07463126805695741  1.0000
  C   C30       1.0  0.8962668169294111  0.44229637582526093  0.958069292498958  1.0000
  C   C31       1.0  0.826498743241841  0.40792922616062244  0.959203035568073  1.0000
  C   C32       1.0  0.7920757915739384  0.39109314193656775  0.07888536614729058  1.0000
  C   C33       1.0  0.00550613864124383  0.496222813350389  0.07246124719717417  1.0000
  C   C34       1.0  0.05172752715866702  0.4380812835728223  0.9894568816632856  1.0000
  C   C35       1.0  0.12114812890468052  0.4724371496983619  0.9875635742967552  1.0000
  C   C36       1.0  0.14597252805745597  0.5642961125549568  0.0693804424641955  1.0000
  C   C37       1.0  0.09968316296810009  0.6242849891564839  0.15081538125530347  1.0000
  C   C38       1.0  0.03023148676182319  0.5900363095710941  0.15280512467073892  1.0000
  N   N5        1.0  0.2174297230826765  0.5993116362766318  0.06375172363168247  1.0000
  C   C39       1.0  0.25700991086624225  0.6353247095438612  0.17298255206233515  1.0000
  O   O1        1.0  0.23372845786844754  0.6215503528646567  0.28704753354212875  1.0000
  H   H21       1.0  0.6949494334726691  0.34255473235009326  0.4095865485758805  1.0000
  H   H22       1.0  0.9237105068611258  0.45437436024334343  0.28360119149318264  1.0000
  H   H23       1.0  0.9229633376760312  0.4572429283211641  0.8661749660413443  1.0000
  H   H24       1.0  0.7382627364556826  0.3645813515941829  0.08047495663932147  1.0000
  H   H25       1.0  0.7996660803041817  0.39467436647585474  0.6321659946091431  1.0000
  H   H26       1.0  0.034369676071600797  0.36486100214887807  0.9270695592541043  1.0000
  H   H27       1.0  0.15590376559763586  0.42631978031500806  0.9230552823426414  1.0000
  H   H28       1.0  0.1166509461829488  0.6996763094246368  0.2107909351970303  1.0000
  H   H29       1.0  0.9955574680386189  0.6388185683177601  0.21542164429468325  1.0000
  H   H30       1.0  0.2438891672780339  0.5899311712966657  0.9769063696336588  1.0000
  H   H31       1.0  0.3086749651298841  0.6715030250471767  0.1578132617370367  1.0000
  Zn  Zn1       1.0  0.7511633576405115  0.4093426507137121  0.5768494393524219  1.0000
  Zn  Zn2       1.0  0.9019311052435811  0.4068252348611572  0.5787648901242419  1.0000
  C   C40       1.0  0.8265159426965473  0.4028141776545284  0.8150196453273757  1.0000
  C   C41       1.0  0.8265801668172517  0.4133553189919843  0.34059483239871935  1.0000
  C   C42       1.0  0.8265864645531126  0.6452776125729582  0.5726112866414215  1.0000
  C   C43       1.0  0.8265095932497014  0.17089032460760678  0.5830032598103092  1.0000
  O   O2        1.0  0.8837883127690968  0.41411133139345657  0.3897108331070611  1.0000
  O   O3        1.0  0.8837370285377991  0.40014652530303185  0.7673570536474243  1.0000
  O   O4        1.0  0.8837932043522118  0.5959388276980837  0.5716105790125048  1.0000
  O   O5        1.0  0.8837320855226026  0.2183190391871861  0.5854572097060853  1.0000
  O   O6        1.0  0.7693623259118582  0.5978488472481707  0.5701571191100974  1.0000
  O   O7        1.0  0.7693061503587987  0.4020581051795533  0.7659035243589014  1.0000
  O   O8        1.0  0.7693574348404264  0.41602286664791777  0.3882557423132498  1.0000
  O   O9        1.0  0.7693012075763819  0.22023056511335293  0.5840022162876883  1.0000
