data_image0
_chemical_formula_structural       NC10NC3NCH9C12ClH9C13NH9Zn2C4O8
_chemical_formula_sum              "N4 C43 H27 Cl1 Zn2 O8"
_cell_length_a       19.437513618241372
_cell_length_b       10.299768534541528
_cell_length_c       10.298528502251457
_cell_angle_alpha    85.54291766685282
_cell_angle_beta     90.34428338018773
_cell_angle_gamma    89.54057453160664

_space_group_name_H-M_alt    "P 1"
_space_group_IT_number       1

loop_
  _space_group_symop_operation_xyz
  'x, y, z'

loop_
  _atom_site_type_symbol
  _atom_site_label
  _atom_site_symmetry_multiplicity
  _atom_site_fract_x
  _atom_site_fract_y
  _atom_site_fract_z
  _atom_site_occupancy
  N   N1        1.0  0.6481213187887248  0.41094278207982216  0.5756070362418522  1.0000
  C   C1        1.0  0.5891908509756945  0.4279536590128581  0.5726325551842211  1.0000
  C   C2        1.0  0.5157539624932009  0.4492071825827042  0.5689404598853922  1.0000
  C   C3        1.0  0.47397405387836167  0.34802393160548317  0.5572683649063059  1.0000
  C   C4        1.0  0.3980857066776385  0.3580913762873883  0.5500472351519543  1.0000
  C   C5        1.0  0.3585263058209768  0.43891193912664583  0.6158070887828395  1.0000
  C   C6        1.0  0.2823424693861059  0.4303072402807615  0.6073609577406656  1.0000
  C   C7        1.0  0.2491859330369157  0.308963198570958  0.6119913226731701  1.0000
  C   C8        1.0  0.1774500358376878  0.30259445166311605  0.6048216473003369  1.0000
  C   C9        1.0  0.13789997427563871  0.41709692512725294  0.5933838313884996  1.0000
  C   C10       1.0  0.0640495427830474  0.41039007297944563  0.5860460055605023  1.0000
  N   N2        1.0  0.0046788940018283  0.40499835372090587  0.5801468521242843  1.0000
  C   C11       1.0  0.1703398754205196  0.5381301000282672  0.5894988016515446  1.0000
  C   C12       1.0  0.2420602222743324  0.5447528077360904  0.5967305347304939  1.0000
  C   C13       1.0  0.3872278909023893  0.5311582527451002  0.7057487012370769  1.0000
  N   N3        1.0  0.44422359074530826  0.5943778083514264  0.6853490211297248  1.0000
  C   C14       1.0  0.48806005591050594  0.5851633442349253  0.5722261875214851  1.0000
  H   H1        1.0  0.4963411017277232  0.2529747142648422  0.5451349793354492  1.0000
  H   H2        1.0  0.3733579614579943  0.28860464510016914  0.49171396947489754  1.0000
  H   H3        1.0  0.2786207523856702  0.21904875534412271  0.6230034771652371  1.0000
  H   H4        1.0  0.1528400313612162  0.20836862649565546  0.6086987447554095  1.0000
  H   H5        1.0  0.1402197132358857  0.627388696363621  0.5807990124831772  1.0000
  H   H6        1.0  0.2661887770558959  0.6393914299641199  0.592838021816942  1.0000
  H   H7        1.0  0.3572302470401682  0.5515086072588409  0.7901282546948263  1.0000
  H   H8        1.0  0.5308251354740188  0.6554718874000722  0.57799819535329  1.0000
  H   H9        1.0  0.4583957493911859  0.6133088779467855  0.48157235938677956  1.0000
  C   C15       1.0  0.8263385141207895  0.026606174531152993  0.5778740562745706  1.0000
  C   C16       1.0  0.8308733767106179  0.03614272356326209  0.4414460304390795  1.0000
  C   C17       1.0  0.8332373695654874  0.9238344963627736  0.37232509665810043  1.0000
  C   C18       1.0  0.8310047785615912  0.8008528101235449  0.44146319537216194  1.0000
  C   C19       1.0  0.826468297461335  0.7893247590586364  0.5778911385427066  1.0000
  C   C20       1.0  0.8241610764559872  0.9027583836520383  0.6453325780409058  1.0000
  C   C21       1.0  0.8380357909155465  0.9349770227906959  0.22799563016755497  1.0000
  C   C22       1.0  0.7988973258918447  0.029194961007317  0.15302431045875275  1.0000
  C   C23       1.0  0.8034750368297479  0.039485804806301594  0.017186081186192803  1.0000
  C   C24       1.0  0.8471248168981799  0.9560825280416317  0.9546262596529522  1.0000
  C   C25       1.0  0.886252046618409  0.8621775360038967  0.02808602931587001  1.0000
  C   C26       1.0  0.8817965139181636  0.8514923990389983  0.16394045928557643  1.0000
  Cl  Cl1       1.0  0.8527915767362567  0.9692412439135519  0.7841923769220296  1.0000
  H   H10       1.0  0.8245752072435071  0.3504266198436252  0.6298561469753197  1.0000
  H   H11       1.0  0.8335272751665291  0.1311287973115265  0.38874072462956555  1.0000
  H   H12       1.0  0.8318632128193427  0.7140227348307455  0.3885214472944145  1.0000
  H   H13       1.0  0.8206619419434455  0.894633197968204  0.7505805109338652  1.0000
  H   H14       1.0  0.824767079102914  0.45747782773780926  0.6298818217262228  1.0000
  H   H15       1.0  0.7641099498153283  0.09373493999022209  0.19933061682436515  1.0000
  H   H16       1.0  0.7729296970869516  0.11212807247158851  0.9606784813337894  1.0000
  H   H17       1.0  0.9202721868731721  0.797604308308543  0.980080267728304  1.0000
  H   H18       1.0  0.913214931703342  0.779129393267251  0.21896468600753383  1.0000
  C   C27       1.0  0.8264132037264244  0.4080917978430849  0.19646587256108283  1.0000
  C   C28       1.0  0.754891230454854  0.42914594973075504  0.19306553061977505  1.0000
  C   C29       1.0  0.7186575435727676  0.43967390985141175  0.07419614652569795  1.0000
  C   C30       1.0  0.7548706476463724  0.4288814361690776  0.9578055595586266  1.0000
  C   C31       1.0  0.8263936021180639  0.40783914744735017  0.9592993372916374  1.0000
  C   C32       1.0  0.861706895799482  0.39757631029950424  0.07909049839558602  1.0000
  C   C33       1.0  0.6430444313407747  0.4619266601719132  0.07160897277819211  1.0000
  C   C34       1.0  0.6126828770045475  0.5503630015856118  0.15214022894531976  1.0000
  C   C35       1.0  0.5415083240270412  0.5712624729288254  0.14958544374567984  1.0000
  C   C36       1.0  0.4997482874429181  0.5041008306203256  0.06670330592657714  1.0000
  C   C37       1.0  0.5294308423712173  0.41591214136184695  0.986267416496021  1.0000
  C   C38       1.0  0.6005980352757143  0.39491842905530694  0.9885854958358129  1.0000
  C   C39       1.0  0.4264740194165236  0.5256675522157499  0.0641938173159724  1.0000
  N   N4        1.0  0.3675664489363119  0.5430058650860863  0.06217639272093778  1.0000
  H   H19       1.0  0.9615045544659954  0.36750032066436544  0.4102777752714144  1.0000
  H   H20       1.0  0.7271067971245094  0.4356169323302468  0.283227511831176  1.0000
  H   H21       1.0  0.7273455767093102  0.4386874505882201  0.865751323327741  1.0000
  H   H22       1.0  0.9168302639132605  0.3813541811982588  0.0809763286949492  1.0000
  H   H23       1.0  0.9616123600595518  0.3688883120179327  0.7547349551485731  1.0000
  H   H24       1.0  0.6440746598274953  0.6046073663927953  0.2158440570918423  1.0000
  H   H25       1.0  0.5190909657908211  0.6400258278884619  0.21200844736490398  1.0000
  H   H26       1.0  0.4975637832791788  0.3631258470119969  0.9219858376431254  1.0000
  H   H27       1.0  0.6223396918578499  0.32503616295885784  0.9267006460066103  1.0000
  Zn  Zn1       1.0  0.7510161376496588  0.409223856801467  0.576924638857893  1.0000
  Zn  Zn2       1.0  0.9017840792610403  0.4067066060454487  0.5788399204793973  1.0000
  C   C40       1.0  0.8263948899897398  0.40271333931922326  0.8151073669681739  1.0000
  C   C41       1.0  0.8264069735777246  0.41321873459695446  0.34065734080316745  1.0000
  C   C42       1.0  0.8264403515944021  0.6451565196045952  0.5727120806976123  1.0000
  C   C43       1.0  0.8263614602592405  0.17077399486389044  0.5830526956324538  1.0000
  O   O1        1.0  0.8836205298266837  0.41397843219061237  0.38977615401709675  1.0000
  O   O2        1.0  0.8836107127340292  0.4000421270601213  0.7674418342734413  1.0000
  O   O3        1.0  0.8836466522257247  0.5958180736834855  0.5717059158551361  1.0000
  O   O4        1.0  0.8835845388921858  0.2182024957485753  0.5855119743951742  1.0000
  O   O5        1.0  0.7692156265688145  0.5977279679587706  0.570252584281693  1.0000
  O   O6        1.0  0.7691796873412418  0.40195358164352757  0.7659884334808507  1.0000
  O   O7        1.0  0.7691895045120838  0.41588984203497104  0.38832119162754775  1.0000
  O   O8        1.0  0.7691535135706896  0.22011389627203704  0.5840571093854301  1.0000
