data_image0
_chemical_formula_structural       NC10NC3NCH9C12OCH12C13NH9Zn2C4O8
_chemical_formula_sum              "N4 C44 H30 O9 Zn2"
_cell_length_a       19.437513618241372
_cell_length_b       10.29979075500242
_cell_length_c       10.298528502251457
_cell_angle_alpha    85.53676387981383
_cell_angle_beta     90.34428338018773
_cell_angle_gamma    89.50469088654314

_space_group_name_H-M_alt    "P 1"
_space_group_IT_number       1

loop_
  _space_group_symop_operation_xyz
  'x, y, z'

loop_
  _atom_site_type_symbol
  _atom_site_label
  _atom_site_symmetry_multiplicity
  _atom_site_fract_x
  _atom_site_fract_y
  _atom_site_fract_z
  _atom_site_occupancy
  N   N1        1.0  0.6476525004908148  0.41095939075332466  0.5754490898178155  1.0000
  C   C1        1.0  0.5887163804213846  0.4279704679270113  0.5724727044964428  1.0000
  C   C2        1.0  0.5152724299652439  0.44922424167910324  0.5687782299955024  1.0000
  C   C3        1.0  0.4735261418204215  0.34803979964041587  0.5571174618631649  1.0000
  C   C4        1.0  0.39763444947888893  0.35810736282953703  0.5498952051198902  1.0000
  C   C5        1.0  0.3580481941252286  0.43892887703433336  0.6156460113825539  1.0000
  C   C6        1.0  0.2818672168001092  0.430324076899697  0.6072008435838443  1.0000
  C   C7        1.0  0.248750999808882  0.3089786068091005  0.6118447922404435  1.0000
  C   C8        1.0  0.1770172187727778  0.30260978493263524  0.604675829809916  1.0000
  C   C9        1.0  0.1374291111216897  0.4171136062432059  0.5932251960457484  1.0000
  C   C10       1.0  0.0635809081354901  0.4104066751468265  0.5858881210088727  1.0000
  N   N2        1.0  0.0042120508774126  0.40501489242057875  0.5799895711426835  1.0000
  C   C11       1.0  0.1698287962012784  0.5381482058656972  0.5893266173843381  1.0000
  C   C12       1.0  0.2415469425076313  0.5447709915316004  0.5965576090916218  1.0000
  C   C13       1.0  0.38671912824028853  0.5311762765146131  0.7055772974255778  1.0000
  N   N3        1.0  0.44369382192701856  0.5943965762992092  0.6851705402752273  1.0000
  C   C14       1.0  0.4875333488105497  0.5851820037162074  0.5720487381699477  1.0000
  H   H1        1.0  0.4959247719655765  0.2529894634440435  0.5449947164714688  1.0000
  H   H2        1.0  0.37292979282914024  0.28861981369105427  0.49156971805784777  1.0000
  H   H3        1.0  0.2782156953062419  0.21906310516965632  0.6228670121050808  1.0000
  H   H4        1.0  0.1524385230010497  0.2083828506018648  0.6085634752704259  1.0000
  H   H5        1.0  0.1396789757883029  0.6274078528934697  0.5806168362614523  1.0000
  H   H6        1.0  0.2656440514231022  0.6394107277821104  0.592654501962524  1.0000
  H   H7        1.0  0.35671472250318054  0.5515268705790983  0.7899545727854733  1.0000
  H   H8        1.0  0.5302750667381733  0.6554913745064372  0.5778128753899086  1.0000
  H   H9        1.0  0.45785969028817447  0.6133278687384411  0.4813917593147037  1.0000
  C   C15       1.0  0.8259974005295934  0.026618259051506943  0.577759133985573  1.0000
  C   C16       1.0  0.8060784316152764  0.0157385001634176  0.7089602636932841  1.0000
  C   C17       1.0  0.7959307422218298  0.893090280076706  0.7754070231713162  1.0000
  C   C18       1.0  0.8059548285740844  0.7804582905550284  0.7088928962486951  1.0000
  C   C19       1.0  0.8258737669710563  0.7893458355080988  0.5776908335190307  1.0000
  C   C20       1.0  0.8357851196094087  0.9128685422715079  0.5128592869317574  1.0000
  C   C21       1.0  0.774861792991272  0.8826341445973757  0.9142117615032632  1.0000
  C   C22       1.0  0.7246606631262607  0.7925891797370835  0.9586437746239305  1.0000
  C   C23       1.0  0.7048930868414552  0.783020830427773  0.0891477212305104  1.0000
  C   C24       1.0  0.7348815139871192  0.8628357387194996  0.17688887853462398  1.0000
  C   C25       1.0  0.7852657568165583  0.9534860838229039  0.13433114096281384  1.0000
  C   C26       1.0  0.8048200586310867  0.9626969846692058  0.0032977118014841933  1.0000
  O   O1        1.0  0.8170655905125794  0.035626626193206556  0.21861518124399515  1.0000
  C   C27       1.0  0.8023119840951226  0.03680246543272214  0.35378061586958753  1.0000
  H   H10       1.0  0.8336174898199802  0.3582148820946467  0.5277875497264268  1.0000
  H   H11       1.0  0.797497369704516  0.10289010089888673  0.7592861636487787  1.0000
  H   H12       1.0  0.7990948187905828  0.6856544016976259  0.7601799450641853  1.0000
  H   H13       1.0  0.8511522920487127  0.9204934112852017  0.4116431653289163  1.0000
  H   H14       1.0  0.8334295585258494  0.4652815081067054  0.52768079059474  1.0000
  H   H15       1.0  0.7000541735735419  0.7307937951787487  0.8921124834021787  1.0000
  H   H16       1.0  0.6660355948979786  0.7136867169833895  0.12233598090448661  1.0000
  H   H17       1.0  0.7185743453423459  0.853322541438554  0.2773606068258949  1.0000
  H   H18       1.0  0.8442326320659107  0.031595099088560286  0.9716295706192124  1.0000
  H   H19       1.0  0.81419541107043  0.9400574071818434  0.40456095858082  1.0000
  H   H20       1.0  0.8347771322070662  0.11088530066776547  0.3964137160830098  1.0000
  H   H21       1.0  0.7473885353782047  0.06262370687516561  0.3675185286322309  1.0000
  C   C28       1.0  0.8259453327338157  0.4081083729567103  0.1963082452873126  1.0000
  C   C29       1.0  0.7544163637344402  0.4291627726797562  0.19290554646233526  1.0000
  C   C30       1.0  0.718179178694663  0.4396908567285083  0.07403498382744522  1.0000
  C   C31       1.0  0.7543958688166932  0.4288982560044019  0.9576456050118631  1.0000
  C   C32       1.0  0.8259258150743793  0.4078557195869441  0.9591417383005356  1.0000
  C   C33       1.0  0.8612425188202626  0.39759276163185286  0.0789340482663996  1.0000
  C   C34       1.0  0.6425586724728775  0.46194386899348405  0.07144531902049822  1.0000
  C   C35       1.0  0.6121677331214805  0.5503812514205664  0.15196667527952257  1.0000
  C   C36       1.0  0.5409862358123493  0.5712809687783602  0.14940955051175564  1.0000
  C   C37       1.0  0.49924851523368863  0.504118535887986  0.0665349310281722  1.0000
  C   C38       1.0  0.5289603728890142  0.4159288085313184  0.9861089137825743  1.0000
  C   C39       1.0  0.6001345414388708  0.39493484910085686  0.9884293432401936  1.0000
  C   C40       1.0  0.4259670811663756  0.5256855113524137  0.06402302815485061  1.0000
  N   N4        1.0  0.3670537496316182  0.5430240283177572  0.06200366264162205  1.0000
  H   H22       1.0  0.9610501709283581  0.3675164179623063  0.41012469196551327  1.0000
  H   H23       1.0  0.7266297802708042  0.4356338314513213  0.28306680328677003  1.0000
  H   H24       1.0  0.7268675396050593  0.43870438585337945  0.865590271057576  1.0000
  H   H25       1.0  0.9163712771107726  0.38137044157456756  0.08082169453400367  1.0000
  H   H26       1.0  0.9611575153297582  0.36890442565437787  0.7545817164655197  1.0000
  H   H27       1.0  0.6435414920024917  0.6046262547560846  0.21566443110082134  1.0000
  H   H28       1.0  0.518546029364678  0.6400451331741592  0.21182485649351457  1.0000
  H   H29       1.0  0.49711085326135673  0.3631418928165635  0.9218332440328227  1.0000
  H   H30       1.0  0.6218994180165026  0.325051760397173  0.9265523163037215  1.0000
  Zn  Zn1       1.0  0.750547890504338  0.40924044524093217  0.5767668848570391  1.0000
  Zn  Zn2       1.0  0.9013166685303707  0.4067231648535232  0.5786824482693855  1.0000
  C   C41       1.0  0.8259288061140876  0.40272985112123627  0.8149503417799748  1.0000
  C   C42       1.0  0.8259373990420715  0.4132353700614455  0.34049913960015155  1.0000
  C   C43       1.0  0.8258937103775416  0.6451758852853597  0.5725279154766316  1.0000
  C   C44       1.0  0.8259724435829582  0.17078777643127396  0.5829216346367896  1.0000
  O   O2        1.0  0.8831507028639745  0.4139950765977547  0.38961786777057683  1.0000
  O   O3        1.0  0.8831455164302904  0.4000586074184129  0.767285108111134  1.0000
  O   O4        1.0  0.8831164048460433  0.595836858585107  0.5715272737717343  1.0000
  O   O5        1.0  0.8831797630020364  0.21821683561250804  0.5853756040686093  1.0000
  O   O6        1.0  0.7686847445826879  0.597746775342388  0.5700737283972959  1.0000
  O   O7        1.0  0.7687138559126094  0.40197008450218275  0.7658314933428816  1.0000
  O   O8        1.0  0.7687190424393466  0.41590650894195025  0.38816269141037374  1.0000
  O   O9        1.0  0.7687481025736091  0.22012825863569652  0.5839205250892547  1.0000
