data_image0
_chemical_formula_structural       NC10NC3NCH9C12ClH9C12BrH9Zn2C4O8
_chemical_formula_sum              "N3 C42 H27 Cl1 Br1 Zn2 O8"
_cell_length_a       19.437513618241372
_cell_length_b       10.299768534541528
_cell_length_c       10.299148005577397
_cell_angle_alpha    85.55407396339785
_cell_angle_beta     90.32056870964719
_cell_angle_gamma    89.54057453160664

_space_group_name_H-M_alt    "P 1"
_space_group_IT_number       1

loop_
  _space_group_symop_operation_xyz
  'x, y, z'

loop_
  _atom_site_type_symbol
  _atom_site_label
  _atom_site_symmetry_multiplicity
  _atom_site_fract_x
  _atom_site_fract_y
  _atom_site_fract_z
  _atom_site_occupancy
  N   N1        1.0  0.648434954536825  0.41065958655986434  0.5757181306975403  1.0000
  C   C1        1.0  0.5895051416719834  0.42766987211135654  0.5727438816323176  1.0000
  C   C2        1.0  0.5160690661484839  0.4489226616247486  0.5690520742956788  1.0000
  C   C3        1.0  0.4742917276012692  0.3477370900203618  0.5573808896728432  1.0000
  C   C4        1.0  0.39840497041432066  0.3578030990088541  0.5501603231250647  1.0000
  C   C5        1.0  0.3588310899572864  0.43863673611652954  0.6159150478657271  1.0000
  C   C6        1.0  0.28264911326807246  0.4300303580244451  0.6074695755731785  1.0000
  C   C7        1.0  0.2494915573631791  0.30868723691635624  0.6120995793638597  1.0000
  C   C8        1.0  0.17775723884803374  0.3023170645451789  0.6049304631844539  1.0000
  C   C9        1.0  0.1382096957679214  0.4168172639611376  0.5934935393564482  1.0000
  C   C10       1.0  0.0643608799843034  0.4101089529185913  0.5861562858366463  1.0000
  N   N2        1.0  0.0049915301321356  0.4047160607998459  0.5802575925004543  1.0000
  C   C11       1.0  0.1706504523538492  0.5378496664467829  0.5896088126294594  1.0000
  C   C12       1.0  0.24236920685915142  0.5444738119561547  0.5968399816748373  1.0000
  C   C13       1.0  0.38751287087957637  0.5309009317818296  0.7058496453916876  1.0000
  N   N3        1.0  0.4445130625088872  0.594116431556541  0.6854515563420105  1.0000
  C   C14       1.0  0.4883744360845087  0.5848794765400582  0.572337545663921  1.0000
  H   H1        1.0  0.4966614470893971  0.2526854603395008  0.5452484504362496  1.0000
  H   H2        1.0  0.3736900695416264  0.28830477009549815  0.4918316071071005  1.0000
  H   H3        1.0  0.2789239519559848  0.21877498310837962  0.6231108749712364  1.0000
  H   H4        1.0  0.153146380677117  0.20809201021600332  0.6088072582482322  1.0000
  H   H5        1.0  0.1405322057676165  0.6271065331040357  0.5809097019945915  1.0000
  H   H6        1.0  0.2664986187294753  0.6391116602810227  0.5929477723548968  1.0000
  H   H7        1.0  0.35749664756277594  0.5512680625027857  0.7902226177297589  1.0000
  H   H8        1.0  0.5311382447150411  0.6551891672865255  0.5781091033123258  1.0000
  H   H9        1.0  0.4587300905464125  0.6130069866034955  0.48169078800621823  1.0000
  C   C15       1.0  0.826651650695879  0.026323429736474502  0.5779849739157394  1.0000
  C   C16       1.0  0.8312165532445064  0.03583285436773642  0.44156758868130197  1.0000
  C   C17       1.0  0.8335957657728281  0.9235108846542756  0.372452045935459  1.0000
  C   C18       1.0  0.8313479513159493  0.8005429443407235  0.44158475227561844  1.0000
  C   C19       1.0  0.8267814302750961  0.7890420176602271  0.5780020548515574  1.0000
  C   C20       1.0  0.8244593594025642  0.9024890508522468  0.6454382343055118  1.0000
  C   C21       1.0  0.8384259668924782  0.9346247157296176  0.2281338363128762  1.0000
  C   C22       1.0  0.7993040097332079  0.02882774826893786  0.15316836393565114  1.0000
  C   C23       1.0  0.8039116307631592  0.03909158492948017  0.01734072926340624  1.0000
  C   C24       1.0  0.8475751858199032  0.9556758701216308  0.9547857870362968  1.0000
  C   C25       1.0  0.8866862405024849  0.8617854832372451  0.028239827259844086  1.0000
  C   C26       1.0  0.8822007941429753  0.8511273566317861  0.1640836613656742  1.0000
  Cl  Cl1       1.0  0.8532794733344514  0.9688007006028854  0.7843651971676073  1.0000
  H   H10       1.0  0.824876897930896  0.3501542100446813  0.6299630103125022  1.0000
  H   H11       1.0  0.8338820568321733  0.13080844933180047  0.38886639358239217  1.0000
  H   H12       1.0  0.8322180427674573  0.7137023432546522  0.3886471333496122  1.0000
  H   H13       1.0  0.8209370504465866  0.8943847903932898  0.7506779584652672  1.0000
  H   H14       1.0  0.8250687641370037  0.4572054230434782  0.629988683060922  1.0000
  H   H15       1.0  0.7645064375146099  0.09337693379725742  0.19947105867579795  1.0000
  H   H16       1.0  0.7733787333756709  0.11172261784457582  0.9608375366786657  1.0000
  H   H17       1.0  0.9207169511007781  0.7972027111135213  0.9802378098454723  1.0000
  H   H18       1.0  0.9136070961953814  0.7787752906883681  0.21910359651453848  1.0000
  C   C27       1.0  0.8268103222110532  0.4077332220862695  0.1966065378460855  1.0000
  C   C28       1.0  0.7621064437770145  0.46959110102266277  0.19034695806115387  1.0000
  C   C29       1.0  0.7292033116310652  0.5009027180484098  0.0700337168927263  1.0000
  C   C30       1.0  0.7618768112810249  0.4695221244628516  0.9550669981054156  1.0000
  C   C31       1.0  0.8266227397847389  0.40763227803220214  0.9593805009503416  1.0000
  C   C32       1.0  0.858690681044785  0.37711695068341533  0.08056895148181265  1.0000
  C   C33       1.0  0.6607549093251383  0.5663428122897205  0.06445675946881169  1.0000
  C   C34       1.0  0.646320498932656  0.6679003341757384  0.14435305324496572  1.0000
  C   C35       1.0  0.58186576265203  0.7293832060902288  0.13890879973370773  1.0000
  C   C36       1.0  0.5311128630635864  0.690285854477749  0.05389718192025317  1.0000
  C   C37       1.0  0.5448563966209775  0.5895267080063717  0.9741396428469051  1.0000
  C   C38       1.0  0.6092526028103913  0.5278228481900107  0.9791906082205197  1.0000
  Br  Br1       1.0  0.4431082149507874  0.7744227995520485  0.04672818760269415  1.0000
  H   H19       1.0  0.851712280082468  0.3839924665436789  0.5264859102658934  1.0000
  H   H20       1.0  0.7367226987173702  0.49196028565258043  0.2793637404524152  1.0000
  H   H21       1.0  0.7371728261407733  0.4950286722620787  0.8619365130019969  1.0000
  H   H22       1.0  0.9085993939813487  0.32940834658382934  0.08468109253633149  1.0000
  H   H23       1.0  0.9490195144932597  0.29155046633925386  0.7601755767095719  1.0000
  H   H24       1.0  0.6851463892861124  0.7008699565536693  0.20975562650149704  1.0000
  H   H25       1.0  0.5714895032099917  0.8076218461989866  0.20058277986812034  1.0000
  H   H26       1.0  0.5056238808663386  0.5587158318704875  0.9084249352372664  1.0000
  H   H27       1.0  0.6184775081379699  0.4489141150112623  0.9177030496807941  1.0000
  Zn  Zn1       1.0  0.751329483276077  0.40894092324514353  0.5770356305481585  1.0000
  Zn  Zn2       1.0  0.9020970031633984  0.4064240532823393  0.578950762788716  1.0000
  C   C39       1.0  0.8266557903850905  0.4024777608701262  0.815199781776071  1.0000
  C   C40       1.0  0.8267723426784667  0.4128888267561295  0.340786759983277  1.0000
  C   C41       1.0  0.8267546247800431  0.6448727485142287  0.5728234009431761  1.0000
  C   C42       1.0  0.8266734565545968  0.17049227967796665  0.5831632093695494  1.0000
  O   O1        1.0  0.8839750835021042  0.41365829007329324  0.3899017422123894  1.0000
  O   O2        1.0  0.8838821085582296  0.39979707182641633  0.7675379667186368  1.0000
  O   O3        1.0  0.8839611469578568  0.5955341025490417  0.5718173145757688  1.0000
  O   O4        1.0  0.8838959936812621  0.21792126951250324  0.5856222963226758  1.0000
  O   O5        1.0  0.7695304413086598  0.5974437078752786  0.5703640963538259  1.0000
  O   O6        1.0  0.769451403188397  0.4017082374470127  0.7660846792829459  1.0000
  O   O7        1.0  0.7695443785543055  0.41556941064436814  0.3884468933015348  1.0000
  O   O8        1.0  0.7694652887051253  0.2198323807820417  0.5841675447840318  1.0000
