data_image0
_chemical_formula_structural       NC12NC2H8C12OCH12C16H10Zn2C4O8
_chemical_formula_sum              "N2 C47 H30 O9 Zn2"
_cell_length_a       19.240039667572717
_cell_length_b       10.29979075500242
_cell_length_c       10.299151387937775
_cell_angle_alpha    85.5809823184421
_cell_angle_beta     89.98856263563692
_cell_angle_gamma    89.9807799165636

_space_group_name_H-M_alt    "P 1"
_space_group_IT_number       1

loop_
  _space_group_symop_operation_xyz
  'x, y, z'

loop_
  _atom_site_type_symbol
  _atom_site_label
  _atom_site_symmetry_multiplicity
  _atom_site_fract_x
  _atom_site_fract_y
  _atom_site_fract_z
  _atom_site_occupancy
  N   N1        1.0  0.6543750862121349  0.4206479495391222  0.5673741240039933  1.0000
  C   C1        1.0  0.5942267173885347  0.4206480334845597  0.5673740420625506  1.0000
  C   C2        1.0  0.5194086802409923  0.4206481507103321  0.5673739047514716  1.0000
  C   C3        1.0  0.4829354848393839  0.35622787219809315  0.6707895254262533  1.0000
  C   C4        1.0  0.41026474739631846  0.35611702882165575  0.6708760734229433  1.0000
  C   C5        1.0  0.3730764453113847  0.4206482431765768  0.5673736770642119  1.0000
  C   C6        1.0  0.4102638215592853  0.48517964460133833  0.46387147523810524  1.0000
  C   C7        1.0  0.4829345207091327  0.4850685657793621  0.4639581457472315  1.0000
  C   C8        1.0  0.29587135489608535  0.42064816447441333  0.5673735816519385  1.0000
  C   C9        1.0  0.2586994071771799  0.3074059319493383  0.6092497551105591  1.0000
  C   C10       1.0  0.1860287093620771  0.3075127922505094  0.6091584242895025  1.0000
  C   C11       1.0  0.1495390679895712  0.4206480353283837  0.5673736425684921  1.0000
  C   C12       1.0  0.0747210308284547  0.42064792169351595  0.5673738912357322  1.0000
  N   N2        1.0  0.0145727139614002  0.42064788096026673  0.5673740996579546  1.0000
  C   C13       1.0  0.1859969374657171  0.5337833542107049  0.5255888079529671  1.0000
  C   C14       1.0  0.2586676242376704  0.5338903945618063  0.5254973145282342  1.0000
  H   H1        1.0  0.51065067978376  0.3063525842617858  0.7515334846505515  1.0000
  H   H2        1.0  0.38317150702061353  0.30704030511090363  0.7527355078605205  1.0000
  H   H3        1.0  0.3831705311474412  0.5342563953424289  0.38201198995060803  1.0000
  H   H4        1.0  0.5106490972163523  0.5349437535727943  0.3832144623242948  1.0000
  H   H5        1.0  0.28580535902141  0.21826436388466308  0.6404216324195535  1.0000
  H   H6        1.0  0.158326272126015  0.21927084730656077  0.6413632317004412  1.0000
  H   H7        1.0  0.15826955125683959  0.6220252746241826  0.49338401509366436  1.0000
  H   H8        1.0  0.2857481512012199  0.6230320417834374  0.49432539244383866  1.0000
  C   C15       1.0  0.8345396925567657  0.03928018659892074  0.5674130458668196  1.0000
  C   C16       1.0  0.8144069898702736  0.028170089368880102  0.6988520048230848  1.0000
  C   C17       1.0  0.804150445531938  0.9054042192077327  0.7654199734345715  1.0000
  C   C18       1.0  0.8142821309205541  0.7928877681447445  0.698786219312189  1.0000
  C   C19       1.0  0.8344148028527761  0.8020056502091164  0.56734632783488  1.0000
  C   C20       1.0  0.8444324698322316  0.9256433194013248  0.5023963868903554  1.0000
  C   C21       1.0  0.7828554207397848  0.8947044697142983  0.9044762681033354  1.0000
  C   C22       1.0  0.7321384747622813  0.8038574451096724  0.9495421365716148  1.0000
  C   C23       1.0  0.7121587652232575  0.7940607403323838  0.08028206870329291  1.0000
  C   C24       1.0  0.7424461997522536  0.8744432282086191  0.1676308229520843  1.0000
  C   C25       1.0  0.7933479776135841  0.9659001347950289  0.12443667281491266  1.0000
  C   C26       1.0  0.8131122786280389  0.9753354277063837  0.9931700374762689  1.0000
  O   O1        1.0  0.8254655788751365  0.04863576253444579  0.20830566185505162  1.0000
  C   C27       1.0  0.8105506312872321  0.04967039706608434  0.3436426784878943  1.0000
  H   H9        1.0  0.8422415290812832  0.37096509686100587  0.5173504524948891  1.0000
  H   H10       1.0  0.8057343463553601  0.11521766541492884  0.7492811071806993  1.0000
  H   H11       1.0  0.8073480249916796  0.6980092746906142  0.7501544408578038  1.0000
  H   H12       1.0  0.8599645342491574  0.9334458935417352  0.4009967833276926  1.0000
  H   H13       1.0  0.8420516885964184  0.4780285089310238  0.5172460991235588  1.0000
  H   H14       1.0  0.7072862036932315  0.7416005714505962  0.8833321671772691  1.0000
  H   H15       1.0  0.6729021090299993  0.7241048719093357  0.11396110029222573  1.0000
  H   H16       1.0  0.7259646065217478  0.8647360874249034  0.26829809168667706  1.0000
  H   H17       1.0  0.8529295591955892  0.0448657224566249  0.9610038735711819  1.0000
  H   H18       1.0  0.8225512668355132  0.9531626449583763  0.39426559700916963  1.0000
  H   H19       1.0  0.8433436611116545  0.12432716478848738  0.38585727085622523  1.0000
  H   H20       1.0  0.7550656287006922  0.07458713792588356  0.35807827087973443  1.0000
  C   C28       1.0  0.8345175452421629  0.42047418524116065  0.18600874674848167  1.0000
  C   C29       1.0  0.7674489875093303  0.47442701110841856  0.18109557497741813  1.0000
  C   C30       1.0  0.7334023604437504  0.5019561491334665  0.06144852501541176  1.0000
  C   C31       1.0  0.7673280190824726  0.47480460372809286  0.9457832077735482  1.0000
  C   C32       1.0  0.8344369191215931  0.4208116336747141  0.9487506938888872  1.0000
  C   C33       1.0  0.8676192254600157  0.39398076243247515  0.06929002878243917  1.0000
  C   C34       1.0  0.6624519489319991  0.5590320157228248  0.05729639185711233  1.0000
  C   C35       1.0  0.6447820196821239  0.6588439160347328  0.9619828906896366  1.0000
  C   C36       1.0  0.5779920439390741  0.7125245095819428  0.9582031782556322  1.0000
  C   C37       1.0  0.5279958134474404  0.6672016512053727  0.04943515481042371  1.0000
  C   C38       1.0  0.5450357349640239  0.5679480874526879  0.14458651443496673  1.0000
  C   C39       1.0  0.6118057852178499  0.5141799014458217  0.14861579948047465  1.0000
  C   C40       1.0  0.4592451027835606  0.7225119627342607  0.04541593462392135  1.0000
  C   C41       1.0  0.4016673527285372  0.7688335125511703  0.04204980932042468  1.0000
  C   C42       1.0  0.334244406126317  0.8230756325487114  0.03810811013172288  1.0000
  C   C43       1.0  0.2766759607098289  0.8693899344414691  0.03474263529668864  1.0000
  H   H21       1.0  0.860300216494224  0.3996590527706305  0.5153790125672497  1.0000
  H   H22       1.0  0.7419079185445596  0.49682129642587247  0.27039747653268353  1.0000
  H   H23       1.0  0.7409522339210496  0.49418352991686243  0.8534086243289183  1.0000
  H   H24       1.0  0.9193500872174714  0.35236200744651036  0.07236421049013742  1.0000
  H   H25       1.0  0.9609269567265656  0.3181443992212811  0.747117613611556  1.0000
  H   H26       1.0  0.682878312847631  0.6965457541247195  0.8914331775060003  1.0000
  H   H27       1.0  0.5654101195530515  0.7895733900482704  0.8843440118532264  1.0000
  H   H28       1.0  0.5066695806913126  0.5318874393003539  0.2154674925080584  1.0000
  H   H29       1.0  0.6235664779589716  0.43636938770077416  0.2220820153285088  1.0000
  H   H30       1.0  0.2261261125570556  0.9100576530150908  0.03178747790813796  1.0000
  Zn  Zn1       1.0  0.7583203498314053  0.420644465870756  0.5673816057473995  1.0000
  Zn  Zn2       1.0  0.9106274697278526  0.4206407758709274  0.5673772177973024  1.0000
  C   C44       1.0  0.8344514628500684  0.4155742246803342  0.8045765692940348  1.0000
  C   C45       1.0  0.834498019616376  0.42571265569198347  0.3301823815266529  1.0000
  C   C46       1.0  0.8344353619319337  0.6578320361207182  0.5621837774697318  1.0000
  C   C47       1.0  0.8345140688109468  0.1834532839857299  0.5725752427278437  1.0000
  O   O2        1.0  0.8922912258113396  0.427463668169658  0.37856670569168216  1.0000
  O   O3        1.0  0.8922558367096072  0.4138194316932715  0.7561885410140075  1.0000
  O   O4        1.0  0.8922420557034751  0.6094456788159583  0.5604546465510774  1.0000
  O   O5        1.0  0.8923049548541391  0.23183743029533765  0.5743005027801065  1.0000
  O   O6        1.0  0.7766428127301744  0.609447811449016  0.5604583207592619  1.0000
  O   O7        1.0  0.7766565934849256  0.4138231245948685  0.7561921458399705  1.0000
  O   O8        1.0  0.7766919828053249  0.42746731512453984  0.3785687491125258  1.0000
  O   O9        1.0  0.7767057118365124  0.2318410680045231  0.5743026435701224  1.0000
