data_image0
_chemical_formula_structural       NC11NC3H8C16H10C12NCOH11Zn2C4O8
_chemical_formula_sum              "N3 C47 H29 O9 Zn2"
_cell_length_a       17.807433833752565
_cell_length_b       10.29914801576943
_cell_length_c       10.299148425239203
_cell_angle_alpha    85.5134079146002
_cell_angle_beta     88.51012908396928
_cell_angle_gamma    90.69784511463686

_space_group_name_H-M_alt    "P 1"
_space_group_IT_number       1

loop_
  _space_group_symop_operation_xyz
  'x, y, z'

loop_
  _atom_site_type_symbol
  _atom_site_label
  _atom_site_symmetry_multiplicity
  _atom_site_fract_x
  _atom_site_fract_y
  _atom_site_fract_z
  _atom_site_occupancy
  N   N1        1.0  0.7078302060313854  0.4392079417422965  0.5339561689402086  1.0000
  C   C1        1.0  0.6569960789584867  0.4044506284218936  0.6005376208722719  1.0000
  C   C2        1.0  0.5937533009043979  0.3612153968916003  0.6833564509973928  1.0000
  C   C3        1.0  0.60545347451415  0.297608830564003  0.8061098930595589  1.0000
  C   C4        1.0  0.5441186609928234  0.2560544656247796  0.8866439374586561  1.0000
  C   C5        1.0  0.4709291881401613  0.27779310579890937  0.8450655106715954  1.0000
  C   C6        1.0  0.4582523104963702  0.3415544276751836  0.721851774742214  1.0000
  C   C7        1.0  0.3804952137420337  0.3646244545812105  0.6774919491046407  1.0000
  C   C8        1.0  0.3617282960245062  0.34780448877419445  0.5479092276005706  1.0000
  C   C9        1.0  0.2885088816789917  0.3695044159025227  0.5062867420851274  1.0000
  C   C10       1.0  0.23311347651403072  0.40834320373079924  0.5934265137306174  1.0000
  C   C11       1.0  0.15775763328193232  0.4307022167551515  0.5504423647061256  1.0000
  N   N2        1.0  0.09717690807291682  0.4486772021623  0.515886237282204  1.0000
  C   C12       1.0  0.2511889383621274  0.42537398474570365  0.7224779762125519  1.0000
  C   C13       1.0  0.3243555485585191  0.4036390187539052  0.7643559237965545  1.0000
  C   C14       1.0  0.5204444328498935  0.38310422048735626  0.6413341492323392  1.0000
  H   H1        1.0  0.6619119152859058  0.28017903403345223  0.8394850081097083  1.0000
  H   H2        1.0  0.5532958879659801  0.2065586922458711  0.9814072674688998  1.0000
  H   H3        1.0  0.4242757472452061  0.2432078290214903  0.908523383903233  1.0000
  H   H4        1.0  0.4034122923195604  0.3161884541142945  0.4792008181395955  1.0000
  H   H5        1.0  0.2750801412234427  0.3556639750662898  0.4062507522272445  1.0000
  H   H6        1.0  0.2087880622594783  0.45576710258211306  0.7906720842580199  1.0000
  H   H7        1.0  0.3372561006834678  0.4190250752652269  0.8642085092411906  1.0000
  H   H8        1.0  0.5119658404485229  0.43396236454288584  0.5468045906130385  1.0000
  C   C15       1.0  0.9024536252924992  0.06253991259715441  0.5250890577349359  1.0000
  C   C16       1.0  0.8853199454661363  0.07177783129949278  0.39240091833597157  1.0000
  C   C17       1.0  0.8766880380958886  0.9593333037646385  0.32495803636715226  1.0000
  C   C18       1.0  0.8854202927130544  0.8365286259321041  0.3919916424682022  1.0000
  C   C19       1.0  0.9025606565330635  0.8253353921989662  0.5247642304883853  1.0000
  C   C20       1.0  0.9109731290459039  0.9388550235491918  0.5904953502656916  1.0000
  C   C21       1.0  0.8585628566083521  0.9701515178237018  0.18458997850706838  1.0000
  C   C22       1.0  0.8941196724022226  0.8900668292247577  0.0977160880092387  1.0000
  C   C23       1.0  0.8770346300758205  0.9003730974878111  0.9656083042934278  1.0000
  C   C24       1.0  0.8242174052591924  0.9906608529239361  0.9185781683752925  1.0000
  C   C25       1.0  0.7885237925249646  0.07072306685682461  0.004174376925053069  1.0000
  C   C26       1.0  0.8055552673475469  0.06065675272752258  0.1363055948093923  1.0000
  C   C27       1.0  0.8066560643267776  0.001148140866305436  0.7825594692222593  1.0000
  C   C28       1.0  0.7919486305361133  0.009931144436011952  0.6686457794244993  1.0000
  C   C29       1.0  0.7747263992764696  0.020215922712496504  0.5352540091677573  1.0000
  C   C30       1.0  0.7600214339290191  0.02899760139917662  0.4213587138671815  1.0000
  H   H9        1.0  0.9090053341132708  0.3864602675530262  0.5761424881355843  1.0000
  H   H10       1.0  0.8796601912163153  0.16671721166646924  0.340749875294696  1.0000
  H   H11       1.0  0.8778213322837489  0.7494720529599428  0.34092521616945515  1.0000
  H   H12       1.0  0.9241865785802478  0.9310136352075764  0.6928420758005231  1.0000
  H   H13       1.0  0.9344469262663123  0.5968907965649435  0.7755653739379718  1.0000
  H   H14       1.0  0.9358478937404414  0.8206620312043235  0.13163164371009883  1.0000
  H   H15       1.0  0.9051512503481928  0.8381608325271417  0.9001240337789098  1.0000
  H   H16       1.0  0.7473933240564535  0.14070732743661218  0.968861090260853  1.0000
  H   H17       1.0  0.7765629886108508  0.1224582493667683  0.20102766194943156  1.0000
  H   H18       1.0  0.7471092905546478  0.03670865850911942  0.321349038294517  1.0000
  C   C31       1.0  0.9025636733237549  0.44409488663102503  0.14352772838285777  1.0000
  C   C32       1.0  0.9787917305113154  0.48151075273037125  0.13600556147890552  1.0000
  C   C33       1.0  0.017321586825117974  0.5002642550395762  0.01506515800236552  1.0000
  C   C34       1.0  0.9786333079369672  0.4811667203444636  0.9007559016986981  1.0000
  C   C35       1.0  0.9024506068279662  0.4437804334415565  0.9063254954845248  1.0000
  C   C36       1.0  0.8648627300203519  0.4254547438240748  0.028196396106362043  1.0000
  C   C37       1.0  0.09791632445398712  0.5398203801875641  0.008202387519629761  1.0000
  C   C38       1.0  0.1483904968901919  0.48367212831528295  0.9222858493728356  1.0000
  C   C39       1.0  0.22419377263158413  0.5210321088489265  0.9159787310144534  1.0000
  C   C40       1.0  0.25129753991463377  0.6139721135987037  0.9961911043062175  1.0000
  C   C41       1.0  0.2007490691726288  0.6719649311325218  0.08054191975431468  1.0000
  C   C42       1.0  0.12491185724045328  0.6347108028753281  0.08694740963188674  1.0000
  N   N3        1.0  0.3293246708399138  0.6520798537721995  0.9860192008461528  1.0000
  C   C43       1.0  0.3725433159128384  0.6898071254261187  0.09272809685632843  1.0000
  O   O1        1.0  0.3471214038900301  0.6750250925502526  0.2082740696000862  1.0000
  H   H19       1.0  0.7588063912556412  0.3727132378300726  0.3650730959002524  1.0000
  H   H20       1.0  0.008600285018329545  0.49443217760082425  0.22454340548331997  1.0000
  H   H21       1.0  0.007784295891476667  0.49726868885625697  0.8071636216971756  1.0000
  H   H22       1.0  0.8061019865077063  0.39661425192087596  0.033207419309890795  1.0000
  H   H23       1.0  0.8731508923158374  0.4293644163716597  0.5809944861855971  1.0000
  H   H24       1.0  0.12943919694600559  0.4096951879820656  0.8610233840832295  1.0000
  H   H25       1.0  0.2621473324277377  0.47641335704186116  0.8492814526377592  1.0000
  H   H26       1.0  0.2192743473217793  0.7480962321463813  0.13941664070445325  1.0000
  H   H27       1.0  0.08704731932091092  0.6819981998802787  0.1517468641332147  1.0000
  H   H28       1.0  0.35821770939921427  0.6438424802580396  0.897498920324395  1.0000
  H   H29       1.0  0.428958157204266  0.7282221049904314  0.07427042028946218  1.0000
  Zn  Zn1       1.0  0.8201872520906701  0.4419370877195894  0.5287490635829653  1.0000
  Zn  Zn2       1.0  0.9848198441936122  0.4459374312869575  0.5211039340083952  1.0000
  C   C44       1.0  0.9024695832832547  0.43866569214698226  0.7621426949158361  1.0000
  C   C45       1.0  0.9025393109948796  0.4492105092555534  0.2877103459695134  1.0000
  C   C46       1.0  0.902537331746554  0.6811528598720697  0.5196502081959564  1.0000
  C   C47       1.0  0.9024715061247525  0.20672177969592065  0.5302029052067674  1.0000
  O   O2        1.0  0.9650083446927449  0.4524398022320735  0.3331980651385569  1.0000
  O   O3        1.0  0.964952877570569  0.43847158772117734  0.7108521258377956  1.0000
  O   O4        1.0  0.9650067428886343  0.6342830213064088  0.515037765673086  1.0000
  O   O5        1.0  0.964954423212465  0.25662837661298665  0.5290123305257504  1.0000
  O   O6        1.0  0.8400526168907948  0.6312461410298562  0.5208406696676855  1.0000
  O   O7        1.0  0.8399987517985348  0.4354362679154655  0.7166549599170964  1.0000
  O   O8        1.0  0.8400542191957651  0.44940443781131756  0.3389993377113536  1.0000
  O   O9        1.0  0.8400002976966772  0.25359300286238207  0.5348137004781388  1.0000
