data_image0
_chemical_formula_structural       NC12NC2H8C16H10C13F3H9Zn2C4O8
_chemical_formula_sum              "N2 C47 H27 F3 Zn2 O8"
_cell_length_a       17.80743265337812
_cell_length_b       10.29914801576943
_cell_length_c       10.2985328690268
_cell_angle_alpha    85.55501211268866
_cell_angle_beta     91.53993439614001
_cell_angle_gamma    89.44985071264975

_space_group_name_H-M_alt    "P 1"
_space_group_IT_number       1

loop_
  _space_group_symop_operation_xyz
  'x, y, z'

loop_
  _atom_site_type_symbol
  _atom_site_label
  _atom_site_symmetry_multiplicity
  _atom_site_fract_x
  _atom_site_fract_y
  _atom_site_fract_z
  _atom_site_occupancy
  N   N1        1.0  0.7075296701237375  0.4063156211324428  0.6006976287586332  1.0000
  C   C1        1.0  0.6567096053928833  0.43585307165738896  0.5319831381308928  1.0000
  C   C2        1.0  0.5934844303360185  0.47259551732391625  0.4465109611610325  1.0000
  C   C3        1.0  0.6052105821121848  0.5265768139434783  0.31986235365123306  1.0000
  C   C4        1.0  0.5438927035787329  0.5618163750765195  0.23678689224278737  1.0000
  C   C5        1.0  0.4706943649041896  0.5433378973047704  0.2796999928481969  1.0000
  C   C6        1.0  0.4579914531466073  0.4892379500839439  0.4068168181250269  1.0000
  C   C7        1.0  0.5201666471736901  0.45400163739998267  0.4898757655551227  1.0000
  C   C8        1.0  0.38022493497569826  0.46964624411300115  0.4525908226781128  1.0000
  C   C9        1.0  0.3614511947131653  0.4968789809551888  0.5796325545400414  1.0000
  C   C10       1.0  0.28822291848147685  0.4784420940273928  0.6225862044703159  1.0000
  C   C11       1.0  0.23282543388291743  0.4325184687290522  0.5393362417582384  1.0000
  C   C12       1.0  0.1574605698381854  0.4135291974818689  0.5836911206322126  1.0000
  N   N2        1.0  0.0968725561744649  0.39826310049413816  0.6193493919388486  1.0000
  C   C13       1.0  0.2509076940917906  0.4051169942318713  0.4128375787264136  1.0000
  C   C14       1.0  0.3240831000914881  0.423568578838742  0.36962802010150364  1.0000
  H   H1        1.0  0.6616759776498824  0.5413898244948405  0.28541746614962826  1.0000
  H   H2        1.0  0.5530899835015394  0.6038828972125023  0.13898541048626112  1.0000
  H   H3        1.0  0.4240546712820257  0.5729530443601141  0.21409361210196587  1.0000
  H   H4        1.0  0.5116675555148549  0.41054964869366706  0.587553331750895  1.0000
  H   H5        1.0  0.4031370260465203  0.5340841530490683  0.6451953186146491  1.0000
  H   H6        1.0  0.27478909670037305  0.5003235706082612  0.7205927197623845  1.0000
  H   H7        1.0  0.2085051821072587  0.3691793528334193  0.3476873029244254  1.0000
  H   H8        1.0  0.3369883413353804  0.40015153346172916  0.271925455328075  1.0000
  C   C15       1.0  0.9021512219265291  0.020889081147727362  0.6101866619332192  1.0000
  C   C16       1.0  0.8849903625197343  0.030801402705517456  0.47588082527020803  1.0000
  C   C17       1.0  0.8763446402606361  0.9186962069221558  0.40762294360884854  1.0000
  C   C18       1.0  0.8850906258913632  0.7955473884052424  0.47548100857957687  1.0000
  C   C19       1.0  0.9022581865911985  0.7836795123962307  0.6098719253608229  1.0000
  C   C20       1.0  0.9106841233584325  0.896868440246263  0.6763973264620202  1.0000
  C   C21       1.0  0.8581907060530565  0.9302278495236694  0.26554357462834854  1.0000
  C   C22       1.0  0.8937297145501831  0.8484812831077686  0.18202217397810228  1.0000
  C   C23       1.0  0.8766176115291489  0.8594601873006564  0.04830128778201903  1.0000
  C   C24       1.0  0.8237907653609919  0.9520890418405445  0.9962889964508057  1.0000
  C   C25       1.0  0.7881146981982602  0.033818360012171755  0.07851979650083529  1.0000
  C   C26       1.0  0.8051732385304667  0.023081835819254826  0.212259064850713  1.0000
  C   C27       1.0  0.806201562622134  0.9632675524184867  0.8586122216499907  1.0000
  C   C28       1.0  0.7914707949722734  0.972629447862611  0.7433099113710462  1.0000
  C   C29       1.0  0.7742212400012183  0.9835921015528336  0.6082920829294345  1.0000
  C   C30       1.0  0.7594929445624403  0.9929525744302236  0.4930084001994821  1.0000
  H   H9        1.0  0.9087133884433277  0.34455178092523586  0.6618586839530047  1.0000
  H   H10       1.0  0.8793200279069314  0.12595789486097209  0.4236953092392133  1.0000
  H   H11       1.0  0.87748120537709  0.7087955554295889  0.4236972170737918  1.0000
  H   H12       1.0  0.9239185373976049  0.8885069671855444  0.7799916161705063  1.0000
  H   H13       1.0  0.9341958300732853  0.5539826323736337  0.8636836994452988  1.0000
  H   H14       1.0  0.9354648733290273  0.7772245542395066  0.2198738374027518  1.0000
  H   H15       1.0  0.9047208085778414  0.7959361148605316  0.9854680462702703  1.0000
  H   H16       1.0  0.7469770057773484  0.10562665869554833  0.03932676230746712  1.0000
  H   H17       1.0  0.776194227092215  0.08623396577570785  0.27424750389838626  1.0000
  H   H18       1.0  0.746560315400133  0.0011718591177865  0.39177960868834116  1.0000
  C   C31       1.0  0.9021830987785813  0.402162794276796  0.22863081361529325  1.0000
  C   C32       1.0  0.9775087855077861  0.35971006822819285  0.23446960020899654  1.0000
  C   C33       1.0  0.015676891878230848  0.33831763009533655  0.12025725275162547  1.0000
  C   C34       1.0  0.9775531727193033  0.3599647885723034  0.9991709428803737  1.0000
  C   C35       1.0  0.9022263137037632  0.40240583304427036  0.9914277558125342  1.0000
  C   C36       1.0  0.8650223260603895  0.4232286337592992  0.1066782178194885  1.0000
  C   C37       1.0  0.09531408198208835  0.29344716340602073  0.12736467364040838  1.0000
  C   C38       1.0  0.14719565603169205  0.3469792032466268  0.0382855317623394  1.0000
  C   C39       1.0  0.2221449428349116  0.3048522075148761  0.04499601172206513  1.0000
  C   C40       1.0  0.24657632871044677  0.2069426041433413  0.13967876777601274  1.0000
  C   C41       1.0  0.19512987908169932  0.1552207637167966  0.23035531858882918  1.0000
  C   C42       1.0  0.1201854872384549  0.19738071597314777  0.22375598024281151  1.0000
  C   C43       1.0  0.32802289293022047  0.16496815341333493  0.14988094137797425  1.0000
  F   F1        1.0  0.36656168078059914  0.24349234789548602  0.23117858468597086  1.0000
  F   F2        1.0  0.36001869115846796  0.17548051885786076  0.028551825606801362  1.0000
  F   F3        1.0  0.33496232462078224  0.03669269731287694  0.200153203433016  1.0000
  H   H19       1.0  0.7599888712771569  0.4831982895749214  0.42486612888461206  1.0000
  H   H20       1.0  0.006926965446346189  0.34494089436073794  0.3279638400473526  1.0000
  H   H21       1.0  0.0064028178334933905  0.34198512226544264  0.9109296154994655  1.0000
  H   H22       1.0  0.8069670839891914  0.4559425446194003  0.10144501582254706  1.0000
  H   H23       1.0  0.7597481028654497  0.4818635325251488  0.7695208851133604  1.0000
  H   H24       1.0  0.13008669373167625  0.4231037093061003  0.9647048536078979  1.0000
  H   H25       1.0  0.261100033738503  0.3492766356487378  0.9763579292672246  1.0000
  H   H26       1.0  0.21283986614415906  0.08197560680108285  0.30640645460299765  1.0000
  H   H27       1.0  0.08150111706661223  0.1539047960105684  0.29342630865584174  1.0000
  Zn  Zn1       1.0  0.8198856200453626  0.4039883724410276  0.6060876136556006  1.0000
  Zn  Zn2       1.0  0.9845166028734195  0.4005797582320476  0.6139700052854868  1.0000
  C   C44       1.0  0.9022157455147988  0.3971858082511588  0.8472448474281893  1.0000
  C   C45       1.0  0.9021882754062351  0.40738392399463375  0.3728129843884702  1.0000
  C   C46       1.0  0.9022338140919083  0.6394943255906598  0.6047556374972196  1.0000
  C   C47       1.0  0.9021701504371693  0.16507384740968  0.6153022615176333  1.0000
  O   O1        1.0  0.9646666119368156  0.4078369652889746  0.4241931669026011  1.0000
  O   O2        1.0  0.9646885154904851  0.39414472772014486  0.8018468443043238  1.0000
  O   O3        1.0  0.9647022639570734  0.5898119377491788  0.6060350507513115  1.0000
  O   O4        1.0  0.9646528072886104  0.21216976568302992  0.6200048603798405  1.0000
  O   O5        1.0  0.839749359449697  0.5923983661546497  0.6000527558645412  1.0000
  O   O6        1.0  0.8397356111945903  0.3967327165356733  0.7958644795226546  1.0000
  O   O7        1.0  0.8397137075960666  0.4104249083463063  0.4182092406203237  1.0000
  O   O8        1.0  0.8396999029490031  0.21475769948187762  0.614021031476631  1.0000
