data_image0
_chemical_formula_structural       NC12NC2H8C13OH12C13OH12Zn2C4O8
_chemical_formula_sum              "N2 C44 H32 O10 Zn2"
_cell_length_a       17.80743265337812
_cell_length_b       10.299150109392551
_cell_length_c       10.299153481560891
_cell_angle_alpha    85.56204594622189
_cell_angle_beta     91.5511256746575
_cell_angle_gamma    89.41750150667457

_space_group_name_H-M_alt    "P 1"
_space_group_IT_number       1

loop_
  _space_group_symop_operation_xyz
  'x, y, z'

loop_
  _atom_site_type_symbol
  _atom_site_label
  _atom_site_symmetry_multiplicity
  _atom_site_fract_x
  _atom_site_fract_y
  _atom_site_fract_z
  _atom_site_occupancy
  N   N1        1.0  0.7069138573774247  0.4062284955005919  0.6008386315622192  1.0000
  C   C1        1.0  0.6560764326966078  0.4357615796085017  0.5321294620713117  1.0000
  C   C2        1.0  0.5928296635337839  0.472498594005363  0.44666390398976863  1.0000
  C   C3        1.0  0.6045239687308999  0.5264718417992384  0.32002508529886864  1.0000
  C   C4        1.0  0.5431852556308833  0.5617061229078806  0.23695603801093257  1.0000
  C   C5        1.0  0.46999776888631833  0.5432303719496874  0.2798658142006132  1.0000
  C   C6        1.0  0.45732679507254037  0.4891385034911031  0.406972817751438  1.0000
  C   C7        1.0  0.519522820748925  0.45390746977359653  0.4900253521836748  1.0000
  C   C8        1.0  0.3795718136215854  0.4695497063875065  0.4527432810724914  1.0000
  C   C9        1.0  0.3608034959769997  0.4967906982552579  0.5797784945526341  1.0000
  C   C10       1.0  0.2875860626841871  0.4783565408491226  0.6227288193209992  1.0000
  C   C11       1.0  0.2321941755137736  0.4324274435412496  0.5394819892365363  1.0000
  C   C12       1.0  0.1568404921354763  0.4134409909671113  0.5838334364654894  1.0000
  N   N2        1.0  0.09626146696794502  0.3981771599985382  0.6194889489644162  1.0000
  C   C13       1.0  0.2502711292173015  0.4050177486715365  0.41298980515655015  1.0000
  C   C14       1.0  0.32343565868672447  0.42346658728297326  0.3697835876450779  1.0000
  H   H1        1.0  0.6609806599970217  0.5412826635876395  0.28558286542071265  1.0000
  H   H2        1.0  0.5523578186895169  0.6037664303706023  0.1391621308865294  1.0000
  H   H3        1.0  0.42334103979557497  0.5728413532388281  0.21426457124539655  1.0000
  H   H4        1.0  0.5110488835411173  0.4104616846627225  0.5876952949884167  1.0000
  H   H5        1.0  0.40248458067398324  0.5340001820936575  0.645338833672946  1.0000
  H   H6        1.0  0.2741561397554703  0.5002443877239686  0.7207303413970274  1.0000
  H   H7        1.0  0.2078729971958968  0.36907582495715086  0.3478419809689641  1.0000
  H   H8        1.0  0.33633753573874303  0.400043187797938  0.2720859355672427  1.0000
  C   C15       1.0  0.9016620902550668  0.020801709327232576  0.6103114625345798  1.0000
  C   C16       1.0  0.9003013780630291  0.00907693390904818  0.7470577870178621  1.0000
  C   C17       1.0  0.8995460546048284  0.8859988777929467  0.8161242467896057  1.0000
  C   C18       1.0  0.9001564699893092  0.7738244495336322  0.7466874486798942  1.0000
  C   C19       1.0  0.9015204293896292  0.7835937839920665  0.6100276792030581  1.0000
  C   C20       1.0  0.9022673349025766  0.9075432504849422  0.5426384142168423  1.0000
  C   C21       1.0  0.8981000098198739  0.8745772472022703  0.96069591580467  1.0000
  C   C22       1.0  0.8519156188720919  0.7826775420796794  0.026505417577603496  1.0000
  C   C23       1.0  0.8505300022711801  0.7720117231081668  0.16254602137487528  1.0000
  C   C24       1.0  0.8957964798648788  0.8520782215667583  0.2352600387319398  1.0000
  C   C25       1.0  0.9412622214894116  0.9449466630052402  0.17005868793165546  1.0000
  C   C26       1.0  0.9426652771160791  0.9557879182788117  0.0340186307722804  1.0000
  C   C27       1.0  0.8927278524047554  0.8430039663214896  0.38120014630445775  1.0000
  O   O1        1.0  0.8365833854905778  0.9273554650948829  0.41875163546804417  1.0000
  H   H9        1.0  0.9037424128165729  0.2502357014390777  0.3521729870227992  1.0000
  H   H10       1.0  0.8987843255858315  0.09590021799721571  0.7999939960262821  1.0000
  H   H11       1.0  0.9005940380043459  0.6787112739669284  0.7995422229935929  1.0000
  H   H12       1.0  0.9033172717688903  0.9157948830023263  0.4372285430048597  1.0000
  H   H13       1.0  0.9019944901747907  0.45987699030627593  0.5574611167681836  1.0000
  H   H14       1.0  0.815978443238829  0.7203939986365747  0.9726749894416129  1.0000
  H   H15       1.0  0.8139928879253133  0.7014551004693679  0.21117169149292392  1.0000
  H   H16       1.0  0.9758156884124133  0.008812048786251081  0.2245690445387586  1.0000
  H   H17       1.0  0.9792276993625828  0.026789729987835242  0.9862008207715527  1.0000
  H   H18       1.0  0.9479959169006293  0.8697041749748042  0.4240177946164533  1.0000
  H   H19       1.0  0.8805253092604477  0.7412481007728345  0.41842842433899885  1.0000
  H   H20       1.0  0.8368779778800198  0.9177055935474423  0.5153929752520789  1.0000
  C   C28       1.0  0.9015267650892126  0.402051660521211  0.228793973256735  1.0000
  C   C29       1.0  0.8238588894228037  0.37927561905798735  0.22575391402161116  1.0000
  C   C30       1.0  0.7846158809034608  0.3678876494084855  0.10705144931322907  1.0000
  C   C31       1.0  0.824036080030137  0.3795892788072843  0.9904543188435011  1.0000
  C   C32       1.0  0.9016557701245166  0.40234388073127025  0.9915451306973333  1.0000
  C   C33       1.0  0.939947887751987  0.41343859957078477  0.11122677126937441  1.0000
  C   C34       1.0  0.702501779696713  0.34382084913240907  0.10481042485129843  1.0000
  C   C35       1.0  0.6549752003680689  0.4100455375481098  0.009842515648257777  1.0000
  C   C36       1.0  0.5777009756068227  0.387441204310325  0.0078115178374189576  1.0000
  C   C37       1.0  0.5466528584692847  0.297363885178624  0.0998172246032345  1.0000
  C   C38       1.0  0.5936752428104076  0.23224598892282589  0.1956791143122607  1.0000
  C   C39       1.0  0.6709530370558832  0.25482059863087536  0.19788844353413215  1.0000
  C   C40       1.0  0.4634028929642908  0.2757969023194966  0.09975430032013954  1.0000
  O   O2        1.0  0.42964313587214437  0.36408995102535147  0.17761252719464826  1.0000
  H   H21       1.0  0.04803303112144608  0.44587424685542176  0.4417557192470434  1.0000
  H   H22       1.0  0.793571891972458  0.3721376082888783  0.3157815268211053  1.0000
  H   H23       1.0  0.7942308460387814  0.36915248396707434  0.8988515036229718  1.0000
  H   H24       1.0  0.9998178701507011  0.43099355923490124  0.11278394698656524  1.0000
  H   H25       1.0  0.9315010779125841  0.41118222953056693  0.6644821352860384  1.0000
  H   H26       1.0  0.677419322191556  0.48084321498140503  0.9383340721766831  1.0000
  H   H27       1.0  0.5420465668248978  0.4404629119153216  0.9346038014178975  1.0000
  H   H28       1.0  0.5705379625153743  0.16366921478695073  0.26859343366156385  1.0000
  H   H29       1.0  0.7061559714942707  0.20160771106939102  0.2715978200189182  1.0000
  H   H30       1.0  0.4514981566912477  0.1742476787215428  0.13803990454487503  1.0000
  H   H31       1.0  0.4396208626456611  0.2896550195235401  0.9984793936953613  1.0000
  H   H32       1.0  0.3750337316603143  0.3458640989746409  0.17430031043116379  1.0000
  Zn  Zn1       1.0  0.8192711723827709  0.40390158928923103  0.6062281986489717  1.0000
  Zn  Zn2       1.0  0.9839041532276247  0.4004934759164134  0.6141099790557711  1.0000
  C   C41       1.0  0.9016306559713576  0.39711456496080655  0.8473706862557127  1.0000
  C   C42       1.0  0.9015464671432848  0.40728210183485203  0.3729677043767885  1.0000
  C   C43       1.0  0.9015424635310894  0.6394079809355377  0.6049058544908341  1.0000
  C   C44       1.0  0.9016346037073278  0.16498712661553072  0.6154326032725859  1.0000
  O   O3        1.0  0.9640304386235425  0.4077384582380541  0.4243448222802986  1.0000
  O   O4        1.0  0.9640993077232152  0.3940705494177188  0.8019752838209528  1.0000
  O   O5        1.0  0.9640272492160465  0.5897255649882649  0.6061831758674738  1.0000
  O   O6        1.0  0.9641024409344341  0.21208345308416532  0.6201368301644314  1.0000
  O   O7        1.0  0.8390728284948036  0.5923116132859119  0.6002013448438148  1.0000
  O   O8        1.0  0.8391448866970391  0.3966581581243891  0.7959933829698786  1.0000
  O   O9        1.0  0.8390760173916856  0.4103260210857067  0.4183613600204552  1.0000
  O   O10       1.0  0.8391480197176964  0.21467100667959427  0.6141534652774381  1.0000
