data_image0
_chemical_formula_structural       NC10NC3NCH9C12ClH9C15H12Zn2C4O8
_chemical_formula_sum              "N3 C45 H30 Cl1 Zn2 O8"
_cell_length_a       19.437513618241372
_cell_length_b       10.299768534541528
_cell_length_c       10.299157797200024
_cell_angle_alpha    85.54593967103355
_cell_angle_beta     90.36969697792763
_cell_angle_gamma    89.54057453160664

_space_group_name_H-M_alt    "P 1"
_space_group_IT_number       1

loop_
  _space_group_symop_operation_xyz
  'x, y, z'

loop_
  _atom_site_type_symbol
  _atom_site_label
  _atom_site_symmetry_multiplicity
  _atom_site_fract_x
  _atom_site_fract_y
  _atom_site_fract_z
  _atom_site_occupancy
  N   N1        1.0  0.6477868874760447  0.4108728341236145  0.5756955706502449  1.0000
  C   C1        1.0  0.5888557212885981  0.42788356498820157  0.5727212744741228  1.0000
  C   C2        1.0  0.5154179659440034  0.4491369072495697  0.5690294086607528  1.0000
  C   C3        1.0  0.473635316853646  0.3479530830883961  0.5573580391710851  1.0000
  C   C4        1.0  0.3977452742135574  0.3580201731608075  0.5501373582524602  1.0000
  C   C5        1.0  0.3582013130246915  0.43884396528262903  0.6158931245213006  1.0000
  C   C6        1.0  0.2820154935340465  0.43023885167086284  0.6074475184558954  1.0000
  C   C7        1.0  0.2488600443420257  0.30889503734533563  0.612077595583959  1.0000
  C   C8        1.0  0.1771224637843374  0.3025259383547809  0.6049083658486598  1.0000
  C   C9        1.0  0.1375697167528378  0.4170278501397553  0.5934712608644181  1.0000
  C   C10       1.0  0.0637175624219664  0.41032063765183624  0.5861338911254956  1.0000
  N   N2        1.0  0.0043455285864276  0.4049286287023639  0.5802351043563931  1.0000
  C   C11       1.0  0.1700087057367998  0.5380608342578208  0.5895864726049334  1.0000
  C   C12       1.0  0.2417307505195185  0.5446838970958374  0.5968177561890968  1.0000
  C   C13       1.0  0.3869240153766067  0.5310946956822171  0.7058291465748194  1.0000
  N   N3        1.0  0.4439149256060059  0.5943132495172856  0.6854307344276833  1.0000
  C   C14       1.0  0.4877248308128914  0.5850932302546892  0.5723149320695293  1.0000
  H   H1        1.0  0.4959995159216903  0.25290326991111156  0.5452254077615735  1.0000
  H   H2        1.0  0.3730038330047376  0.2885305773899962  0.49180771833128545  1.0000
  H   H3        1.0  0.278297449219757  0.21898113489462  0.6230890656057935  1.0000
  H   H4        1.0  0.1525133696063748  0.20830030358073648  0.6087852223193002  1.0000
  H   H5        1.0  0.1398865009403406  0.6273190033708516  0.5808872241796801  1.0000
  H   H6        1.0  0.2658583913831981  0.6393223281734404  0.5929254852181387  1.0000
  H   H7        1.0  0.35694618287651964  0.5514491938399244  0.7902034553465611  1.0000
  H   H8        1.0  0.5304912655783779  0.6554020568670031  0.5780865811370668  1.0000
  H   H9        1.0  0.45803923980290473  0.6132343122104951  0.4816667386039404  1.0000
  C   C15       1.0  0.826004615078701  0.02653633790196075  0.5779624497743214  1.0000
  C   C16       1.0  0.8305074459154056  0.03606618733513933  0.44154290374381633  1.0000
  C   C17       1.0  0.8328552099589805  0.9237545657988376  0.37242626623580044  1.0000
  C   C18       1.0  0.8306388517965105  0.8007762747383441  0.44156006760999666  1.0000
  C   C19       1.0  0.8261344024299693  0.7892549232683066  0.5779795309806943  1.0000
  C   C20       1.0  0.8238430159097072  0.9026918597222532  0.6454167785963871  1.0000
  C   C21       1.0  0.8376197443872665  0.9348900046101691  0.22810577067129478  1.0000
  C   C22       1.0  0.7984636769480086  0.029104261194880188  0.153139110871384  1.0000
  C   C23       1.0  0.8030094946103313  0.039388434358194724  0.01730932474448088  1.0000
  C   C24       1.0  0.8466445863422097  0.9559820854555907  0.9547533916724515  1.0000
  C   C25       1.0  0.885789063583188  0.8620807008217689  0.02820859537821163  1.0000
  C   C26       1.0  0.8813654279622629  0.8514022352881115  0.16405458119529293  1.0000
  Cl  Cl1       1.0  0.8522713302376521  0.9691324317960199  0.7843301024107201  1.0000
  H   H10       1.0  0.8242535130067437  0.3503593359095787  0.6299413094821043  1.0000
  H   H11       1.0  0.8331489697632868  0.13104967287318625  0.3888408738793452  1.0000
  H   H12       1.0  0.831484855932269  0.7139435996243083  0.3886216101735718  1.0000
  H   H13       1.0  0.8203685924181056  0.8945718424701568  0.7506581697107009  1.0000
  H   H14       1.0  0.8244453908942908  0.457410545064578  0.6299669826371705  1.0000
  H   H15       1.0  0.7636871730670289  0.09364651415103031  0.19944253902744125  1.0000
  H   H16       1.0  0.772450887523989  0.11202792709323384  0.9608052371720808  1.0000
  H   H17       1.0  0.9197979326296034  0.7975051156976755  0.9802058176313486  1.0000
  H   H18       1.0  0.9127967648118005  0.7790419316023047  0.21907538783762037  1.0000
  C   C27       1.0  0.8259897543686634  0.4080032313243116  0.19657797282488043  1.0000
  C   C28       1.0  0.7543257841299075  0.3912187622119059  0.19584037033731683  1.0000
  C   C29       1.0  0.7181373309142532  0.382597102407191  0.07832593528630816  1.0000
  C   C30       1.0  0.7545301681712563  0.39100662512396145  0.9605756736133428  1.0000
  C   C31       1.0  0.8261492315526799  0.4077880482058691  0.9593640210596357  1.0000
  C   C32       1.0  0.8614608142915088  0.41618259670657487  0.07789013137089085  1.0000
  C   C33       1.0  0.6423724665356596  0.36485751574511305  0.07859242283553414  1.0000
  C   C34       1.0  0.6114002348273918  0.2783956875273377  0.9970892889088603  1.0000
  C   C35       1.0  0.5401023390007191  0.261795040932868  0.9973723260639389  1.0000
  C   C36       1.0  0.49850666550753514  0.33066832600940055  0.079674212631758  1.0000
  C   C37       1.0  0.5291108417379526  0.41798182896646874  0.16019596245632317  1.0000
  C   C38       1.0  0.6004080445898055  0.4345866854288427  0.16006086729103353  1.0000
  C   C39       1.0  0.4216990705426478  0.31513380699077054  0.07763302802930805  1.0000
  C   C40       1.0  0.39077314958431236  0.4094158944480315  0.9798302881840066  1.0000
  C   C41       1.0  0.3653566597080933  0.48694375987951166  0.8994095596084333  1.0000
  H   H19       1.0  0.9613063424819085  0.43888742882888954  0.40532549889896985  1.0000
  H   H20       1.0  0.7266510715951914  0.38305535848511174  0.2870255849688912  1.0000
  H   H21       1.0  0.7267570245839838  0.3862316559366201  0.8695896655803059  1.0000
  H   H22       1.0  0.9167027647762616  0.4291228350226819  0.0776712808116562  1.0000
  H   H23       1.0  0.853699141854246  0.4142012625837066  0.6314256495440542  1.0000
  H   H24       1.0  0.6423978873406079  0.22251386358806968  0.9341107226690109  1.0000
  H   H25       1.0  0.5173125199592711  0.19501993442160903  0.9335216804503772  1.0000
  H   H26       1.0  0.4977113551056648  0.47356117641554074  0.22282440714845753  1.0000
  H   H27       1.0  0.622637065031842  0.5034783482036564  0.2222631748959052  1.0000
  H   H28       1.0  0.4079508947366134  0.2151237935595922  0.05401070326029034  1.0000
  H   H29       1.0  0.3998011440847949  0.33094365468694287  0.1745758628302727  1.0000
  H   H30       1.0  0.343062439635979  0.5550102449669125  0.8288077440237673  1.0000
  Zn  Zn1       1.0  0.7506820156951288  0.40915397354903993  0.5770130913695259  1.0000
  Zn  Zn2       1.0  0.9014504069929125  0.40663681684714725  0.5789282539450018  1.0000
  C   C42       1.0  0.8261166906383445  0.40265515255467466  0.8151810150210237  1.0000
  C   C43       1.0  0.826017378741313  0.41313724891806314  0.3407604787183287  1.0000
  C   C44       1.0  0.8261052405789944  0.6450864294852143  0.5728007950445351  1.0000
  C   C45       1.0  0.826028777102938  0.1707044125431989  0.583140767249281  1.0000
  O   O1        1.0  0.8832424675305178  0.4138993585993149  0.3898762389088444  1.0000
  O   O2        1.0  0.8833213220561711  0.3999815995745235  0.7675184450197652  1.0000
  O   O3        1.0  0.8833113049742237  0.5957479341541623  0.5717946927411275  1.0000
  O   O4        1.0  0.8832524331466441  0.21813303419618868  0.5855998931533479  1.0000
  O   O5        1.0  0.7688799380915433  0.5976577570603965  0.5703414515007974  1.0000
  O   O6        1.0  0.7688899554213618  0.4018929827854796  0.7660651345645906  1.0000
  O   O7        1.0  0.768811100607251  0.4158106969945383  0.3884213669537735  1.0000
  O   O8        1.0  0.7688210662393444  0.22004436327529708  0.5841451185720292  1.0000
