data_image0
_chemical_formula_structural       NC12NC2H8C16H10C12OCH12Zn2C4O8
_chemical_formula_sum              "N2 C47 H30 O9 Zn2"
_cell_length_a       17.80743265337812
_cell_length_b       10.29914801576943
_cell_length_c       10.299794127170987
_cell_angle_alpha    85.55374609457252
_cell_angle_beta     91.52773436804358
_cell_angle_gamma    89.44985071264975

_space_group_name_H-M_alt    "P 1"
_space_group_IT_number       1

loop_
  _space_group_symop_operation_xyz
  'x, y, z'

loop_
  _atom_site_type_symbol
  _atom_site_label
  _atom_site_symmetry_multiplicity
  _atom_site_fract_x
  _atom_site_fract_y
  _atom_site_fract_z
  _atom_site_occupancy
  N   N1        1.0  0.7077018608804491  0.4063431343864874  0.6008748160882795  1.0000
  C   C1        1.0  0.6568902517917645  0.43588193598413616  0.5321690264656631  1.0000
  C   C2        1.0  0.5936755944894125  0.47262606221504133  0.44670767245094645  1.0000
  C   C3        1.0  0.6054173309740819  0.5266098490149853  0.3200751018814323  1.0000
  C   C4        1.0  0.5441096752679887  0.5618510435878896  0.23701015994287977  1.0000
  C   C5        1.0  0.4709060559340129  0.5433717220535181  0.27991782665647347  1.0000
  C   C6        1.0  0.45818750185152285  0.4892692754461554  0.40701855570472056  1.0000
  C   C7        1.0  0.5203524750833696  0.45403132964702975  0.49006698575601293  1.0000
  C   C8        1.0  0.38041535097345647  0.46967666946114717  0.4527867641026646  1.0000
  C   C9        1.0  0.3616259776266146  0.49690690839329377  0.5798124092447496  1.0000
  C   C10       1.0  0.2883924157457077  0.4784691769055891  0.6227606201486309  1.0000
  C   C11       1.0  0.23300517544771554  0.4325471884781782  0.5395211990027573  1.0000
  C   C12       1.0  0.1576348533259345  0.41355704511995217  0.5838704614190555  1.0000
  N   N2        1.0  0.09704245174374432  0.39829024701493787  0.619524217480093  1.0000
  C   C13       1.0  0.2511030019137167  0.40514820121315265  0.41303855392442634  1.0000
  C   C14       1.0  0.3242837250534045  0.4236006354116397  0.36983446673047027  1.0000
  H   H1        1.0  0.661886965117649  0.5414235368259301  0.28563457598012265  1.0000
  H   H2        1.0  0.5533189901244147  0.6039194887085464  0.13922106234559184  1.0000
  H   H3        1.0  0.4242744354864377  0.5729881590695287  0.2143197533494714  1.0000
  H   H4        1.0  0.5118413637393093  0.4105774203924837  0.5877321834834144  1.0000
  H   H5        1.0  0.4033037411526177  0.534110791384103  0.6453668714031104  1.0000
  H   H6        1.0  0.27494653380064094  0.5003487264703896  0.7207547253189921  1.0000
  H   H7        1.0  0.2087085069779089  0.3692118408073768  0.3478965278071613  1.0000
  H   H8        1.0  0.33720098905871476  0.4001855110743826  0.2721442735908699  1.0000
  C   C15       1.0  0.9023222450129528  0.020916407827243022  0.6103626477095172  1.0000
  C   C16       1.0  0.8851779125728242  0.030831370122788915  0.4760738175870818  1.0000
  C   C17       1.0  0.8765405897680086  0.9187275164342293  0.40782457911251857  1.0000
  C   C18       1.0  0.8852782251437827  0.7955773636837583  0.4756740515234299  1.0000
  C   C19       1.0  0.9024292484074415  0.7837068452641349  0.6100479509907892  1.0000
  C   C20       1.0  0.9108469989102976  0.8968944650836099  0.6765649282813675  1.0000
  C   C21       1.0  0.8584041390969115  0.93026195261764  0.26576320099982853  1.0000
  C   C22       1.0  0.8939534252963244  0.8485170284097148  0.18225237628674473  1.0000
  C   C23       1.0  0.8768577772610424  0.8594985618389911  0.04854842256160574  1.0000
  C   C24       1.0  0.8240373314506545  0.9521284390509009  0.9965427173115708  1.0000
  C   C25       1.0  0.7883511454001277  0.03385614039049889  0.0787631048473536  1.0000
  C   C26       1.0  0.8053932284845711  0.023116986599761802  0.21248543839863765  1.0000
  C   C27       1.0  0.8064650704883  0.963309656646396  0.858883375897979  1.0000
  C   C28       1.0  0.7917484913315523  0.9726738191786205  0.7435956658290261  1.0000
  C   C29       1.0  0.7745155509411104  0.9836391276058684  0.6085949340842882  1.0000
  C   C30       1.0  0.7598014417032376  0.9930018672051015  0.4933258492056041  1.0000
  H   H9        1.0  0.9088780530437263  0.3445780916231467  0.6620281267348891  1.0000
  H   H10       1.0  0.8795139996339068  0.12598888835623034  0.42389490957192555  1.0000
  H   H11       1.0  0.8776751768692971  0.708826548887335  0.42389681716492333  1.0000
  H   H12       1.0  0.9240686651835097  0.8885309551393207  0.7801461003135475  1.0000
  H   H13       1.0  0.9343356591536024  0.5540049747634518  0.8638275860384088  1.0000
  H   H14       1.0  0.9356839262494533  0.7772595552974259  0.22009924672647352  1.0000
  H   H15       1.0  0.9049687062364613  0.7959757248337314  0.9857231373390087  1.0000
  H   H16       1.0  0.7472182758669308  0.10566520969209847  0.039575033490619305  1.0000
  H   H17       1.0  0.7764065890765206  0.08626789773195864  0.27446602813067456  1.0000
  H   H18       1.0  0.7468812692211801  0.0012231422655206714  0.39210987583843115  1.0000
  C   C31       1.0  0.9024010741117813  0.4021976231539799  0.22885511408272885  1.0000
  C   C32       1.0  0.8287783757985677  0.35459364621993283  0.22815584368259834  1.0000
  C   C33       1.0  0.7914525277088611  0.3305753591556235  0.11065361809461516  1.0000
  C   C34       1.0  0.8287273332907255  0.3548211874789817  0.9928484121472803  1.0000
  C   C35       1.0  0.9023504523181859  0.4024256631813399  0.9915554406518368  1.0000
  C   C36       1.0  0.9387758264346153  0.4258444196067641  0.11005888563838706  1.0000
  C   C37       1.0  0.713566033246873  0.2802059080565762  0.11096863246032607  1.0000
  C   C38       1.0  0.6597915209662808  0.3299892613809645  0.017224112943547087  1.0000
  C   C39       1.0  0.5865903023864443  0.282569227326235  0.017789569080978618  1.0000
  C   C40       1.0  0.5660996047439407  0.18505102887236613  0.1115358377339759  1.0000
  C   C41       1.0  0.6191327679251352  0.13387829603562396  0.20610801808669055  1.0000
  C   C42       1.0  0.6924361976344564  0.18193581501825506  0.20509581392525456  1.0000
  O   O1        1.0  0.6014358924454007  0.035663291133409825  0.30212333449011664  1.0000
  C   C43       1.0  0.5294163587318579  0.9778744323579261  0.3147356739987144  1.0000
  H   H19       1.0  0.9304644639425631  0.420278257676455  0.5565796271534924  1.0000
  H   H20       1.0  0.7999140327441329  0.33776038248897966  0.3190575790722927  1.0000
  H   H21       1.0  0.8005627814289633  0.3348075735227827  0.9021764431117667  1.0000
  H   H22       1.0  0.9955729595855114  0.4625680398380374  0.10982996749762175  1.0000
  H   H23       1.0  0.9303889004608894  0.4206266183539158  0.6636046393628519  1.0000
  H   H24       1.0  0.6740896399648502  0.4067660110300597  0.9445579667918698  1.0000
  H   H25       1.0  0.5455210746151206  0.3218172458574753  0.9454683822964665  1.0000
  H   H26       1.0  0.509021245758251  0.1501944122915133  0.10964535889594962  1.0000
  H   H27       1.0  0.7331740213386806  0.1409444865605094  0.2772280941315295  1.0000
  H   H28       1.0  0.5139252826224637  0.9297350867795594  0.2251534423987709  1.0000
  H   H29       1.0  0.5313363337519934  0.9033527311950217  0.3985307631431141  1.0000
  H   H30       1.0  0.4866386161235607  0.053023702956128016  0.3329325473286966  1.0000
  Zn  Zn1       1.0  0.8200571475390102  0.4040157797165309  0.6062641184758404  1.0000
  Zn  Zn2       1.0  0.9846871604015991  0.4006070105230044  0.6141455119941297  1.0000
  C   C44       1.0  0.902357597473392  0.3972084738636923  0.8473908155987704  1.0000
  C   C45       1.0  0.902388508443274  0.4074159179443746  0.37301902771981643  1.0000
  C   C46       1.0  0.9024055054915046  0.6395217590556415  0.6049323109795752  1.0000
  C   C47       1.0  0.902340544024936  0.16510107350565217  0.6154775995286961  1.0000
  O   O2        1.0  0.9648605224000572  0.407867948995295  0.42439270419384956  1.0000
  O   O3        1.0  0.9648359538874861  0.39416828595375786  0.8019985610186864  1.0000
  O   O4        1.0  0.9648737979188343  0.5898393460581799  0.6062115622273543  1.0000
  O   O5        1.0  0.9648226221994066  0.21219689931592933  0.620179602922081  1.0000
  O   O6        1.0  0.8399216295610598  0.5924258920882635  0.6002300248515251  1.0000
  O   O7        1.0  0.8398837857497939  0.3967563923952726  0.7960169537568094  1.0000
  O   O8        1.0  0.8399083544096606  0.4104560097093153  0.41840953562908956  1.0000
  O   O9        1.0  0.8398704541981692  0.21478495076955095  0.6141965317240581  1.0000
