data_image0
_chemical_formula_structural       NC12NC2H8C12ClH9C12BrH9Zn2C4O8
_chemical_formula_sum              "N2 C42 H26 Cl1 Br1 Zn2 O8"
_cell_length_a       17.80743265337812
_cell_length_b       10.299768534541528
_cell_length_c       10.299148005577397
_cell_angle_alpha    85.55407396339785
_cell_angle_beta     91.50743167608279
_cell_angle_gamma    89.45366305101135

_space_group_name_H-M_alt    "P 1"
_space_group_IT_number       1

loop_
  _space_group_symop_operation_xyz
  'x, y, z'

loop_
  _atom_site_type_symbol
  _atom_site_label
  _atom_site_symmetry_multiplicity
  _atom_site_fract_x
  _atom_site_fract_y
  _atom_site_fract_z
  _atom_site_occupancy
  N   N1        1.0  0.7080485342755275  0.40681045101685265  0.6013748432393082  1.0000
  C   C1        1.0  0.657252154867082  0.4363759687574831  0.5326761469195518  1.0000
  C   C2        1.0  0.5940564414414358  0.4731533263572072  0.4472236167766819  1.0000
  C   C3        1.0  0.6058262270924257  0.5271863978580087  0.3206039169212269  1.0000
  C   C4        1.0  0.5445369626056688  0.5624599370198355  0.23754734262639676  1.0000
  C   C5        1.0  0.47132383068609757  0.5439639339501392  0.28045056536222446  1.0000
  C   C6        1.0  0.4585771274133865  0.4898120127225456  0.4075384118640786  1.0000
  C   C7        1.0  0.5207237129112195  0.4545417291221998  0.4905784742752841  1.0000
  C   C8        1.0  0.380794835158434  0.47020160177268155  0.45330193245202666  1.0000
  C   C9        1.0  0.3619810200495521  0.4973746440949045  0.5803506225219781  1.0000
  C   C10       1.0  0.2887379392751969  0.47892020967923443  0.623294411338718  1.0000
  C   C11       1.0  0.23336544091183242  0.4330383789418206  0.5400274836117911  1.0000
  C   C12       1.0  0.1579852915996204  0.4140309830971256  0.5843722013603019  1.0000
  N   N2        1.0  0.0973849896310391  0.3987503151826295  0.6200223038081634  1.0000
  C   C13       1.0  0.2514875917130636  0.40569637097301503  0.41352176613281144  1.0000
  C   C14       1.0  0.32467788613843607  0.42416561668311936  0.3703220853352185  1.0000
  H   H1        1.0  0.6623034958010194  0.5420134771853093  0.2861669496396435  1.0000
  H   H2        1.0  0.5537679550701038  0.604566404823748  0.13976835234352425  1.0000
  H   H3        1.0  0.42470681522575726  0.5736057438921176  0.2148598891240281  1.0000
  H   H4        1.0  0.5121908861094638  0.41104998253153946  0.5882329418265284  1.0000
  H   H5        1.0  0.40364722083824495  0.5345468022517497  0.645927206036788  1.0000
  H   H6        1.0  0.2752732413197593  0.5007555516346411  0.7213066801414241  1.0000
  H   H7        1.0  0.2091046336831788  0.3697914372747424  0.34835821443105885  1.0000
  H   H8        1.0  0.3376138350087247  0.40079471572405034  0.2726130764753645  1.0000
  C   C15       1.0  0.9026495032948176  0.02141639283459229  0.610693210301966  1.0000
  C   C16       1.0  0.9076340781331292  0.03089872002373162  0.47445644517699637  1.0000
  C   C17       1.0  0.9102320225092332  0.9185626272105784  0.40543504105136075  1.0000
  C   C18       1.0  0.9077775562279494  0.7956080300125691  0.4744788078163733  1.0000
  C   C19       1.0  0.9027912141020473  0.7841342103816282  0.6107154262437458  1.0000
  C   C20       1.0  0.9002556646744958  0.8975950274782115  0.6780597280090261  1.0000
  C   C21       1.0  0.9155062860249427  0.9296477860209855  0.2613079486422769  1.0000
  C   C22       1.0  0.8727876690984425  0.02408304804571637  0.18479453255553335  1.0000
  C   C23       1.0  0.8778188897226982  0.034319533685541304  0.04914920824061908  1.0000
  C   C24       1.0  0.9254966343335969  0.9506446302874915  0.9883219077342469  1.0000
  C   C25       1.0  0.9682033464690535  0.856522078635229  0.06332346028755942  1.0000
  C   C26       1.0  0.9633055325893392  0.8458905778168095  0.19898981813757932  1.0000
  Cl  Cl1       1.0  0.9317253429889577  0.9637355998923911  0.8181270201723079  1.0000
  H   H9        1.0  0.9007115894221064  0.3452577081454231  0.6626010248187915  1.0000
  H   H10       1.0  0.9105446336100498  0.12585849245304948  0.4218607164149173  1.0000
  H   H11       1.0  0.9087276391508636  0.7087622640292197  0.4215756159151596  1.0000
  H   H12       1.0  0.896409533808021  0.8895116755845639  0.7831600844993882  1.0000
  H   H13       1.0  0.9009210947627131  0.4523077822188301  0.6626342891630417  1.0000
  H   H14       1.0  0.8347909975227649  0.08883879333935973  0.2297203871032798  1.0000
  H   H15       1.0  0.8444789639658604  0.10713181108744796  0.9914379164227052  1.0000
  H   H16       1.0  0.005362655341733413  0.7917372988670969  0.016667940549329074  1.0000
  H   H17       1.0  0.9975991590813049  0.7733520828219366  0.25525241063876725  1.0000
  C   C27       1.0  0.9028227622053131  0.40282524330399605  0.2293210524093665  1.0000
  C   C28       1.0  0.8321703614261363  0.4650672070225381  0.22050132561554103  1.0000
  C   C29       1.0  0.7962422944303429  0.49657413834239206  0.09888620181835339  1.0000
  C   C30       1.0  0.8319196177685498  0.46499959357030773  0.9852122797601335  1.0000
  C   C31       1.0  0.9026179344718938  0.4027254127466324  0.9920875934146811  1.0000
  C   C32       1.0  0.9376340276783864  0.372019728829879  0.11454488046546474  1.0000
  C   C33       1.0  0.7215011186391155  0.5624205450076931  0.09060093730886432  1.0000
  C   C34       1.0  0.7057396871338867  0.6640637501248439  0.169926102839141  1.0000
  C   C35       1.0  0.6353593332814151  0.7259292279038037  0.16193156015988386  1.0000
  C   C36       1.0  0.5799404883958875  0.6871331475111282  0.07491179558276229  1.0000
  C   C37       1.0  0.5949475276108357  0.5862924188808436  0.9956980487391869  1.0000
  C   C38       1.0  0.6652639704341377  0.5242063006369493  0.0032969874128565557  1.0000
  Br  Br1       1.0  0.48384517201953653  0.7717924916581973  0.06426070958712216  1.0000
  H   H18       1.0  0.9300140705209488  0.37893666875432874  0.5601857239256591  1.0000
  H   H19       1.0  0.8044529730309613  0.48758707056734174  0.30851374597222647  1.0000
  H   H20       1.0  0.8049444827192469  0.49065278520264743  0.8911043287737521  1.0000
  H   H21       1.0  0.9921310759868843  0.3240148646358516  0.12063176623752847  1.0000
  H   H22       1.0  0.03626720233766312  0.28591704895684744  0.7977255587232248  1.0000
  H   H23       1.0  0.7481350184841891  0.6968029004816367  0.2368649052903009  1.0000
  H   H24       1.0  0.6240291370330565  0.8042294618991073  0.22319498144965033  1.0000
  H   H25       1.0  0.5521081879335726  0.5557144285105646  0.9284310229333057  1.0000
  H   H26       1.0  0.6753369633385503  0.44524280805522753  0.9421744319355949  1.0000
  Zn  Zn1       1.0  0.8204026258448789  0.40448100170890244  0.6067635846655282  1.0000
  Zn  Zn2       1.0  0.9850308907551596  0.40106916978349916  0.6146441555230513  1.0000
  C   C39       1.0  0.9026540235645193  0.3975706993948851  0.8479081819579335  1.0000
  C   C40       1.0  0.9027812910412553  0.4079810734218636  0.373499771805315  1.0000
  C   C41       1.0  0.9027619442557042  0.6399651003541085  0.6055357117187579  1.0000
  C   C42       1.0  0.9026733138654778  0.1655851133356443  0.6158723085511026  1.0000
  O   O1        1.0  0.9652429404531845  0.40841097900648804  0.4248781025285895  1.0000
  O   O2        1.0  0.9651414178991113  0.3945503126625556  0.8025106482828022  1.0000
  O   O3        1.0  0.9652277226589275  0.5902868742101142  0.6067931234628592  1.0000
  O   O4        1.0  0.9651565795447673  0.2126744279260031  0.6205955272813606  1.0000
  O   O5        1.0  0.840276880875726  0.5928757447321036  0.6008122102111351  1.0000
  O   O6        1.0  0.8401905764209577  0.3971407434772465  0.7965296658283829  1.0000
  O   O7        1.0  0.8402920994358644  0.4110013647691515  0.41889555861570615  1.0000
  O   O8        1.0  0.8402057384965034  0.21526480438729867  0.6146130807395658  1.0000
