data_image0
_chemical_formula_structural       NC9NC5H8C13OH12C13NH13Zn2C4O8
_chemical_formula_sum              "N3 C44 H33 O9 Zn2"
_cell_length_a       17.807436237873137
_cell_length_b       10.299150109392551
_cell_length_c       10.299780419254978
_cell_angle_alpha    85.552664501727
_cell_angle_beta     89.37921623596309
_cell_angle_gamma    88.37145022261349

_space_group_name_H-M_alt    "P 1"
_space_group_IT_number       1

loop_
  _space_group_symop_operation_xyz
  'x, y, z'

loop_
  _atom_site_type_symbol
  _atom_site_label
  _atom_site_symmetry_multiplicity
  _atom_site_fract_x
  _atom_site_fract_y
  _atom_site_fract_z
  _atom_site_occupancy
  N   N1        1.0  0.7073478839887034  0.3875559414665444  0.5566811736122568  1.0000
  C   C1        1.0  0.6467683788623568  0.35236067721422915  0.545670314624866  1.0000
  C   C2        1.0  0.5714141327363748  0.3085816443858056  0.5319740015713057  1.0000
  C   C3        1.0  0.5533501427715357  0.23713695683336522  0.42700058840815536  1.0000
  C   C4        1.0  0.4801850896538438  0.1945193651044237  0.41361976563416203  1.0000
  C   C5        1.0  0.4240353825228891  0.22296889095892314  0.5051800414299741  1.0000
  C   C6        1.0  0.3462797592735466  0.17779231190823386  0.4910417221799548  1.0000
  C   C7        1.0  0.284084718854259  0.2595614179239887  0.5169502839132423  1.0000
  C   C8        1.0  0.2107773967586329  0.21674077335175013  0.5035832148649988  1.0000
  C   C9        1.0  0.1475317174753064  0.3012015482896313  0.5298546977523382  1.0000
  N   N2        1.0  0.0966951808079187  0.3691021682493827  0.5509762456352187  1.0000
  C   C10       1.0  0.199081621582492  0.0918930145555974  0.46428232809892567  1.0000
  C   C11       1.0  0.26041929588447277  0.010110053161677346  0.4383653819516402  1.0000
  C   C12       1.0  0.333607286600226  0.05253607703956287  0.45153006181792055  1.0000
  C   C13       1.0  0.4427906555566976  0.29490803701237067  0.6103724985001828  1.0000
  C   C14       1.0  0.5160086363739094  0.3373351830212903  0.6235977445619512  1.0000
  H   H1        1.0  0.5957589093124567  0.21463380123359643  0.35529846599718584  1.0000
  H   H2        1.0  0.4672936912135812  0.14081393375298012  0.33072157096072674  1.0000
  H   H3        1.0  0.2925601800218572  0.3570412559702705  0.545791199594069  1.0000
  H   H4        1.0  0.1426243496782919  0.05785163064634369  0.453700078000175  1.0000
  H   H5        1.0  0.2512454994821184  0.9134501190994361  0.4083238021481024  1.0000
  H   H6        1.0  0.3802629049417013  0.9867810544458052  0.4325060132565153  1.0000
  H   H7        1.0  0.4010986949959792  0.31687238432532383  0.6833692675911134  1.0000
  H   H8        1.0  0.5294282979572204  0.39226107490046713  0.7054539097783894  1.0000
  C   C15       1.0  0.9020959088536405  0.9969259299470444  0.5539717615349427  1.0000
  C   C16       1.0  0.9006937041237507  0.9852170327927922  0.6907972204668826  1.0000
  C   C17       1.0  0.8999174230999023  0.862148814452155  0.7599079064769996  1.0000
  C   C18       1.0  0.9005489063873043  0.7499684744020577  0.6904359625682503  1.0000
  C   C19       1.0  0.9019543321185656  0.7597218309074976  0.5536968517390846  1.0000
  C   C20       1.0  0.902721686404032  0.8836614334446777  0.48626381372165883  1.0000
  C   C21       1.0  0.898427511253499  0.8507441701693375  0.9045637054086442  1.0000
  C   C22       1.0  0.8522225288767363  0.7600682198705161  0.9732592402631093  1.0000
  C   C23       1.0  0.850795633435841  0.749419049996001  0.10938056718517342  1.0000
  C   C24       1.0  0.8960406769731166  0.8282655785566406  0.17925991037622346  1.0000
  C   C25       1.0  0.9415268157456897  0.9199293695758038  0.11121745261901872  1.0000
  C   C26       1.0  0.942971150285193  0.9307535098668197  0.9750955814706197  1.0000
  C   C27       1.0  0.8929277452125133  0.8192514446723713  0.3253855832880078  1.0000
  O   O1        1.0  0.8367711209701768  0.905096965504282  0.36644736081777485  1.0000
  H   H9        1.0  0.9042545509365073  0.2263429915598374  0.29571444763039123  1.0000
  H   H10       1.0  0.8991605758155572  0.0720729149879078  0.7438260085728439  1.0000
  H   H11       1.0  0.9009704500175375  0.6548357003919403  0.7432610547490988  1.0000
  H   H12       1.0  0.903803607493965  0.8919007984859316  0.3807928771293587  1.0000
  H   H13       1.0  0.9024443423515713  0.43600024253799263  0.5011029349213312  1.0000
  H   H14       1.0  0.816301187744727  0.6987526304082363  0.9216790969565003  1.0000
  H   H15       1.0  0.8142432713780502  0.679831071267038  0.16028956855181986  1.0000
  H   H16       1.0  0.9760642230161022  0.9828636590545173  0.16356404796296065  1.0000
  H   H17       1.0  0.9795485755733129  0.0007858807682146196  0.9249928218391672  1.0000
  H   H18       1.0  0.9481835798145878  0.8444690114318452  0.364744248859753  1.0000
  H   H19       1.0  0.8807137440854803  0.7178159422175011  0.3633755227537777  1.0000
  H   H20       1.0  0.8370364069509482  0.8954247608819855  0.4630660468986789  1.0000
  C   C28       1.0  0.902076292622848  0.3782365977654969  0.17247942213205425  1.0000
  C   C29       1.0  0.9564508446790932  0.47469654713929543  0.1629851679888077  1.0000
  C   C30       1.0  0.9839449161423327  0.5236716064773692  0.04103124853966511  1.0000
  C   C31       1.0  0.9563476311791649  0.4748736856119149  0.9276864419005086  1.0000
  C   C32       1.0  0.9019739720918241  0.3784111743662617  0.9351891305221467  1.0000
  C   C33       1.0  0.8751407132397286  0.33063631741801913  0.05803534242387687  1.0000
  C   C34       1.0  0.04147105694193365  0.6257152547691007  0.032078683219220805  1.0000
  C   C35       1.0  0.03637306895158354  0.7305429509519143  0.9362891037530616  1.0000
  C   C36       1.0  0.0905423536292882  0.8265000461764789  0.927948094876732  1.0000
  C   C37       1.0  0.15042913509630385  0.8199582223781701  0.015746424601650766  1.0000
  C   C38       1.0  0.15624736841707842  0.7148175291877032  0.11046877946914724  1.0000
  C   C39       1.0  0.10209362189334192  0.6188349965411861  0.11898234031458732  1.0000
  C   C40       1.0  0.20973503038465768  0.9213734683359138  0.004384160466418985  1.0000
  N   N3        1.0  0.26733305413524433  0.8859889659920277  0.9106741882261251  1.0000
  H   H21       1.0  0.8813875830156668  0.34143252644325095  0.5035535657474466  1.0000
  H   H22       1.0  0.9768081953387011  0.5132407121812645  0.2505424156270333  1.0000
  H   H23       1.0  0.9781195020000838  0.5109997489098101  0.8335464393295209  1.0000
  H   H24       1.0  0.8331934727398713  0.2562208002993904  0.0645911598171578  1.0000
  H   H25       1.0  0.8812408561460786  0.34167820812853233  0.610592889899114  1.0000
  H   H26       1.0  0.990038850052287  0.7390859596704913  0.8686640038192928  1.0000
  H   H27       1.0  0.08568890951844677  0.9061365546484965  0.8531511122588169  1.0000
  H   H28       1.0  0.2028604343398308  0.7069136156918505  0.1775630323443218  1.0000
  H   H29       1.0  0.10825663409097497  0.5381191793614066  0.19229461641432555  1.0000
  H   H30       1.0  0.18375869934762723  0.017638786378179283  0.9714497313790726  1.0000
  H   H31       1.0  0.23564107511822963  0.9314568565259447  0.10085715020902852  1.0000
  H   H32       1.0  0.30522961084859523  0.9618904981366718  0.9001511822676074  1.0000
  H   H33       1.0  0.29748803869964946  0.8042499123614537  0.9510339784519051  1.0000
  Zn  Zn1       1.0  0.8197051019286903  0.3822271172634588  0.5550423663962165  1.0000
  Zn  Zn2       1.0  0.9843379452031519  0.3744204077774105  0.552625732885994  1.0000
  C   C41       1.0  0.9019925762318374  0.3732041443572691  0.7910225841163108  1.0000
  C   C42       1.0  0.9020522683642702  0.38344493422964776  0.3166456156474391  1.0000
  C   C43       1.0  0.9019779199644327  0.6155362058974054  0.54857387274917  1.0000
  C   C44       1.0  0.902066868734325  0.14111131492735107  0.5590943976377145  1.0000
  O   O2        1.0  0.964521512686686  0.38222462771351307  0.3641120093851753  1.0000
  O   O3        1.0  0.9644758508420694  0.36849835911289075  0.7417216479822886  1.0000
  O   O4        1.0  0.9644631733156216  0.5641846037602367  0.5459426100648408  1.0000
  O   O5        1.0  0.9645341340464378  0.18653839499882752  0.5598909507528254  1.0000
  O   O6        1.0  0.8395088569042954  0.5701091327075001  0.5477771493472325  1.0000
  O   O7        1.0  0.839521534146984  0.37442444848777323  0.7435561174593934  1.0000
  O   O8        1.0  0.8395671962594778  0.38815067146856963  0.3659449175346621  1.0000
  O   O9        1.0  0.8395798176048169  0.1924644294866824  0.5617239562699574  1.0000
