data_image0
_chemical_formula_structural       NC8NC6H8C12NH11C13NH13Zn2C4O8
_chemical_formula_sum              "N4 C43 H32 Zn2 O8"
_cell_length_a       17.457602349358154
_cell_length_b       10.299770795358612
_cell_length_c       10.299780419254978
_cell_angle_alpha    85.56832973562953
_cell_angle_beta     92.86230706440833
_cell_angle_gamma    91.70596819880058

_space_group_name_H-M_alt    "P 1"
_space_group_IT_number       1

loop_
  _space_group_symop_operation_xyz
  'x, y, z'

loop_
  _atom_site_type_symbol
  _atom_site_label
  _atom_site_symmetry_multiplicity
  _atom_site_fract_x
  _atom_site_fract_y
  _atom_site_fract_z
  _atom_site_occupancy
  N   N1        1.0  0.7228778867869565  0.4525392895888256  0.6264651761412232  1.0000
  C   C1        1.0  0.6617930354269898  0.4066117532542337  0.6158533788735927  1.0000
  C   C2        1.0  0.5858008970372761  0.34948361448563503  0.602661844142153  1.0000
  C   C3        1.0  0.5272693345146122  0.3896615673169328  0.6775528816710894  1.0000
  C   C4        1.0  0.4527155808915197  0.3346518250302468  0.6649755977685969  1.0000
  C   C5        1.0  0.3905929255146028  0.37707387695531946  0.7442880563632179  1.0000
  C   C6        1.0  0.3160572636741639  0.39553033960020945  0.6885259015734326  1.0000
  C   C7        1.0  0.2575256499990088  0.4355243899323782  0.7635249011571463  1.0000
  C   C8        1.0  0.1815522466243316  0.4545862311739419  0.7055473487241704  1.0000
  N   N2        1.0  0.1204825456347298  0.4699055718614158  0.6589335480819059  1.0000
  C   C9        1.0  0.2730375101575884  0.45730522836352416  0.894794530231912  1.0000
  C   C10       1.0  0.3467884858272267  0.43923783587882625  0.9509442353266713  1.0000
  C   C11       1.0  0.40530846473399373  0.3994239381773672  0.8764029213202944  1.0000
  C   C12       1.0  0.437982108332899  0.23878640259595718  0.5760744769506789  1.0000
  C   C13       1.0  0.49650194874181797  0.19888721578799218  0.5015834025078936  1.0000
  C   C14       1.0  0.5702708818919023  0.25400945170091993  0.514710600990151  1.0000
  H   H1        1.0  0.5396179589432007  0.46487026036119006  0.7441747562285903  1.0000
  H   H2        1.0  0.3037235029197701  0.3805381753185846  0.586507519012708  1.0000
  H   H3        1.0  0.2281741121706729  0.4882006426705263  0.9536251988020774  1.0000
  H   H4        1.0  0.3586088706166964  0.4557875820871644  0.05258926000995168  1.0000
  H   H5        1.0  0.46178503319166614  0.38444199825377523  0.922508232811784  1.0000
  H   H6        1.0  0.3814906474359648  0.1934485272395976  0.5654265208003597  1.0000
  H   H7        1.0  0.4846675017088349  0.1247947284915254  0.4337631824432524  1.0000
  H   H8        1.0  0.615134095263185  0.22224444817180977  0.4563910969330407  1.0000
  C   C15       1.0  0.9216143546623612  0.07985100798682976  0.6427335753521988  1.0000
  C   C16       1.0  0.8993647306281456  0.08802678373380801  0.5095114631988638  1.0000
  C   C17       1.0  0.8881610454987384  0.9750364224355641  0.44197742167151177  1.0000
  C   C18       1.0  0.8995051648324475  0.8527512896362072  0.5094543809104497  1.0000
  C   C19       1.0  0.9217534004129513  0.8425841615481957  0.6426769302083317  1.0000
  C   C20       1.0  0.9326837779852148  0.9566832050000457  0.7085704041016196  1.0000
  C   C21       1.0  0.8646225705367374  0.9847393384883281  0.3010361867949942  1.0000
  C   C22       1.0  0.8087646741933224  0.07346799697618067  0.2512894600878095  1.0000
  C   C23       1.0  0.7866431580073276  0.08247259286556341  0.1186371953096721  1.0000
  C   C24       1.0  0.8199608587779031  0.0031492492096305558  0.03361741128885187  1.0000
  C   C25       1.0  0.8756347753844189  0.9146104489678313  0.08245859061115679  1.0000
  C   C26       1.0  0.8978177543632069  0.9053525055117091  0.21508590260628457  1.0000
  N   N3        1.0  0.7973007250300804  0.012489745829590948  0.8979367755368175  1.0000
  H   H9        1.0  0.9300598607238901  0.4041864956092094  0.6935118433505436  1.0000
  H   H10       1.0  0.8917128408574463  0.18258705774099848  0.4575363984239613  1.0000
  H   H11       1.0  0.8899273252813711  0.7652933947282242  0.45826210925011157  1.0000
  H   H12       1.0  0.9498477719017513  0.9496079027413551  0.8113453141967819  1.0000
  H   H13       1.0  0.9302643671336915  0.5112590275099684  0.6934289235510023  1.0000
  H   H14       1.0  0.7814642429951127  0.13470063092071238  0.31526072147095685  1.0000
  H   H15       1.0  0.743393369101028  0.15105779509848327  0.08219515106833253  1.0000
  H   H16       1.0  0.901986490839814  0.8529906777865874  0.01772061130316316  1.0000
  H   H17       1.0  0.941655890327263  0.837302968958532  0.25013650554186206  1.0000
  H   H18       1.0  0.8218108940847205  0.9537510351165454  0.8338012708127072  1.0000
  H   H19       1.0  0.7558468061787088  0.07821315180582866  0.8606182544942449  1.0000
  C   C27       1.0  0.9217361065532141  0.4611349874528774  0.26135539504087557  1.0000
  C   C28       1.0  0.9773006719502079  0.5625909387861996  0.2572224021539091  1.0000
  C   C29       1.0  0.005396539126569122  0.614092174746947  0.13797942410976805  1.0000
  C   C30       1.0  0.9771953335220135  0.5627585703645801  0.021913609014134527  1.0000
  C   C31       1.0  0.9216316790953566  0.46130013947706616  0.024055123162917136  1.0000
  C   C32       1.0  0.8942110971175931  0.41105982037421196  0.14425555743936647  1.0000
  C   C33       1.0  0.06418166463557773  0.7214213973892485  0.13469886047408308  1.0000
  C   C34       1.0  0.059014446069141524  0.8257732529804871  0.038441291877423955  1.0000
  C   C35       1.0  0.11436920013403085  0.9267074989927937  0.03544126292841088  1.0000
  C   C36       1.0  0.17552469708629292  0.9256755075652432  0.12911001886693985  1.0000
  C   C37       1.0  0.18142733242084574  0.8210769358164534  0.22437089387348053  1.0000
  C   C38       1.0  0.12608843686196858  0.7201186835060689  0.22754499069828338  1.0000
  C   C39       1.0  0.23612712022775084  0.032540100992253684  0.12359408545788697  1.0000
  N   N4        1.0  0.2949345539256516  0.0024567543551476945  0.03552132631497584  1.0000
  H   H20       1.0  0.900594576430876  0.4224300182630978  0.590389627159809  1.0000
  H   H21       1.0  0.9981044567760062  0.6030054041041089  0.3467875984108586  1.0000
  H   H22       1.0  0.9994427637708985  0.6008852233800945  0.9299195248740673  1.0000
  H   H23       1.0  0.8513458204353868  0.33279013834798876  0.14667543013661666  1.0000
  H   H24       1.0  0.9004448265114129  0.42266218548076107  0.6974146382637834  1.0000
  H   H25       1.0  0.011699920481955006  0.830053094110496  0.9662753211227506  1.0000
  H   H26       1.0  0.10944234914454531  0.005892308117707579  0.9601926018577309  1.0000
  H   H27       1.0  0.22902686143485007  0.81746180129818  0.2960335554961051  1.0000
  H   H28       1.0  0.13235225131236805  0.6399751124694526  0.3014370311723953  1.0000
  H   H29       1.0  0.20963521420633713  0.1264093918567588  0.08814175817738978  1.0000
  H   H30       1.0  0.2625867921857792  0.04500611008493749  0.2226104570124403  1.0000
  H   H31       1.0  0.33366372015848267  0.0818397035931282  0.02873751280303627  1.0000
  H   H32       1.0  0.3256992103233267  0.9234972036159999  0.07881319015283439  1.0000
  Zn  Zn1       1.0  0.8376180009675566  0.45754734241761774  0.6358423452805955  1.0000
  Zn  Zn2       1.0  0.00574241380696261  0.4648868734414451  0.6495670117294605  1.0000
  C   C40       1.0  0.921648741970265  0.4560951607958821  0.8798888158749485  1.0000
  C   C41       1.0  0.9217135089988917  0.46634077386920336  0.4055208183465371  1.0000
  C   C42       1.0  0.9217238820519544  0.6984100598045899  0.6375124406271511  1.0000
  C   C43       1.0  0.9216383112541541  0.2240243120576022  0.6478972582620193  1.0000
  O   O1        1.0  0.9855082625051332  0.4708675313384467  0.45911249118638264  1.0000
  O   O2        1.0  0.9854565275476097  0.4571379577382635  0.8367134735479482  1.0000
  O   O3        1.0  0.9855163438428823  0.6528102659230397  0.6409927653688128  1.0000
  O   O4        1.0  0.9854483888554156  0.2751952299183835  0.6548330973117216  1.0000
  O   O5        1.0  0.8579119685464933  0.6472389834374697  0.6305762550079483  1.0000
  O   O6        1.0  0.8578521525416595  0.45156823555237624  0.8262968938290134  1.0000
  O   O7        1.0  0.8579038877557834  0.4652977635603541  0.44869435015221004  1.0000
  O   O8        1.0  0.857844014087901  0.26962545287236805  0.6444150536409599  1.0000
