data_image0
_chemical_formula_structural       NC12NC2H8C16H10C15H12Zn2C4O8
_chemical_formula_sum              "N2 C49 H30 Zn2 O8"
_cell_length_a       19.240039667572717
_cell_length_b       10.29914801576943
_cell_length_c       10.299157797200024
_cell_angle_alpha    85.52082761248347
_cell_angle_beta     90.02248165465589
_cell_angle_gamma    90.01219802926651

_space_group_name_H-M_alt    "P 1"
_space_group_IT_number       1

loop_
  _space_group_symop_operation_xyz
  'x, y, z'

loop_
  _atom_site_type_symbol
  _atom_site_label
  _atom_site_symmetry_multiplicity
  _atom_site_fract_x
  _atom_site_fract_y
  _atom_site_fract_z
  _atom_site_occupancy
  N   N1        1.0  0.6543381285434114  0.42180644019398317  0.5668229954874073  1.0000
  C   C1        1.0  0.5941897597184868  0.4218065242059197  0.566822913513549  1.0000
  C   C2        1.0  0.5193717225618443  0.42180664154105774  0.5668227761559339  1.0000
  C   C3        1.0  0.48291238565361916  0.357306100998249  0.6702655220427165  1.0000
  C   C4        1.0  0.4102416431006285  0.3571951854271067  0.6703521116400357  1.0000
  C   C5        1.0  0.3730394875872368  0.42180673417965653  0.5668225484253417  1.0000
  C   C6        1.0  0.4102130105232139  0.486418469878269  0.4632931796919646  1.0000
  C   C7        1.0  0.4828837045328521  0.48630731875246247  0.4633798918866814  1.0000
  C   C8        1.0  0.29583439711861087  0.4218066555393536  0.5668224530339012  1.0000
  C   C9        1.0  0.25864248229737064  0.30852423131081763  0.6087385444303721  1.0000
  C   C10       1.0  0.1859717869079143  0.3086311669042978  0.6086471730655605  1.0000
  C   C11       1.0  0.1495021101934945  0.421806526337998  0.5668225139967089  1.0000
  C   C12       1.0  0.07468407307781229  0.4218064125137786  0.5668227627154729  1.0000
  N   N2        1.0  0.014535756264836698  0.4218063716266327  0.5668229711627841  1.0000
  C   C13       1.0  0.1859799443332154  0.5349819616209797  0.5249978020052415  1.0000
  C   C14       1.0  0.2586506335321396  0.5350890773975387  0.5249062679679573  1.0000
  H   H1        1.0  0.5106385248281369  0.3073681840228819  0.7510305196876554  1.0000
  H   H2        1.0  0.3831599347296697  0.3080550987316404  0.75223238129509  1.0000
  H   H3        1.0  0.3831081880984458  0.5355585836431294  0.3814128591751955  1.0000
  H   H4        1.0  0.5105873368679209  0.5362451353772255  0.3826151700916549  1.0000
  H   H5        1.0  0.285732148753956  0.21935231761648355  0.6399417447329114  1.0000
  H   H6        1.0  0.1582536555653853  0.22035821082966156  0.6408830621366317  1.0000
  H   H7        1.0  0.1582682522282159  0.6232548931524853  0.4927619274947572  1.0000
  H   H8        1.0  0.2857474458923788  0.6242610702881031  0.49370302286125334  1.0000
  C   C15       1.0  0.8343908227468433  0.04040499534642494  0.5669885255269369  1.0000
  C   C16       1.0  0.8184933811834061  0.05004226541539447  0.4335066693516101  1.0000
  C   C17       1.0  0.8104840804787896  0.9377988527976475  0.3656639213099522  1.0000
  C   C18       1.0  0.8185860748231695  0.814790566889159  0.43310205515015476  1.0000
  C   C19       1.0  0.8344897294998924  0.8031978302492085  0.5666686692218224  1.0000
  C   C20       1.0  0.8422954238079325  0.916521459652501  0.6327894899009772  1.0000
  C   C21       1.0  0.7936666760993344  0.94903952793058  0.22445621542947558  1.0000
  C   C22       1.0  0.826531786914668  0.8680789801163011  0.1392334878391417  1.0000
  C   C23       1.0  0.8106795444925528  0.8787834925907584  0.006334238229801281  1.0000
  C   C24       1.0  0.7617993250709849  0.9703493819226854  0.9568533544907778  1.0000
  C   C25       1.0  0.7288072115160236  0.05129061514639455  0.040792065429949176  1.0000
  C   C26       1.0  0.744609904145786  0.040827362345130735  0.17371226286207353  1.0000
  C   C27       1.0  0.7455050727403486  0.9812459867233134  0.8200211273896225  1.0000
  C   C28       1.0  0.7318588121755117  0.9903717888166985  0.7054261166962807  1.0000
  C   C29       1.0  0.7158792021653895  0.001057980091575983  0.5712365277199223  1.0000
  C   C30       1.0  0.7022352316878923  0.01018239967366319  0.45666002588222243  1.0000
  H   H9        1.0  0.8404699190082615  0.36417268421706694  0.6183454600030194  1.0000
  H   H10       1.0  0.8132392681699374  0.14511254631040305  0.38159352476140285  1.0000
  H   H11       1.0  0.8115381096022383  0.727912122204361  0.3816835215925134  1.0000
  H   H12       1.0  0.8545554958559031  0.9083720949080143  0.7357483275610637  1.0000
  H   H13       1.0  0.8640766706927403  0.5740105327957035  0.818946899737732  1.0000
  H   H14       1.0  0.8651484502533233  0.7976639716926759  0.17508529133987705  1.0000
  H   H15       1.0  0.8366688126446036  0.8158790578603912  0.9421555925294549  1.0000
  H   H16       1.0  0.6907430720974865  0.12227037003779495  0.003570288309863834  1.0000
  H   H17       1.0  0.7178102553682958  0.1033422212538675  0.23708807396807252  1.0000
  H   H18       1.0  0.6902547270706496  0.01819441082470319  0.356052196135364  1.0000
  C   C31       1.0  0.8343597104378551  0.42190767881618174  0.18543651206616651  1.0000
  C   C32       1.0  0.7619651042518628  0.4039267963611939  0.18561922524420305  1.0000
  C   C33       1.0  0.7254077049213633  0.39470096494621876  0.06856958999025342  1.0000
  C   C34       1.0  0.7621715830242469  0.4037180468541586  0.9503520181216438  1.0000
  C   C35       1.0  0.834520824198511  0.4216951342749504  0.9482206233153825  1.0000
  C   C36       1.0  0.8701924140087871  0.430679213183212  0.0662932042436799  1.0000
  C   C37       1.0  0.6488703945079334  0.3756965019720997  0.0698090549310324  1.0000
  C   C38       1.0  0.6175857344810887  0.2887101166446009  0.9887384960081542  1.0000
  C   C39       1.0  0.5455609308073518  0.2709191775010118  0.989937104539488  1.0000
  C   C40       1.0  0.5035378587948359  0.3391054593988785  0.0727386006435784  1.0000
  C   C41       1.0  0.534450671322987  0.4269374634677643  0.15283208969661177  1.0000
  C   C42       1.0  0.6064747747722862  0.44473260132325  0.15178143013193246  1.0000
  C   C43       1.0  0.4259470834670375  0.32228888731136407  0.071682707362138  1.0000
  C   C44       1.0  0.3947015784403921  0.4160642649610964  0.9742324819121242  1.0000
  C   C45       1.0  0.3690224363976169  0.49317569455511934  0.8941014490444186  1.0000
  H   H19       1.0  0.9710559263931098  0.4550508789679173  0.39244664481502034  1.0000
  H   H20       1.0  0.7340083105919097  0.3953012108627312  0.2771605806380282  1.0000
  H   H21       1.0  0.7341152107942136  0.39847957490056585  0.8597219149268858  1.0000
  H   H22       1.0  0.9259975728769188  0.44454170322259046  0.06536493031990087  1.0000
  H   H23       1.0  0.8623516158623192  0.4285682842982508  0.6199284704424457  1.0000
  H   H24       1.0  0.6489020824002243  0.2333398262044073  0.9253896175007914  1.0000
  H   H25       1.0  0.5225413556279555  0.2037577961506858  0.9264061412257636  1.0000
  H   H26       1.0  0.5027284012578809  0.48199854920608387  0.21583609866326925  1.0000
  H   H27       1.0  0.6289277389667319  0.5140013888977233  0.21367026889530405  1.0000
  H   H28       1.0  0.4120628258894991  0.22204020736036245  0.048279495272481876  1.0000
  H   H29       1.0  0.4038250172767324  0.33773513231238006  0.16889755105298332  1.0000
  H   H30       1.0  0.3464978268324103  0.5608769064578303  0.823753714245369  1.0000
  Zn  Zn1       1.0  0.7582833935106934  0.42180295082280783  0.5668304788025169  1.0000
  Zn  Zn2       1.0  0.91059051093398  0.42179926366168585  0.5668260918339121  1.0000
  C   C46       1.0  0.8344881678336451  0.41656121116752964  0.8040402886839739  1.0000
  C   C47       1.0  0.8343874000394472  0.427042642000415  0.32961640869151343  1.0000
  C   C48       1.0  0.8344663690281158  0.6590152000830691  0.5615536208239327  1.0000
  C   C49       1.0  0.8344091466854836  0.18458709263128892  0.572103146450267  1.0000
  O   O1        1.0  0.8921964494948544  0.4287589170708168  0.37800283664305634  1.0000
  O   O2        1.0  0.892276696149673  0.4148411579253177  0.7556501576669221  1.0000
  O   O3        1.0  0.892258314455435  0.6106258198664141  0.5598404571926452  1.0000
  O   O4        1.0  0.8922147791976235  0.23297426444912395  0.5738124397343536  1.0000
  O   O5        1.0  0.7766590732721047  0.6106279500380434  0.5598441308967406  1.0000
  O   O6        1.0  0.77667745515089  0.41484484855320725  0.7556537614669698  1.0000
  O   O7        1.0  0.7765972082065613  0.4287625628739298  0.3780048789665875  1.0000
  O   O8        1.0  0.7766155379258538  0.23297790093550774  0.5738145794355298  1.0000
