data_image0
_chemical_formula_structural       NC12NC2H8C12NCOCH13C12IH9Zn2C4O8
_chemical_formula_sum              "N3 C44 H30 O9 I1 Zn2"
_cell_length_a       17.80743265337812
_cell_length_b       10.299155265289647
_cell_length_c       10.29977335064465
_cell_angle_alpha    85.52787819197464
_cell_angle_beta     91.54321816322954
_cell_angle_gamma    89.41399588169462

_space_group_name_H-M_alt    "P 1"
_space_group_IT_number       1

loop_
  _space_group_symop_operation_xyz
  'x, y, z'

loop_
  _atom_site_type_symbol
  _atom_site_label
  _atom_site_symmetry_multiplicity
  _atom_site_fract_x
  _atom_site_fract_y
  _atom_site_fract_z
  _atom_site_occupancy
  N   N1        1.0  0.7069706658472475  0.40714946745457703  0.6009471101998856  1.0000
  C   C1        1.0  0.6561373883479281  0.4367279743773804  0.5322406986003678  1.0000
  C   C2        1.0  0.5928957777027573  0.4735214890305499  0.4467785710909631  1.0000
  C   C3        1.0  0.6045977424123636  0.5275784585239567  0.32014480563216274  1.0000
  C   C4        1.0  0.543264059413826  0.5628676579314038  0.23707906199916162  1.0000
  C   C5        1.0  0.470073983797569  0.5443635399891218  0.27998711377242813  1.0000
  C   C6        1.0  0.4573953193747644  0.49018763990926084  0.4070890506694633  1.0000
  C   C7        1.0  0.5195863160786031  0.4549016988285235  0.4901382818592801  1.0000
  C   C8        1.0  0.379637572382141  0.47056858407648705  0.45285768232678936  1.0000
  C   C9        1.0  0.36085877605483563  0.49772518801659427  0.5798931170931705  1.0000
  C   C10       1.0  0.28763874941568934  0.4792626365270669  0.6228417196543263  1.0000
  C   C11       1.0  0.2322546933476641  0.43338897850507707  0.5395929193461719  1.0000
  C   C12       1.0  0.1568983303379627  0.41437320533410693  0.5839425913755223  1.0000
  N   N2        1.0  0.09631715093212671  0.39908580262288074  0.6195966767341896  1.0000
  C   C13       1.0  0.250342090735083  0.4060633122513837  0.4131004963897218  1.0000
  C   C14       1.0  0.32350923226961403  0.4245407145871878  0.36989600516108556  1.0000
  H   H1        1.0  0.6610565123316704  0.5424120496215132  0.28570396864705416  1.0000
  H   H2        1.0  0.552442524278373  0.6049926156550476  0.1392890818649688  1.0000
  H   H3        1.0  0.42342116574112115  0.5740178824587525  0.2143885958631564  1.0000
  H   H4        1.0  0.511106533963009  0.4113913525533093  0.5878042091225313  1.0000
  H   H5        1.0  0.4025336577678101  0.53489100595584  0.6454550753486916  1.0000
  H   H6        1.0  0.2742007127149483  0.5010853778636253  0.7208434691746404  1.0000
  H   H7        1.0  0.2079500871732469  0.3701647745518508  0.3479511304333287  1.0000
  H   H8        1.0  0.3364192530067681  0.40118222673288373  0.2721980221134781  1.0000
  C   C15       1.0  0.9017314250201856  0.021718312809422713  0.6103947708552329  1.0000
  C   C16       1.0  0.8888854858663481  0.03173468806184698  0.4748548339381937  1.0000
  C   C17       1.0  0.8822995530646036  0.9196770690878264  0.4060120215649663  1.0000
  C   C18       1.0  0.8887058252273128  0.7964787539838174  0.47453844474544193  1.0000
  C   C19       1.0  0.9015636114352239  0.7845068691801504  0.6101605393556515  1.0000
  C   C20       1.0  0.9080005963377217  0.8976457655626202  0.6772539162306233  1.0000
  C   C21       1.0  0.8687110279759767  0.9312468347561206  0.2626271790886776  1.0000
  C   C22       1.0  0.9068035621811794  0.0245991302044275  0.18303453854506713  1.0000
  C   C23       1.0  0.8940220464513461  0.035356036697251625  0.04810014391189221  1.0000
  C   C24       1.0  0.8433595480727969  0.9520837230992559  0.9899231046661585  1.0000
  C   C25       1.0  0.8043493363656782  0.860566744347225  0.06940362969238856  1.0000
  C   C26       1.0  0.8171582109933836  0.8495532657103425  0.20430199949539163  1.0000
  N   N3        1.0  0.8281600709532616  0.9626907194279034  0.8516345761391011  1.0000
  C   C27       1.0  0.8830062278202695  0.9985278898483411  0.756044366045745  1.0000
  O   O1        1.0  0.9519293924105537  0.9996243862301638  0.7872040547062076  1.0000
  C   C28       1.0  0.8590262461752028  0.025522843701857756  0.6163564266247579  1.0000
  H   H9        1.0  0.9066958414637969  0.34534129249944456  0.6625246509308904  1.0000
  H   H10       1.0  0.88293672779372  0.12692226783656335  0.42276047024624974  1.0000
  H   H11       1.0  0.8846595761191827  0.7097830576304083  0.42171640274445044  1.0000
  H   H12       1.0  0.9179114667086791  0.889205008696419  0.7817983777215232  1.0000
  H   H13       1.0  0.9262818547449325  0.5546179778145485  0.8660308781945647  1.0000
  H   H14       1.0  0.946923836905336  0.08880165633503045  0.2250484336579579  1.0000
  H   H15       1.0  0.9228374914491285  0.11023705483542523  0.9899002065393026  1.0000
  H   H16       1.0  0.76415688249806  0.797070086046255  0.026519244930636177  1.0000
  H   H17       1.0  0.7859288105694902  0.7783382805080721  0.26321925339854046  1.0000
  H   H18       1.0  0.7752429430109601  0.9349296559957446  0.8180265559739182  1.0000
  H   H19       1.0  0.8047953129569272  0.08009333125083473  0.60930516757958  1.0000
  H   H20       1.0  0.8520701189772759  0.9320741057326314  0.5707993522680832  1.0000
  H   H21       1.0  0.901789172719298  0.08474907831547074  0.5630096951348422  1.0000
  C   C29       1.0  0.9016116655260863  0.4032194016953623  0.2289067184212985  1.0000
  C   C30       1.0  0.969698384249789  0.4708179737485956  0.22581036574449698  1.0000
  C   C31       1.0  0.004234604835305911  0.5049621150851575  0.10711314685352868  1.0000
  C   C32       1.0  0.9697706969248749  0.4706023034888629  0.9905442796269637  1.0000
  C   C33       1.0  0.9016833485857599  0.4030057495723762  0.991648643349087  1.0000
  C   C34       1.0  0.8679853851442061  0.3696917483990736  0.11131620193653258  1.0000
  C   C35       1.0  0.07626437863639701  0.5764734499111535  0.10489146844334485  1.0000
  C   C36       1.0  0.08805968919320728  0.6792560110121661  0.18523653123013384  1.0000
  C   C37       1.0  0.1558934552158624  0.7464485213754108  0.1829455717856021  1.0000
  C   C38       1.0  0.212685810618656  0.7119101935362513  0.10068644451630027  1.0000
  C   C39       1.0  0.20161498935202893  0.6099988918525356  0.020518562250243955  1.0000
  C   C40       1.0  0.13385748630464822  0.5425788131163565  0.022407300021628274  1.0000
  I   I1        1.0  0.3149545776960092  0.813438735033283  0.09753609816676412  1.0000
  H   H22       1.0  0.8756456838287432  0.37752673856849417  0.5575339925274672  1.0000
  H   H23       1.0  0.9965574340001254  0.49551058839091944  0.31606628236941225  1.0000
  H   H24       1.0  0.9956374938634471  0.49825641460616876  0.898662127987274  1.0000
  H   H25       1.0  0.8154591594012441  0.317543672380979  0.11293651706186725  1.0000
  H   H26       1.0  0.8757506605747362  0.37721239941541596  0.6646192737756218  1.0000
  H   H27       1.0  0.04449045228912096  0.708738423083136  0.2485318099512397  1.0000
  H   H28       1.0  0.16419045401513532  0.8255595943656868  0.2449053507323562  1.0000
  H   H29       1.0  0.2455527048092978  0.582745244949399  0.9569491296646335  1.0000
  H   H30       1.0  0.12686615241053545  0.46289977153822903  0.9606711322111128  1.0000
  Zn  Zn1       1.0  0.8193276559010197  0.4048189983157693  0.6063364602858201  1.0000
  Zn  Zn2       1.0  0.9839601617110408  0.4014056744925065  0.6142179230086777  1.0000
  C   C41       1.0  0.9016692576404026  0.39787207651249656  0.8474755653462922  1.0000
  C   C42       1.0  0.901620357404901  0.4083541977366214  0.3730790309774785  1.0000
  C   C43       1.0  0.9015909576592677  0.6403250973875856  0.6050294414131221  1.0000
  C   C44       1.0  0.901698601558322  0.16589961758016325  0.6155252219393896  1.0000
  O   O2        1.0  0.964100453690974  0.4087764774006344  0.42445555187023376  1.0000
  O   O3        1.0  0.964141424107713  0.39485818334984457  0.8020805187483799  1.0000
  O   O4        1.0  0.9640773537873698  0.5906420810269428  0.6063035175907858  1.0000
  O   O5        1.0  0.9641644678221996  0.2129925902065095  0.62023245296038  1.0000
  O   O6        1.0  0.8391232936088657  0.5932320837679828  0.6003219276377298  1.0000
  O   O7        1.0  0.8391873635759276  0.3974497465384692  0.7960988590701958  1.0000
  O   O8        1.0  0.8391463930723778  0.411367995766031  0.41847233079934476  1.0000
  O   O9        1.0  0.8392104072117256  0.2155840992551481  0.6142493292605513  1.0000
