data_image0
_chemical_formula_structural       NC8NC6H8C12BrH9C12NH11Zn2C4O8
_chemical_formula_sum              "N3 C42 H28 Br1 Zn2 O8"
_cell_length_a       17.457602349358154
_cell_length_b       10.299144633409057
_cell_length_c       10.299774167527174
_cell_angle_alpha    85.56689002636797
_cell_angle_beta     92.86883644785563
_cell_angle_gamma    91.66318000871517

_space_group_name_H-M_alt    "P 1"
_space_group_IT_number       1

loop_
  _space_group_symop_operation_xyz
  'x, y, z'

loop_
  _atom_site_type_symbol
  _atom_site_label
  _atom_site_symmetry_multiplicity
  _atom_site_fract_x
  _atom_site_fract_y
  _atom_site_fract_z
  _atom_site_occupancy
  N   N1        1.0  0.7221378085155289  0.45250012724904254  0.6262628389234182  1.0000
  C   C1        1.0  0.661072654620636  0.4065694659644965  0.6156574301481315  1.0000
  C   C2        1.0  0.5851050179890563  0.3494374408107983  0.6024738419074094  1.0000
  C   C3        1.0  0.5265607193367857  0.38962342445556364  0.6773593018352031  1.0000
  C   C4        1.0  0.4520305674812525  0.3346099499962336  0.6647896697769324  1.0000
  C   C5        1.0  0.3898944809501705  0.3770405005404873  0.74409623927956  1.0000
  C   C6        1.0  0.3153467904475234  0.39549337251847416  0.688331507026023  1.0000
  C   C7        1.0  0.2568025298242188  0.43549545329863215  0.763324954614838  1.0000
  C   C8        1.0  0.1808166767681769  0.4545535549024604  0.705344740110841  1.0000
  N   N2        1.0  0.11973696908226411  0.46986988861836254  0.6587288000511595  1.0000
  C   C9        1.0  0.27231369836074676  0.4572879659113085  0.8945915753991349  1.0000
  C   C10       1.0  0.3460765562228983  0.4392242145983045  0.9507438038887086  1.0000
  C   C11       1.0  0.4046091333221995  0.39940233229870326  0.8762080168886766  1.0000
  C   C12       1.0  0.4373336360386109  0.23873261542359692  0.5759018724593796  1.0000
  C   C13       1.0  0.4958661160116835  0.19882544386168544  0.5014163368984652  1.0000
  C   C14       1.0  0.569611435046992  0.2539514619021417  0.5145358679775682  1.0000
  H   H1        1.0  0.5388804623958255  0.4648412106950448  0.7439707232615842  1.0000
  H   H2        1.0  0.3030127065994665  0.38049223102221985  0.5863151931505486  1.0000
  H   H3        1.0  0.2274405918546921  0.48818965591541175  0.9534179552034112  1.0000
  H   H4        1.0  0.3578965458461141  0.4557829847993662  0.052386543103675964  1.0000
  H   H5        1.0  0.4610955235878536  0.38442337495482914  0.9223154207658757  1.0000
  H   H6        1.0  0.38086160789906  0.19339164131875997  0.5652602227506796  1.0000
  H   H7        1.0  0.4840599718459652  0.12472382174207541  0.43360641445441095  1.0000
  H   H8        1.0  0.6144847786803457  0.2221801810012256  0.456220773766455  1.0000
  C   C15       1.0  0.9210411305395753  0.07979475361736377  0.6425830962120049  1.0000
  C   C16       1.0  0.888332179112812  0.08727003402361722  0.5149571425288453  1.0000
  C   C17       1.0  0.871644785890381  0.9739191221839344  0.4501636991879576  1.0000
  C   C18       1.0  0.8881077178954377  0.8519945877700016  0.514717580857633  1.0000
  C   C19       1.0  0.9208409912376053  0.8425655926356261  0.6424203767583054  1.0000
  C   C20       1.0  0.9371052599368801  0.9569685896461654  0.7055680007258087  1.0000
  C   C21       1.0  0.8370438552352325  0.9828722953811354  0.31515005110620864  1.0000
  C   C22       1.0  0.8627273912948721  0.0792748144777442  0.22178410060028164  1.0000
  C   C23       1.0  0.8300929396327422  0.08749163835828422  0.09475077003168009  1.0000
  C   C24       1.0  0.7715087104367332  0.9998329411224787  0.0594336365590753  1.0000
  C   C25       1.0  0.7455277620316494  0.9037368168729948  0.15133480699440893  1.0000
  C   C26       1.0  0.7780285235301958  0.8950968518692416  0.2784574953891532  1.0000
  Br  Br1       1.0  0.7270220204922305  0.011345363623785465  0.8858454383131136  1.0000
  H   H9        1.0  0.9336542892682405  0.4043982268275821  0.6916525733108481  1.0000
  H   H10       1.0  0.8747869495792109  0.1813844760981309  0.4662922416910824  1.0000
  H   H11       1.0  0.8763293109603806  0.7643974798109078  0.46459293322400375  1.0000
  H   H12       1.0  0.9623368959767907  0.9504871951207616  0.8040075319380906  1.0000
  H   H13       1.0  0.9830647133734793  0.6175216342727922  0.8831547148880057  1.0000
  H   H14       1.0  0.9086942892259554  0.14717138388668816  0.24653869795560213  1.0000
  H   H15       1.0  0.8505224850911672  0.16183285041193285  0.02376408707734745  1.0000
  H   H16       1.0  0.7000205078899443  0.8358857718636884  0.12446923402798449  1.0000
  H   H17       1.0  0.756351457785144  0.8209152275361533  0.3484824918437326  1.0000
  C   C27       1.0  0.9209671883062681  0.461066771191436  0.2611517999040929  1.0000
  C   C28       1.0  0.845842964214714  0.4084796143238265  0.2578477577569813  1.0000
  C   C29       1.0  0.8077500330819324  0.38194793643574165  0.13902353605224382  1.0000
  C   C30       1.0  0.8457901966696771  0.4087086259546946  0.022538693594863712  1.0000
  C   C31       1.0  0.9209149093595183  0.4612935775180227  0.023851631703927678  1.0000
  C   C32       1.0  0.9580826037749649  0.4871786781069247  0.1436430727970135  1.0000
  C   C33       1.0  0.728272957806236  0.32631433905256757  0.13658139947968517  1.0000
  C   C34       1.0  0.7067375192708542  0.2269129342152829  0.23014055813404766  1.0000
  C   C35       1.0  0.6319301181711308  0.17460596391780125  0.22770801194816204  1.0000
  C   C36       1.0  0.5774748368094059  0.2207559966977528  0.1319475523657776  1.0000
  C   C37       1.0  0.5985041141485662  0.3197451017502515  0.03850650268554734  1.0000
  C   C38       1.0  0.6732884517313383  0.37215233325532204  0.04067086608348869  1.0000
  N   N3        1.0  0.5009642424025474  0.16719848787903646  0.12959635781054657  1.0000
  H   H18       1.0  0.9496060188665201  0.4810517864555566  0.5898694687394865  1.0000
  H   H19       1.0  0.8163931315731403  0.3896887157981048  0.3477320745282886  1.0000
  H   H20       1.0  0.8170636795105524  0.38677670301534484  0.9308665826911078  1.0000
  H   H21       1.0  0.016037650677556803  0.5277463689152257  0.14542401586146236  1.0000
  H   H22       1.0  0.9495293003557266  0.4813854078724069  0.6968933620427196  1.0000
  H   H23       1.0  0.7480169650506091  0.18844535371808768  0.30416877873183856  1.0000
  H   H24       1.0  0.6164737913339902  0.09787888705602699  0.30027886846875296  1.0000
  H   H25       1.0  0.5569048319341899  0.35653328562077724  0.9641824323288288  1.0000
  H   H26       1.0  0.6878476781966326  0.4497067729094686  0.9683586083774185  1.0000
  H   H27       1.0  0.4599708294211209  0.20096647974365456  0.058577676047451455  1.0000
  H   H28       1.0  0.4847475127520272  0.0933836636665124  0.1988574234413849  1.0000
  Zn  Zn1       1.0  0.8368763380728711  0.4575091845034871  0.6356393128398796  1.0000
  Zn  Zn2       1.0  0.004998427340549894  0.46485018610547324  0.6493629604046407  1.0000
  C   C39       1.0  0.920924446965708  0.45607663511801233  0.8796860268811166  1.0000
  C   C40       1.0  0.9209521538969696  0.4662844544042375  0.40531652333572854  1.0000
  C   C41       1.0  0.9208752187378625  0.69838393193427  0.6372758951731832  1.0000
  C   C42       1.0  0.921001325161197  0.22397559471312745  0.6477267199288035  1.0000
  O   O1        1.0  0.9847485664000871  0.47081576234402855  0.4589075754185783  1.0000
  O   O2        1.0  0.9847288104191245  0.4571159976460766  0.8365105321379183  1.0000
  O   O3        1.0  0.9846881978358764  0.65278216706582  0.6407625651957152  1.0000
  O   O4        1.0  0.9847891216188892  0.2751495996810924  0.6546554403060267  1.0000
  O   O5        1.0  0.8570855864227138  0.6472097684241562  0.6303468282484554  1.0000
  O   O6        1.0  0.8571261985977622  0.4515451593755526  0.8260947256154785  1.0000
  O   O7        1.0  0.8571459547486192  0.4652448783529888  0.4484902075869799  1.0000
  O   O8        1.0  0.8571865099600494  0.26957870642953363  0.6442381698391448  1.0000
