data_image0
_chemical_formula_structural       NC10NC3NH7C12OCH12C12OCH12Zn2C4O8
_chemical_formula_sum              "N3 C43 H31 O10 Zn2"
_cell_length_a       19.210446455230148
_cell_length_b       10.29979075500242
_cell_length_c       10.299794127170987
_cell_angle_alpha    85.57270427699777
_cell_angle_beta     89.98403246644892
_cell_angle_gamma    89.92936594805748

_space_group_name_H-M_alt    "P 1"
_space_group_IT_number       1

loop_
  _space_group_symop_operation_xyz
  'x, y, z'

loop_
  _atom_site_type_symbol
  _atom_site_label
  _atom_site_symmetry_multiplicity
  _atom_site_fract_x
  _atom_site_fract_y
  _atom_site_fract_z
  _atom_site_occupancy
  N   N1        1.0  0.6553202212082094  0.4197675532823262  0.567334073207516  1.0000
  C   C1        1.0  0.5950911163567615  0.42197508994656996  0.567565121655522  1.0000
  C   C2        1.0  0.5202859880695578  0.42471203110794153  0.5678513617698693  1.0000
  C   C3        1.0  0.4846456673227291  0.5409444543397006  0.5829577442299305  1.0000
  C   C4        1.0  0.4119801521863447  0.5410959743101211  0.5829051434705932  1.0000
  C   C5        1.0  0.3751190539614436  0.42542100808476246  0.5679378122612959  1.0000
  C   C6        1.0  0.2977972692363595  0.424064516941693  0.5677872820135867  1.0000
  C   C7        1.0  0.2600198361106092  0.5276158605183034  0.5044245825171665  1.0000
  C   C8        1.0  0.1872418349807372  0.5262136264078336  0.5043155697394215  1.0000
  C   C9        1.0  0.1512397938001776  0.4215175397280577  0.5675182519532922  1.0000
  C   C10       1.0  0.0763106041987886  0.4202154453391924  0.5673814821254108  1.0000
  N   N2        1.0  0.0160730175749087  0.41916851725211157  0.5672715540596807  1.0000
  C   C11       1.0  0.1882935390991967  0.3180918794766785  0.6308559392389439  1.0000
  C   C12       1.0  0.2610734555348816  0.31921986443889905  0.6310152062665535  1.0000
  C   C13       1.0  0.4133687708012533  0.3110088846790826  0.5531195070814556  1.0000
  N   N3        1.0  0.48413810086006775  0.3134538580593429  0.553284963811673  1.0000
  H   H1        1.0  0.5127238055816299  0.6303796337279381  0.5950019865141074  1.0000
  H   H2        1.0  0.3846882725019539  0.6311133855975544  0.5963440148617689  1.0000
  H   H3        1.0  0.2867286511359877  0.6088538572697657  0.4534333051666044  1.0000
  H   H4        1.0  0.1590771144815631  0.6066242942106308  0.4546546511267078  1.0000
  H   H5        1.0  0.1609451728353892  0.23671780618929716  0.6804174167548349  1.0000
  H   H6        1.0  0.288593219325008  0.23892876952150077  0.6821137731404765  1.0000
  H   H7        1.0  0.38712667440764  0.22012855646726148  0.5396344254956498  1.0000
  C   C14       1.0  0.8357624976109248  0.03810019705496659  0.5673417527048601  1.0000
  C   C15       1.0  0.8156045817439375  0.0270045185797112  0.6987774668515268  1.0000
  C   C16       1.0  0.8053351752306298  0.9042460510260805  0.7653438025553057  1.0000
  C   C17       1.0  0.8154795274520276  0.7917224145170046  0.698711706362338  1.0000
  C   C18       1.0  0.8356374124760896  0.8008258780129492  0.5672750597477492  1.0000
  C   C19       1.0  0.8456676450601338  0.9244563071975889  0.5023267102136053  1.0000
  C   C20       1.0  0.7840134829059459  0.8935615485259274  0.9043966635973848  1.0000
  C   C21       1.0  0.7332203661799319  0.802792324180175  0.9494690168627387  1.0000
  C   C22       1.0  0.7132156483255999  0.7930098851130566  0.0802057134787072  1.0000
  C   C23       1.0  0.7435536261489931  0.8733293435612306  0.16754473958772143  1.0000
  C   C24       1.0  0.7945319424298601  0.9647078711357686  0.12434397668458363  1.0000
  C   C25       1.0  0.8143208964709535  0.9741293329035535  0.9930806412050361  1.0000
  O   O1        1.0  0.8267027536714645  0.047377930720554184  0.20820309856194952  1.0000
  C   C26       1.0  0.8117708069278298  0.04841774240687147  0.3435357658691963  1.0000
  H   H8        1.0  0.8434739892531762  0.36977955949339725  0.5172803893800106  1.0000
  H   H9        1.0  0.8069208031261363  0.11405920361599842  0.7492054887167239  1.0000
  H   H10       1.0  0.8085370073903059  0.6968480029420488  0.7500784978281012  1.0000
  H   H11       1.0  0.8612191612049392  0.9322477569884157  0.40092960979170456  1.0000
  H   H12       1.0  0.843283851570729  0.4768433023721709  0.5171760742745957  1.0000
  H   H13       1.0  0.708326863682424  0.7405863768771888  0.8832667498649529  1.0000
  H   H14       1.0  0.6738999801139977  0.7231144112699265  0.11388982619818466  1.0000
  H   H15       1.0  0.727051085383612  0.8636350122465566  0.2682097073586194  1.0000
  H   H16       1.0  0.8541981200199797  0.043598081466738936  0.9609092214283326  1.0000
  H   H17       1.0  0.8237921774503226  0.9518826945169782  0.39415400923876465  1.0000
  H   H18       1.0  0.8446162448026668  0.12301385883781069  0.3857425086026972  1.0000
  H   H19       1.0  0.7562009299395063  0.07342465358800188  0.3579802395323839  1.0000
  C   C27       1.0  0.8357234418795609  0.41934953720603985  0.18595700310412866  1.0000
  C   C28       1.0  0.7675210232621202  0.3703403671195633  0.1887797632052144  1.0000
  C   C29       1.0  0.7329431594526294  0.34560965335103067  0.0730632045738604  1.0000
  C   C30       1.0  0.7674736620262432  0.37056691134748854  0.9534748599802803  1.0000
  C   C31       1.0  0.8356764703172782  0.4195765882123488  0.9486598379323739  1.0000
  C   C32       1.0  0.8694201602911269  0.443690586038608  0.06542068792660372  1.0000
  C   C33       1.0  0.6607908580970575  0.2937536292764691  0.07710422201923728  1.0000
  C   C34       1.0  0.6109504957701464  0.3425032167627302  0.9859602860333045  1.0000
  C   C35       1.0  0.5431385525802188  0.2936860418475826  0.9900275801294258  1.0000
  C   C36       1.0  0.5241812042611812  0.195784127921238  0.08472612728462536  1.0000
  C   C37       1.0  0.5733350649352468  0.14563109090845172  0.1767328873505778  1.0000
  C   C38       1.0  0.6412415262363603  0.19508765156497665  0.1722141452436936  1.0000
  O   O2        1.0  0.5569665868477505  0.04708591375619564  0.2735659978168039  1.0000
  C   C39       1.0  0.49025260310694113  0.9879234430179955  0.28961994902207877  1.0000
  H   H20       1.0  0.861720756720839  0.4379658068382397  0.5123389722952048  1.0000
  H   H21       1.0  0.7407812043102843  0.3529560263929248  0.2810629452185329  1.0000
  H   H22       1.0  0.7413831820084239  0.3500158949818568  0.8641496543393608  1.0000
  H   H23       1.0  0.9220357525328627  0.4814982598455728  0.06247465583025913  1.0000
  H   H24       1.0  0.8616506396219084  0.4383126905002266  0.6193677312430661  1.0000
  H   H25       1.0  0.6241760987090433  0.41954695326650815  0.9126325514434726  1.0000
  H   H26       1.0  0.5050735938553688  0.33214443459014986  0.919692945256191  1.0000
  H   H27       1.0  0.4713044883480794  0.15983791078008625  0.0855668960870255  1.0000
  H   H28       1.0  0.6789999291885614  0.15487975745974136  0.24237521996864753  1.0000
  H   H29       1.0  0.4759132252804514  0.939491766342936  0.20076613832410706  1.0000
  H   H30       1.0  0.4920534992347826  0.9134450209553329  0.3732980379140107  1.0000
  H   H31       1.0  0.45059403479600535  0.06224723824266931  0.3098973924593518  1.0000
  Zn  Zn1       1.0  0.7594256848168952  0.41959122261223314  0.5673235305579578  1.0000
  Zn  Zn2       1.0  0.9119675391067248  0.4193342685700756  0.5672927329234339  1.0000
  C   C40       1.0  0.8356846246348043  0.4143599924810195  0.8044931376044844  1.0000
  C   C41       1.0  0.8357102647644932  0.424567134548294  0.33012325285802313  1.0000
  C   C42       1.0  0.8356577748365597  0.6566529783218997  0.5621127703808801  1.0000
  C   C43       1.0  0.8357370627625277  0.18227258851749317  0.5725036894639288  1.0000
  O   O3        1.0  0.8935946820580603  0.42621502943427303  0.37849507620365186  1.0000
  O   O4        1.0  0.8935759453527046  0.4125160955915197  0.7560975658235767  1.0000
  O   O5        1.0  0.8935534833486227  0.6081707475875169  0.5603737044487689  1.0000
  O   O6        1.0  0.8936170920144162  0.23056038678716995  0.5742188402179542  1.0000
  O   O7        1.0  0.7777760798541559  0.6083651044842364  0.5603974232671161  1.0000
  O   O8        1.0  0.7777985416033999  0.41271201276725766  0.7561212152633017  1.0000
  O   O9        1.0  0.777817278458679  0.4264109008893402  0.3785171643182361  1.0000
  O   O10       1.0  0.7778396884077126  0.2307562489824413  0.5742410256967228  1.0000
