data_image0
_chemical_formula_structural       NC11NC3H8C12BrH9C12NH11Zn2C4O8
_chemical_formula_sum              "N3 C42 H28 Br1 Zn2 O8"
_cell_length_a       17.807433833752565
_cell_length_b       10.299144633409057
_cell_length_c       10.299774167527174
_cell_angle_alpha    85.56689002636797
_cell_angle_beta     88.5175958409119
_cell_angle_gamma    90.65887280956916

_space_group_name_H-M_alt    "P 1"
_space_group_IT_number       1

loop_
  _space_group_symop_operation_xyz
  'x, y, z'

loop_
  _atom_site_type_symbol
  _atom_site_label
  _atom_site_symmetry_multiplicity
  _atom_site_fract_x
  _atom_site_fract_y
  _atom_site_fract_z
  _atom_site_occupancy
  N   N1        1.0  0.7071398251813394  0.4381271339248862  0.5344853004211596  1.0000
  C   C1        1.0  0.656324894862835  0.40341808499219445  0.601050245696388  1.0000
  C   C2        1.0  0.5931059957448561  0.36024288824357287  0.683848543261006  1.0000
  C   C3        1.0  0.6048413733053666  0.29672529223098265  0.8065716692308105  1.0000
  C   C4        1.0  0.5435295860640793  0.255229292750323  0.8870858675154536  1.0000
  C   C5        1.0  0.47032811198644997  0.27693779213823677  0.845517756972211  1.0000
  C   C6        1.0  0.4576159316553006  0.3406098123311716  0.7223344302223944  1.0000
  C   C7        1.0  0.3798460796409808  0.36364768547182713  0.6779855807401403  1.0000
  C   C8        1.0  0.3610753530117845  0.3467360527555601  0.5484142193427246  1.0000
  C   C9        1.0  0.28784394925256157  0.3684058088158897  0.5068020458220708  1.0000
  C   C10       1.0  0.2324401704902796  0.4073055006730466  0.5939409458645233  1.0000
  C   C11       1.0  0.15707196580224742  0.4296333569582975  0.550967433694088  1.0000
  N   N2        1.0  0.096481302895745  0.4475832946157059  0.5164198575183732  1.0000
  C   C12       1.0  0.2505193144998605  0.42442756527653325  0.7229811635949752  1.0000
  C   C13       1.0  0.3236979487093159  0.402722952896865  0.7648487600223453  1.0000
  C   C14       1.0  0.5197850308741601  0.38210125147939644  0.6418366477395927  1.0000
  H   H1        1.0  0.6613094396003415  0.27931968925745654  0.8399385082888831  1.0000
  H   H2        1.0  0.5527341458163602  0.20580221330612636  0.9818256975305784  1.0000
  H   H3        1.0  0.4236935466395073  0.24239855463016813  0.9089595393529954  1.0000
  H   H4        1.0  0.4027663459077744  0.31507202280412905  0.4797062531909977  1.0000
  H   H5        1.0  0.2744126082707811  0.3544946254111063  0.4067746154386036  1.0000
  H   H6        1.0  0.2081118859415019  0.45486834561261835  0.7911745891799671  1.0000
  H   H7        1.0  0.3366004725468091  0.41817958012119405  0.8646931879085937  1.0000
  H   H8        1.0  0.5112785834428601  0.43289083122557614  0.5473308960961647  1.0000
  C   C15       1.0  0.9019121507755439  0.061462909107336205  0.5255266468425606  1.0000
  C   C16       1.0  0.8698825271759524  0.0695892086611174  0.4020577211027365  1.0000
  C   C17       1.0  0.8535417121862215  0.9565704325835493  0.3393851027012358  1.0000
  C   C18       1.0  0.8696627277635102  0.8343182299475481  0.4018466865322754  1.0000
  C   C19       1.0  0.9017161681399056  0.8242377315769801  0.5253893633822067  1.0000
  C   C20       1.0  0.9176426464229771  0.938317014439499  0.5864699379179306  1.0000
  C   C21       1.0  0.8196594036211974  0.9662122817362976  0.20876893693930199  1.0000
  C   C22       1.0  0.8448095217635874  0.06210361129543451  0.1121388286898084  1.0000
  C   C23       1.0  0.8128528506530049  0.07096997152533358  0.9892530577817076  1.0000
  C   C24       1.0  0.7554853494592789  0.9844772992853194  0.9613814787271924  1.0000
  C   C25       1.0  0.7300439958885757  0.8888982840883989  0.05658460547121691  1.0000
  C   C26       1.0  0.7618697534286596  0.879611443623286  0.17957672508170508  1.0000
  Br  Br1       1.0  0.7119225976142818  0.9968751579042845  0.7934471582467673  1.0000
  H   H9        1.0  0.9142633485015124  0.38581533764981146  0.5729930993563388  1.0000
  H   H10       1.0  0.8566186166986411  0.16397324677583924  0.3551143030766786  1.0000
  H   H11       1.0  0.8581289449830565  0.7469555522623584  0.353218973670971  1.0000
  H   H12       1.0  0.9423502499965658  0.9313334247207641  0.6817027440137307  1.0000
  H   H13       1.0  0.9626475741325445  0.5979553099564178  0.7582155986723422  1.0000
  H   H14       1.0  0.8898217393539308  0.1290852834239633  0.1310514265057734  1.0000
  H   H15       1.0  0.8328580976206194  0.14490456628651138  0.9156699543480915  1.0000
  H   H16       1.0  0.6854818758073697  0.8219529878880684  0.0355026152501805  1.0000
  H   H17       1.0  0.7406428957560067  0.8058612664704548  0.25235669117306614  1.0000
  C   C27       1.0  0.9018397442385676  0.4427363983828114  0.14410474796002104  1.0000
  C   C28       1.0  0.8282757650859057  0.39164446854613355  0.15034835210384134  1.0000
  C   C29       1.0  0.7909739809330256  0.36587096927494533  0.03636541611005373  1.0000
  C   C30       1.0  0.8282240934629377  0.3918745304302409  0.9150459942453395  1.0000
  C   C31       1.0  0.9017885510662542  0.44296424523787303  0.906811223966808  1.0000
  C   C32       1.0  0.9381843146191429  0.4681095825608055  0.02187896902150821  1.0000
  C   C33       1.0  0.7131475543789153  0.31181923543483836  0.044024135980887946  1.0000
  C   C34       1.0  0.6920593824794017  0.21284645891565557  0.14032026466512226  1.0000
  C   C35       1.0  0.6188056462643271  0.16202840979627142  0.14739509927791938  1.0000
  C   C36       1.0  0.5654813393408478  0.20926228749646913  0.05855544016172476  1.0000
  C   C37       1.0  0.5860738624381673  0.3078328385565814  0.9624417492101043  1.0000
  C   C38       1.0  0.6593050141393825  0.35875160792581906  0.9551016629850881  1.0000
  N   N3        1.0  0.4905597832121011  0.15722759918329854  0.06592808770588587  1.0000
  H   H18       1.0  0.9298837787662779  0.4621514037186325  0.4691826663995642  1.0000
  H   H19       1.0  0.7994375720703765  0.3734397216426695  0.24397549069845592  1.0000
  H   H20       1.0  0.800094193487571  0.37051436268011617  0.827024777954104  1.0000
  H   H21       1.0  0.9949357009221546  0.5075237712363985  0.01629432135551534  1.0000
  H   H22       1.0  0.9298086536119501  0.46248655209423006  0.5762163099692907  1.0000
  H   H23       1.0  0.732481500983741  0.17355727734506288  0.20910222079686736  1.0000
  H   H24       1.0  0.603670329807169  0.08560896629730785  0.2219303227305165  1.0000
  H   H25       1.0  0.5453385501392397  0.3454489893310775  0.8934045917944835  1.0000
  H   H26       1.0  0.6735618619820506  0.43601626955931216  0.8809390521307341  1.0000
  H   H27       1.0  0.45041775692924785  0.19181149909783235  0.00011931808681109324  1.0000
  H   H28       1.0  0.47467985664565376  0.08373554293037677  0.13725016096204246  1.0000
  Zn  Zn1       1.0  0.8194953656003235  0.4408525050187335  0.5292794886714147  1.0000
  Zn  Zn2       1.0  0.9841257497346996  0.4448473064381604  0.5216362567584722  1.0000
  C   C39       1.0  0.9017978905871799  0.43774711300712843  0.7626444069958329  1.0000
  C   C40       1.0  0.9018250220769002  0.4479543808313846  0.2882713821364784  1.0000
  C   C41       1.0  0.9017496847737986  0.6800553896322012  0.5202405317745746  1.0000
  C   C42       1.0  0.9018731721097327  0.20564454246522912  0.5306753294824669  1.0000
  O   O1        1.0  0.9642964554413826  0.45121592363743024  0.3337544558864296  1.0000
  O   O2        1.0  0.9642771097697401  0.43751655215055085  0.7113599234219632  1.0000
  O   O3        1.0  0.964237340663789  0.6331835298985407  0.5156171179917024  1.0000
  O   O4        1.0  0.9643361683742825  0.2555489537879956  0.5294971665524659  1.0000
  O   O5        1.0  0.8392848907804701  0.6301508563070808  0.5214185814788503  1.0000
  O   O6        1.0  0.8393246594866995  0.4344854389383557  0.7171613173858098  1.0000
  O   O7        1.0  0.8393440053247079  0.4481847647013377  0.33955428851952507  1.0000
  O   O8        1.0  0.839383718250389  0.2525177855915304  0.5352970965512152  1.0000
