data_image0
_chemical_formula_structural       NC10NC3NH7C16H10C16H10Zn2C4O8
_chemical_formula_sum              "N3 C49 H27 Zn2 O8"
_cell_length_a       19.210446455230148
_cell_length_b       10.29914801576943
_cell_length_c       10.299151387937775
_cell_angle_alpha    85.56202673548964
_cell_angle_beta     89.97931430287453
_cell_angle_gamma    89.9607823085547

_space_group_name_H-M_alt    "P 1"
_space_group_IT_number       1

loop_
  _space_group_symop_operation_xyz
  'x, y, z'

loop_
  _atom_site_type_symbol
  _atom_site_label
  _atom_site_symmetry_multiplicity
  _atom_site_fract_x
  _atom_site_fract_y
  _atom_site_fract_z
  _atom_site_occupancy
  N   N1        1.0  0.6558010154794788  0.41968403839221935  0.5667893405081885  1.0000
  C   C1        1.0  0.5955725495175999  0.4218918017618112  0.5670196678593675  1.0000
  C   C2        1.0  0.5207682133460722  0.42462902396473146  0.5673050139345719  1.0000
  C   C3        1.0  0.4851614017583066  0.5408738103359503  0.5823735793988212  1.0000
  C   C4        1.0  0.4124959334998055  0.5410253359387016  0.5823209256399497  1.0000
  C   C5        1.0  0.3756014838837133  0.4253380755267273  0.5673912334641054  1.0000
  C   C6        1.0  0.2982793069507623  0.4239814438366467  0.567241145879251  1.0000
  C   C7        1.0  0.26053512275028  0.527532660923191  0.5038408219440869  1.0000
  C   C8        1.0  0.1877567141271527  0.5261302882833852  0.5037322691421109  1.0000
  C   C9        1.0  0.1517210944950383  0.4214342047024797  0.5669729476691263  1.0000
  C   C10       1.0  0.0767915280723227  0.42013197652284573  0.5668366031483199  1.0000
  N   N2        1.0  0.0165536384695586  0.4190849408691759  0.5667270170459386  1.0000
  C   C11       1.0  0.1887416289302121  0.3180086783133105  0.6303482163846061  1.0000
  C   C12       1.0  0.2615218699977956  0.3191367850912916  0.6305071170632905  1.0000
  C   C13       1.0  0.4138182140704066  0.31091379006743325  0.5526101556701324  1.0000
  N   N3        1.0  0.484588255733796  0.3133590014206027  0.5527748091135221  1.0000
  H   H1        1.0  0.5132653050881819  0.6303185635561082  0.5943887448856835  1.0000
  H   H2        1.0  0.3852299284398256  0.6310525742666719  0.5957305983328676  1.0000
  H   H3        1.0  0.2872700788580514  0.6087703725162847  0.4528199618647595  1.0000
  H   H4        1.0  0.1596178326384942  0.6065407914545493  0.45404211059887656  1.0000
  H   H5        1.0  0.1613671447723809  0.23663467092151125  0.6799392486008762  1.0000
  H   H6        1.0  0.289015766389399  0.23884607376215627  0.6816349577773642  1.0000
  H   H7        1.0  0.3875499913635345  0.2200235525932288  0.5391545569146017  1.0000
  C   C14       1.0  0.8361310663631087  0.03798328071544321  0.566923738211903  1.0000
  C   C15       1.0  0.8202514846480871  0.047550664400936915  0.4334520298500315  1.0000
  C   C16       1.0  0.8122513701342103  0.9352716142333445  0.36561442726840454  1.0000
  C   C17       1.0  0.8203444494843122  0.8122985197418645  0.43304742205657965  1.0000
  C   C18       1.0  0.8362302269919196  0.8007757203164901  0.5666038825420869  1.0000
  C   C19       1.0  0.8440269677706569  0.9141340832813968  0.632719688414435  1.0000
  C   C20       1.0  0.7954528595847972  0.9464383577155729  0.22441745652107903  1.0000
  C   C21       1.0  0.8283956468466164  0.8653616552703509  0.1391937725059047  1.0000
  C   C22       1.0  0.8125611490532003  0.8759966266191797  0.006304630599061278  1.0000
  C   C23       1.0  0.7636213194002489  0.9676080982292269  0.9568349391683402  1.0000
  C   C24       1.0  0.7305517411371795  0.04866477071040043  0.040774699667684766  1.0000
  C   C25       1.0  0.746336606149669  0.03827115655388447  0.1736847968009958  1.0000
  C   C26       1.0  0.7473453786054146  0.9784330588316017  0.8200131142065668  1.0000
  C   C27       1.0  0.7337144535945227  0.9874988600451181  0.7054268151648397  1.0000
  C   C28       1.0  0.7177528013955213  0.9981147908649922  0.5712474274398893  1.0000
  C   C29       1.0  0.7041241641275524  0.007179219115243773  0.45667963583187143  1.0000
  H   H8        1.0  0.8422032334234063  0.3617779204917826  0.6182767748008626  1.0000
  H   H9        1.0  0.8150057483797266  0.14259222104503255  0.38154267137845554  1.0000
  H   H10       1.0  0.8133019402623681  0.7253946909538503  0.38163295727559166  1.0000
  H   H11       1.0  0.8562732606558014  0.9060386276962918  0.7356706991094493  1.0000
  H   H12       1.0  0.865782706326836  0.5717212700401197  0.8188630132073593  1.0000
  H   H13       1.0  0.8670604316889796  0.7949082980020811  0.17503691337069616  1.0000
  H   H14       1.0  0.8386108227679412  0.8130026579596369  0.9421250503804104  1.0000
  H   H15       1.0  0.6924407661814189  0.11968096697363206  0.0035615656239311733  1.0000
  H   H16       1.0  0.7194755579829231  0.10087631772781536  0.23706172701114925  1.0000
  H   H17       1.0  0.6921571234411816  0.01513855273208553  0.3560794543921464  1.0000
  C   C30       1.0  0.8362209709198206  0.4192106773252988  0.18539288226867612  1.0000
  C   C31       1.0  0.7690649441570184  0.4732797617511746  0.18047339075025182  1.0000
  C   C32       1.0  0.7349739557187122  0.5008679294769218  0.06082308596605546  1.0000
  C   C33       1.0  0.768943900379798  0.4736575885904186  0.9451609190915256  1.0000
  C   C34       1.0  0.8361403198007655  0.41954828937480726  0.9481347313091391  1.0000
  C   C35       1.0  0.8693658611611258  0.3926598869301041  0.0686772385954153  1.0000
  C   C36       1.0  0.6639310126579282  0.5580667835686186  0.05666426717717954  1.0000
  C   C37       1.0  0.6462632077655758  0.6579168047146355  0.9613206816975475  1.0000
  C   C38       1.0  0.5793861121599628  0.7117131697063357  0.957534691745821  1.0000
  C   C39       1.0  0.5292995252172956  0.6664694898101235  0.048790358134696454  1.0000
  C   C40       1.0  0.546336515889245  0.5671789018066653  0.14397172559795335  1.0000
  C   C41       1.0  0.6131936295505895  0.5132949698260421  0.14800732068709288  1.0000
  C   C42       1.0  0.460459152965642  0.7218989761651122  0.04476465827042886  1.0000
  C   C43       1.0  0.4028063125796993  0.7683203332123649  0.04139310634670168  1.0000
  C   C44       1.0  0.3352954360004362  0.8226793264446572  0.03744505261995057  1.0000
  C   C45       1.0  0.2776519124576154  0.869093419459583  0.034074151962717014  1.0000
  H   H18       1.0  0.8620372453564431  0.398350845918813  0.5147656022580176  1.0000
  H   H19       1.0  0.74349110857994  0.49571848241720917  0.26977227207624543  1.0000
  H   H20       1.0  0.7425331759155673  0.4930820743857456  0.8527844608360069  1.0000
  H   H21       1.0  0.9211641876894497  0.35095145981675824  0.07175629621185631  1.0000
  H   H22       1.0  0.9627950538274263  0.3166617135451568  0.7465138731556986  1.0000
  H   H23       1.0  0.6844292821364056  0.6955585872549055  0.8907518659170801  1.0000
  H   H24       1.0  0.5668074580564595  0.788789717361277  0.8836521191160327  1.0000
  H   H25       1.0  0.5079006472074244  0.5311789016228374  0.21487130802160626  1.0000
  H   H26       1.0  0.6249495627783298  0.43545808796559227  0.22149733758792522  1.0000
  H   H27       1.0  0.22703613949283488  0.9098487628721577  0.03111423027500826  1.0000
  Zn  Zn1       1.0  0.7599064277060361  0.4195076907611859  0.566778855862581  1.0000
  Zn  Zn2       1.0  0.9124482078026157  0.41925070976469714  0.5667481419627887  1.0000
  C   C46       1.0  0.836153345933162  0.4143103978290228  0.8039623430784371  1.0000
  C   C47       1.0  0.8362029555265575  0.42444963870544505  0.3295647811914313  1.0000
  C   C48       1.0  0.8362084535110982  0.6565894378374868  0.5614891217456737  1.0000
  C   C49       1.0  0.8361477956865869  0.18216903838057874  0.5720380724280487  1.0000
  O   O1        1.0  0.8940857192278447  0.42610469283289754  0.3779385341077386  1.0000
  O   O2        1.0  0.8940462636607934  0.4124593211003831  0.7555649055857525  1.0000
  O   O3        1.0  0.8940899832152809  0.6081027118563345  0.5597660634120747  1.0000
  O   O4        1.0  0.8940419476326836  0.230461311412538  0.5737372789128228  1.0000
  O   O5        1.0  0.7783126358209458  0.6082970892024506  0.5597897189161969  1.0000
  O   O6        1.0  0.7782689164734703  0.4126552588520074  0.7555884911896704  1.0000
  O   O7        1.0  0.7783083722460153  0.4263005846334216  0.377960558321754  1.0000
  O   O8        1.0  0.7782646006365055  0.23065719396657625  0.573759400499082  1.0000
