data_image0
_chemical_formula_structural       NC12NC2H8C12NH11C13NH9Zn2C4O8
_chemical_formula_sum              "N4 C43 H28 Zn2 O8"
_cell_length_a       19.240039667572717
_cell_length_b       10.299770795358612
_cell_length_c       10.298528502251457
_cell_angle_alpha    85.53666946162151
_cell_angle_beta     89.99709375093414
_cell_angle_gamma    90.01598423534

_space_group_name_H-M_alt    "P 1"
_space_group_IT_number       1

loop_
  _space_group_symop_operation_xyz
  'x, y, z'

loop_
  _atom_site_type_symbol
  _atom_site_label
  _atom_site_symmetry_multiplicity
  _atom_site_fract_x
  _atom_site_fract_y
  _atom_site_fract_z
  _atom_site_occupancy
  N   N1        1.0  0.6547283540299799  0.42175986994251957  0.5671992223845905  1.0000
  C   C1        1.0  0.5945799852274699  0.42175995395156063  0.5671991404331396  1.0000
  C   C2        1.0  0.5197619481075578  0.4217600712838676  0.5671990031053293  1.0000
  C   C3        1.0  0.4832757938041753  0.35725960584082816  0.6706271850605598  1.0000
  C   C4        1.0  0.41060502679009253  0.35714869523957216  0.6707137436655413  1.0000
  C   C5        1.0  0.37342971319024376  0.421760163926556  0.567198775390497  1.0000
  C   C6        1.0  0.41063007800024326  0.48637181953317477  0.4636840016711872  1.0000
  C   C7        1.0  0.4833007475113802  0.48626067339105905  0.4637706828037529  1.0000
  C   C8        1.0  0.296224622741464  0.4217600852980905  0.5671986799668667  1.0000
  C   C9        1.0  0.2590187596897012  0.30848520381187705  0.6090800865704868  1.0000
  C   C10       1.0  0.18634808975483758  0.3085921350321139  0.608988744571916  1.0000
  C   C11       1.0  0.14989233579731856  0.4217599561046397  0.5671987408909727  1.0000
  C   C12       1.0  0.07507429861861539  0.4217598422770441  0.5671989895883476  1.0000
  N   N2        1.0  0.0149259817547503  0.4217598013823698  0.5671991980357358  1.0000
  C   C13       1.0  0.18638409270917558  0.5349278530227144  0.525408684309018  1.0000
  C   C14       1.0  0.25905480740764986  0.5350349644191243  0.5253171796868883  1.0000
  H   H1        1.0  0.5109810096880909  0.3073217111082609  0.7513809510627603  1.0000
  H   H2        1.0  0.3835021587977889  0.30800850287344494  0.7525831178575446  1.0000
  H   H3        1.0  0.383546415209842  0.53551203896906  0.3818145766230947  1.0000
  H   H4        1.0  0.511025303068071  0.5361984677670466  0.3830171926362931  1.0000
  H   H5        1.0  0.2860978715754363  0.2193193225006702  0.6402558674959051  1.0000
  H   H6        1.0  0.1586191906753822  0.22032507908860222  0.6411975784659887  1.0000
  H   H7        1.0  0.15868316833678078  0.6231948844244402  0.49319986496837487  1.0000
  H   H8        1.0  0.2861621743521675  0.6242009249221097  0.4941413539805435  1.0000
  C   C15       1.0  0.8347675223859524  0.04039129450139156  0.5672387908238188  1.0000
  C   C16       1.0  0.8145982714754543  0.049611698984080466  0.4358119664040625  1.0000
  C   C17       1.0  0.8044421034444326  0.9371476049707479  0.3691818587407536  1.0000
  C   C18       1.0  0.8147254867801051  0.8143301090906662  0.43574340496856534  1.0000
  C   C19       1.0  0.8348934799178582  0.8031184126057471  0.567170780004691  1.0000
  C   C20       1.0  0.8448018946540728  0.9167040229483711  0.6321823721219462  1.0000
  C   C21       1.0  0.7831045109008982  0.9479556629244454  0.23013990665842465  1.0000
  C   C22       1.0  0.7324973422271073  0.039149085298048725  0.18494710683314453  1.0000
  C   C23       1.0  0.7124442015422349  0.0491924045045411  0.054079760519540665  1.0000
  C   C24       1.0  0.7426187358127432  0.9684624598397434  0.9663248152700978  1.0000
  C   C25       1.0  0.7930591463635025  0.8774674249816207  0.010626945004805766  1.0000
  C   C26       1.0  0.813167964426703  0.8671680902901875  0.14146431454748298  1.0000
  N   N3        1.0  0.7220773584067847  0.9788668590956848  0.8324725905545849  1.0000
  H   H9        1.0  0.8424233815871701  0.36433014593774593  0.6173356385319455  1.0000
  H   H10       1.0  0.8076612406722996  0.14453464534774785  0.3844533075876124  1.0000
  H   H11       1.0  0.8060437934858741  0.727318485833047  0.38532496715123554  1.0000
  H   H12       1.0  0.8603610298198754  0.9088228623369847  0.7335723466965505  1.0000
  H   H13       1.0  0.842608638079292  0.4713938007608073  0.6172360023319254  1.0000
  H   H14       1.0  0.7077718543319108  0.1015374396687434  0.2511586149902274  1.0000
  H   H15       1.0  0.6732601625867156  0.1196848796483545  0.02116408348213028  1.0000
  H   H16       1.0  0.816925106918364  0.8147337526970142  0.9437260777398553  1.0000
  H   H17       1.0  0.8528848570081563  0.7971863811850379  0.17294026898601755  1.0000
  H   H18       1.0  0.7442751007392941  0.9190942638146296  0.7663247025712003  1.0000
  H   H19       1.0  0.6845201320844078  0.046419666252783154  0.7985336174880193  1.0000
  C   C27       1.0  0.8348404043709673  0.4218813229607987  0.1857879230843018  1.0000
  C   C28       1.0  0.7625881357340815  0.4417432435051687  0.18329607026386419  1.0000
  C   C29       1.0  0.7259844754611036  0.45166720715982334  0.06488695020693491  1.0000
  C   C30       1.0  0.7625673445818821  0.4414783845983572  0.9480363902499294  1.0000
  C   C31       1.0  0.8348206043558416  0.4216283436766455  0.9486216650692558  1.0000
  C   C32       1.0  0.8704944735318756  0.4119541605060888  0.06796425382572768  1.0000
  C   C33       1.0  0.6495992941692617  0.47265952908839926  0.06326023282682658  1.0000
  C   C34       1.0  0.6189271889913158  0.5605904188565887  0.14416845186142901  1.0000
  C   C35       1.0  0.5470258884348944  0.5803034497246222  0.14251774850078225  1.0000
  C   C36       1.0  0.5048399844646669  0.5124450327918224  0.06017474860377536  1.0000
  C   C37       1.0  0.5348261567970646  0.4247504770337154  0.9793705158916155  1.0000
  C   C38       1.0  0.6067200227778753  0.40494308171548377  0.9807846174283896  1.0000
  C   C39       1.0  0.4308175287930145  0.5327903132421961  0.058596007535428374  1.0000
  N   N4        1.0  0.3713084658967983  0.549146669796859  0.05732684118896847  1.0000
  H   H20       1.0  0.971311149162055  0.38354173631176725  0.397883953481299  1.0000
  H   H21       1.0  0.7345200130848657  0.4477510609731945  0.2738111628068203  1.0000
  H   H22       1.0  0.734761209636264  0.4508255855694925  0.8563315976772641  1.0000
  H   H23       1.0  0.9261806943766638  0.39665090719922436  0.06914989347288203  1.0000
  H   H24       1.0  0.9714200459703005  0.38493153648427425  0.7423396086741589  1.0000
  H   H25       1.0  0.6506390787964792  0.6153585930111811  0.20746658909746496  1.0000
  H   H26       1.0  0.5243792126052822  0.6486936347652523  0.20521870223084404  1.0000
  H   H27       1.0  0.5026341288992464  0.37143246166516586  0.9155005208201827  1.0000
  H   H28       1.0  0.6286841063885846  0.3354227110531087  0.9186305445753473  1.0000
  Zn  Zn1       1.0  0.7586736170988333  0.4217563804753357  0.5672067050347793  1.0000
  Zn  Zn2       1.0  0.9109807354323288  0.4217526938646803  0.5672023165625149  1.0000
  C   C40       1.0  0.8348219399082917  0.4165025145615364  0.8044302390869535  1.0000
  C   C41       1.0  0.8348340760791715  0.42700819831395  0.3299789097988939  1.0000
  C   C42       1.0  0.8348662322542098  0.6589484609887903  0.562007851641227  1.0000
  C   C43       1.0  0.8347897315020021  0.18456069156392085  0.5724013666324883  1.0000
  O   O1        1.0  0.8926317089632951  0.42872175973157955  0.3783690572437346  1.0000
  O   O2        1.0  0.8926218855403718  0.4147851754941454  0.7560363870874454  1.0000
  O   O3        1.0  0.8926568729664166  0.6105633429526598  0.5602785939485371  1.0000
  O   O4        1.0  0.8925966695692102  0.23294360159682848  0.5741267529963956  1.0000
  O   O5        1.0  0.7770576309870076  0.610565472745862  0.5602822685955642  1.0000
  O   O6        1.0  0.7770226438172705  0.4147888656127967  0.7560399923412697  1.0000
  O   O7        1.0  0.7770324673194808  0.42872540511211654  0.3783711009044992  1.0000
  O   O8        1.0  0.7769974279184919  0.232947237656276  0.5741288940380733  1.0000
