data_image0
_chemical_formula_structural       NC11NC3H8C12NH11C12NCOH11Zn2C4O8
_chemical_formula_sum              "N4 C43 H30 O9 Zn2"
_cell_length_a       17.807433833752565
_cell_length_b       10.299770795358612
_cell_length_c       10.299148425239203
_cell_angle_alpha    85.53227456119625
_cell_angle_beta     88.51012908396928
_cell_angle_gamma    90.70213480944165

_space_group_name_H-M_alt    "P 1"
_space_group_IT_number       1

loop_
  _space_group_symop_operation_xyz
  'x, y, z'

loop_
  _atom_site_type_symbol
  _atom_site_label
  _atom_site_symmetry_multiplicity
  _atom_site_fract_x
  _atom_site_fract_y
  _atom_site_fract_z
  _atom_site_occupancy
  N   N1        1.0  0.70788515859905  0.43908517660211177  0.5344289465955483  1.0000
  C   C1        1.0  0.6570497044047837  0.40433082809750687  0.6009989808021943  1.0000
  C   C2        1.0  0.5938052755211536  0.3610992845535743  0.6838036082184513  1.0000
  C   C3        1.0  0.6055030204727261  0.29749814389714335  0.8065361556187545  1.0000
  C   C4        1.0  0.5441666203015592  0.25594732356554006  0.8870565494711482  1.0000
  C   C5        1.0  0.47097797748468306  0.2776841094230482  0.8454852637948562  1.0000
  C   C6        1.0  0.4583035344080265  0.3414399924274323  0.7222924733643039  1.0000
  C   C7        1.0  0.3805473185251596  0.3645080514488992  0.6779402261960494  1.0000
  C   C8        1.0  0.3617797585791657  0.34768952039317913  0.5483519793583795  1.0000
  C   C9        1.0  0.28856117279127613  0.3693875965071278  0.5067366222365279  1.0000
  C   C10       1.0  0.2331672505886127  0.4082230713678381  0.5938891523657035  1.0000
  C   C11       1.0  0.1578122610796912  0.43058017715746133  0.5509123482435343  1.0000
  N   N2        1.0  0.09723222220068621  0.4485536292895773  0.5163621255754227  1.0000
  C   C12       1.0  0.2512433627146289  0.4252523996488058  0.7229462094337182  1.0000
  C   C13       1.0  0.32440914301552415  0.4035192876602196  0.7648170171139153  1.0000
  C   C14       1.0  0.520497243236815  0.3829862410219895  0.641788496899196  1.0000
  H   H1        1.0  0.6619607957311496  0.2800698341367478  0.8399055450068245  1.0000
  H   H2        1.0  0.5533419574019901  0.2064557722002689  0.9818036201938984  1.0000
  H   H3        1.0  0.42432321603714673  0.2431017827866262  0.9089317758148234  1.0000
  H   H4        1.0  0.4034625476947474  0.3160761825964742  0.4796331840773267  1.0000
  H   H5        1.0  0.2751319038729945  0.3555483362672567  0.4066960858145401  1.0000
  H   H6        1.0  0.2088436470974218  0.455642924937423  0.7911503015729175  1.0000
  H   H7        1.0  0.3373102826186872  0.4189040317334076  0.8646746568550929  1.0000
  H   H8        1.0  0.5120205927268983  0.4338400468529975  0.5472756451041172  1.0000
  C   C15       1.0  0.9024941957304116  0.0624492774237797  0.5254381005063191  1.0000
  C   C16       1.0  0.8807085181464607  0.07114999666883537  0.39502931214274617  1.0000
  C   C17       1.0  0.8697384572686906  0.9584242526569817  0.32891185548436397  1.0000
  C   C18       1.0  0.8808460367322928  0.8358717563558853  0.3949543731676646  1.0000
  C   C19       1.0  0.9026303546906506  0.8251797120015972  0.525363775208274  1.0000
  C   C20       1.0  0.9133328070452637  0.9390205890064319  0.5898752217831145  1.0000
  C   C21       1.0  0.8466908037475651  0.9686825217908065  0.1909469111997426  1.0000
  C   C22       1.0  0.7919936232078975  0.058549247881545696  0.1482946638536884  1.0000
  C   C23       1.0  0.7703333849718311  0.06807588932372699  0.0184395025500379  1.0000
  C   C24       1.0  0.8029603725875402  0.9881461536986138  0.9291753255782096  1.0000
  C   C25       1.0  0.8574774069408787  0.898473502738184  0.970945310371635  1.0000
  C   C26       1.0  0.8791978319122825  0.8886923117946899  0.10076770369247878  1.0000
  N   N3        1.0  0.7807727451963173  0.9980212794699526  0.7963599199034856  1.0000
  H   H9        1.0  0.9107635941605359  0.3865853746053285  0.5751485111423069  1.0000
  H   H10       1.0  0.8732162717407763  0.16589469392388922  0.3440210966816055  1.0000
  H   H11       1.0  0.8714678260673806  0.7486359470095993  0.34497384188017133  1.0000
  H   H12       1.0  0.9301388994007135  0.9315403281175609  0.690479854146651  1.0000
  H   H13       1.0  0.9109638547167184  0.493653907217542  0.5750395876801275  1.0000
  H   H14       1.0  0.7652592409630906  0.12028235358797912  0.2157431369929006  1.0000
  H   H15       1.0  0.7279822885856784  0.1375409662464171  0.9874908196131194  1.0000
  H   H16       1.0  0.8832827864584653  0.8363725398601024  0.9028506238302207  1.0000
  H   H17       1.0  0.9221250767103415  0.81975212305639  0.1302500070890822  1.0000
  H   H18       1.0  0.8047748135621328  0.9388374810645898  0.7291018506209888  1.0000
  H   H19       1.0  0.7401802360609213  0.06458953411221757  0.764306392917812  1.0000
  C   C27       1.0  0.9026188124872285  0.44397170463205526  0.14400211139228092  1.0000
  C   C28       1.0  0.9788482983063672  0.48138437913975296  0.1364922355443563  1.0000
  C   C29       1.0  0.01737887067590771  0.5001362817660537  0.015557992565263357  1.0000
  C   C30       1.0  0.9786898625960001  0.4810403760999764  0.9012424627500244  1.0000
  C   C31       1.0  0.9025057339848285  0.4436572782655972  0.9067997751965464  1.0000
  C   C32       1.0  0.8649171574564376  0.4253331518383878  0.028664655856765142  1.0000
  C   C33       1.0  0.09797511865681185  0.5396890327572517  0.008708216210449926  1.0000
  C   C34       1.0  0.1484471472119826  0.4835455703582723  0.922773233446931  1.0000
  C   C35       1.0  0.22425184945110233  0.5209023640673331  0.9164783877862526  1.0000
  C   C36       1.0  0.25135916541655723  0.6138344409893235  0.9967212917305082  1.0000
  C   C37       1.0  0.20081290898572735  0.6718223117074884  0.08109115773238917  1.0000
  C   C38       1.0  0.12497427459753041  0.6345713612456267  0.08748440968457283  1.0000
  N   N4        1.0  0.3293877513909018  0.6519389305539744  0.9865619066060685  1.0000
  C   C39       1.0  0.37260783698565025  0.6896629840531996  0.09328319596853052  1.0000
  O   O1        1.0  0.3471853605477646  0.6748822120919562  0.20882431283660718  1.0000
  H   H20       1.0  0.7588588048887919  0.3725961447205999  0.36552403014485435  1.0000
  H   H21       1.0  0.008657346185780401  0.49430470180635533  0.22503432421750524  1.0000
  H   H22       1.0  0.007841465364038847  0.49714097110599287  0.807655472221064  1.0000
  H   H23       1.0  0.8061553127415009  0.3964951200432312  0.03366620500185835  1.0000
  H   H24       1.0  0.8732054690330237  0.4292424908889956  0.5814640302575809  1.0000
  H   H25       1.0  0.12949302264273577  0.4095749402941875  0.8614864668431199  1.0000
  H   H26       1.0  0.2622037055914419  0.47628741826158416  0.8497664522163539  1.0000
  H   H27       1.0  0.21934109401883095  0.7479471186841973  0.13999088770099366  1.0000
  H   H28       1.0  0.08711154222936668  0.681854724612522  0.15229939802505976  1.0000
  H   H29       1.0  0.35828047542662866  0.6437022596917978  0.8980389201194376  1.0000
  H   H30       1.0  0.42902414505731357  0.728074686800998  0.07483813866496924  1.0000
  Zn  Zn1       1.0  0.8202423088639711  0.44181408978192005  0.5292227377586747  1.0000
  Zn  Zn2       1.0  0.9848750537100606  0.4458140921180287  0.521578922290981  1.0000
  C   C40       1.0  0.9025245151464704  0.4385429732609527  0.7626152944429954  1.0000
  C   C41       1.0  0.9025946454856512  0.4490868908914756  0.2881864094533142  1.0000
  C   C42       1.0  0.9026015223778086  0.6810094567122285  0.5202024643948737  1.0000
  C   C43       1.0  0.9025175817878502  0.20661884573887956  0.5305993115057492  1.0000
  O   O2        1.0  0.9650638024860188  0.45231590840772795  0.33367518944026897  1.0000
  O   O3        1.0  0.9650078020223911  0.4383488853923503  0.7113246616019415  1.0000
  O   O4        1.0  0.9650691439119382  0.6341436161666834  0.5155746252001667  1.0000
  O   O5        1.0  0.9650024044345613  0.25652118559885984  0.5294251310671436  1.0000
  O   O6        1.0  0.8401149019583957  0.631106994937501  0.5213765315841399  1.0000
  O   O7        1.0  0.8400535603542364  0.43531382450089984  0.7171264985832275  1.0000
  O   O8        1.0  0.8401095610912149  0.44928080290503947  0.3394754649003948  1.0000
  O   O9        1.0  0.8400481630205932  0.25348607076711804  0.5352255039037963  1.0000
