data_image0
_chemical_formula_structural       NC10NC3NCH9C12SCH12C12IH9Zn2C4O8
_chemical_formula_sum              "N3 C43 H30 S1 I1 Zn2 O8"
_cell_length_a       19.437513618241372
_cell_length_b       10.299776766347529
_cell_length_c       10.29977335064465
_cell_angle_alpha    85.54589617011163
_cell_angle_beta     90.35638175706923
_cell_angle_gamma    89.50378728869872

_space_group_name_H-M_alt    "P 1"
_space_group_IT_number       1

loop_
  _space_group_symop_operation_xyz
  'x, y, z'

loop_
  _atom_site_type_symbol
  _atom_site_label
  _atom_site_symmetry_multiplicity
  _atom_site_fract_x
  _atom_site_fract_y
  _atom_site_fract_z
  _atom_site_occupancy
  N   N1        1.0  0.6474822357457383  0.4108763177191841  0.5757750042453509  1.0000
  C   C1        1.0  0.5885456478630017  0.4278871261739061  0.5728007935699893  1.0000
  C   C2        1.0  0.5151011156236401  0.4491405654377729  0.569109033092648  1.0000
  C   C3        1.0  0.473354332156264  0.34795620615220546  0.5574389588347741  1.0000
  C   C4        1.0  0.3974617533745712  0.35802332845620444  0.5502186639583557  1.0000
  C   C5        1.0  0.3578821936133997  0.4388476894770137  0.6159699288893712  1.0000
  C   C6        1.0  0.2817003421388856  0.43024251167462557  0.6075248908229101  1.0000
  C   C7        1.0  0.2485856105637212  0.3088981022948709  0.6121553769789359  1.0000
  C   C8        1.0  0.17685108002041963  0.3025289534919642  0.6049866240550466  1.0000
  C   C9        1.0  0.1372607816546022  0.41703140906290215  0.593549567305808  1.0000
  C   C10       1.0  0.0634118130894697  0.41032414465077904  0.5862126866395674  1.0000
  N   N2        1.0  0.004042340352407  0.40493209395834473  0.5803142930533634  1.0000
  C   C11       1.0  0.1696590670001031  0.5380649885492934  0.589664326010841  1.0000
  C   C12       1.0  0.2413779677140222  0.544688102624898  0.5968951275202043  1.0000
  C   C13       1.0  0.3865624314995065  0.5310991065135096  0.7058998988842131  1.0000
  N   N3        1.0  0.44353434339740827  0.5943179252809507  0.6855023785496601  1.0000
  C   C14       1.0  0.4873613160852365  0.5850975763932971  0.5723935777021059  1.0000
  H   H1        1.0  0.49575236652546695  0.2529058873614083  0.5453076159380652  1.0000
  H   H2        1.0  0.3727511396883743  0.2885332390657367  0.49189300440752404  1.0000
  H   H3        1.0  0.2780522530048963  0.21898377791933843  0.6231666843968522  1.0000
  H   H4        1.0  0.1522735691283817  0.20830285735334475  0.6088637808491864  1.0000
  H   H5        1.0  0.139507563004196  0.6273235821044749  0.5809651018947597  1.0000
  H   H6        1.0  0.2654738867341639  0.6393269970922189  0.5930025548136182  1.0000
  H   H7        1.0  0.3565672825024791  0.5514539179214699  0.7902689081332332  1.0000
  H   H8        1.0  0.5301031171504396  0.6554067689822269  0.5781644704088584  1.0000
  H   H9        1.0  0.4576773133534043  0.6132385718272724  0.48175079202678517  1.0000
  C   C15       1.0  0.8258304565183865  0.026537905685098506  0.578043940527545  1.0000
  C   C16       1.0  0.8299764980467014  0.014868272044022524  0.7146099107502502  1.0000
  C   C17       1.0  0.832011090358819  0.8918176575642227  0.7838134901401017  1.0000
  C   C18       1.0  0.8298449427593462  0.7795826845291445  0.7146234261860205  1.0000
  C   C19       1.0  0.8257007386665575  0.7892603402400337  0.5780567299772745  1.0000
  C   C20       1.0  0.8237163067125682  0.9131762019403472  0.5105314444281104  1.0000
  C   C21       1.0  0.8363895524553553  0.8805365344207418  0.9282847812475843  1.0000
  C   C22       1.0  0.7970199535246487  0.7877114278573647  0.0018258775089843304  1.0000
  C   C23       1.0  0.8011612614119348  0.7773286831268383  0.1377872015496332  1.0000
  C   C24       1.0  0.8445007847220163  0.8594948209829948  0.20201191041340227  1.0000
  C   C25       1.0  0.884034686910978  0.9517430119096487  0.12984596359701106  1.0000
  C   C26       1.0  0.8799942627833737  0.9624739665086433  0.9938755089464908  1.0000
  S   S1        1.0  0.8498905219300719  0.8457105285259996  0.37646996076554295  1.0000
  C   C27       1.0  0.7807564731621149  0.96291935373007  0.3951184367409215  1.0000
  H   H10       1.0  0.8242776937808312  0.3584375965476021  0.5260064512216349  1.0000
  H   H11       1.0  0.8306842888123365  0.10167252069519539  0.7675769786342275  1.0000
  H   H12       1.0  0.8323466268313003  0.6845122748871273  0.7674171965613921  1.0000
  H   H13       1.0  0.8205182823618451  0.9214103319773153  0.40517661115360526  1.0000
  H   H14       1.0  0.8240872604329348  0.4654947678231148  0.5260231334492012  1.0000
  H   H15       1.0  0.7623818940447031  0.7243381790940795  0.9542710201709386  1.0000
  H   H16       1.0  0.7704059280258567  0.7057633220469041  0.19311686717495002  1.0000
  H   H17       1.0  0.9179406411573335  0.015183890599596017  0.17898042687541238  1.0000
  H   H18       1.0  0.9116180632110458  0.03365549765397535  0.9399699350640616  1.0000
  H   H19       1.0  0.7945252471745241  0.05903338228174815  0.3464163209572204  1.0000
  H   H20       1.0  0.7727933060868287  0.9737016391906004  0.50029579023806  1.0000
  H   H21       1.0  0.732340121801857  0.9282059557593841  0.3523801837897753  1.0000
  C   C28       1.0  0.8257327677489212  0.40800575029921915  0.19668071240236995  1.0000
  C   C29       1.0  0.888088158663418  0.4759690493683153  0.19113864150025872  1.0000
  C   C30       1.0  0.9197172232833511  0.5102982067150297  0.07120081398115286  1.0000
  C   C31       1.0  0.8881543752512927  0.47575379103201176  0.9558698670789934  1.0000
  C   C32       1.0  0.8257984078034923  0.4077925065011192  0.9594199724773937  1.0000
  C   C33       1.0  0.7949370383871329  0.3742979798745447  0.08029802829794908  1.0000
  C   C34       1.0  0.9856837551226874  0.5821953908918165  0.06639177966154675  1.0000
  C   C35       1.0  0.9964890344895261  0.685033356634835  0.14634190951516857  1.0000
  C   C36       1.0  0.05861276060573517  0.7525892522320299  0.14161426913984587  1.0000
  C   C37       1.0  0.11062165587150186  0.7183629175713679  0.05728640907274429  1.0000
  C   C38       1.0  0.10047988531848251  0.6164000792080473  0.9774874836170082  1.0000
  C   C39       1.0  0.038425993069340914  0.5486170496738707  0.9818100671218866  1.0000
  I   I1        1.0  0.20428175660762204  0.8204392931205386  0.050462501374203494  1.0000
  H   H22       1.0  0.8019525242135048  0.38217398512475986  0.5262407286053743  1.0000
  H   H23       1.0  0.9126862352893155  0.5008057112328776  0.28042914059787716  1.0000
  H   H24       1.0  0.9118438478105051  0.50354629689965  0.8630591866824502  1.0000
  H   H25       1.0  0.7468323066932536  0.32186853117430325  0.08380511934140755  1.0000
  H   H26       1.0  0.8020486511937222  0.3818602440701402  0.633322106832245  1.0000
  H   H27       1.0  0.9565896055008426  0.7142761626682801  0.21122519530246486  1.0000
  H   H28       1.0  0.0662135706080782  0.8317387156910505  0.20329839776216807  1.0000
  H   H29       1.0  0.14071683401351875  0.5893878530541834  0.9123173963276758  1.0000
  H   H30       1.0  0.03202088259742886  0.468906771083752  0.9203020605514074  1.0000
  Zn  Zn1       1.0  0.7503777865613818  0.40915745185356833  0.5770924538509654  1.0000
  Zn  Zn2       1.0  0.9011467984796185  0.4066402873675583  0.5790075131611421  1.0000
  C   C40       1.0  0.8257853421397088  0.4026591953460992  0.8152457837420959  1.0000
  C   C41       1.0  0.8257408890264524  0.41314015496000445  0.3408543316765116  1.0000
  C   C42       1.0  0.8257212530426956  0.6450910767783051  0.5728790679795699  1.0000
  C   C43       1.0  0.8258049269479066  0.17070671407584936  0.5832211159982013  1.0000
  O   O1        1.0  0.8829596698487885  0.41390239156213005  0.389967070280151  1.0000
  O   O2        1.0  0.8829967529403288  0.39998550953127365  0.767586156980308  1.0000
  O   O3        1.0  0.8829442290004005  0.5957523322570761  0.5718733094427988  1.0000
  O   O4        1.0  0.8830121423315062  0.21813557901264602  0.5856798197894895  1.0000
  O   O5        1.0  0.7685123912594293  0.5976621610688808  0.5704201465622714  1.0000
  O   O6        1.0  0.7685649149248515  0.4018968986554281  0.7661329248802697  1.0000
  O   O7        1.0  0.7685278317524024  0.41581373586641335  0.38851227677639777  1.0000
  O   O8        1.0  0.7685803042422654  0.22004691400101173  0.58422512365356  1.0000
