data_image0
_chemical_formula_structural       NC11NC3H8C12NCOCH13C15H12Zn2C4O8
_chemical_formula_sum              "N3 C47 H33 O9 Zn2"
_cell_length_a       17.807433833752565
_cell_length_b       10.299155265289647
_cell_length_c       10.299157797200024
_cell_angle_alpha    85.52785804654131
_cell_angle_beta     88.54730741847368
_cell_angle_gamma    90.66237101144992

_space_group_name_H-M_alt    "P 1"
_space_group_IT_number       1

loop_
  _space_group_symop_operation_xyz
  'x, y, z'

loop_
  _atom_site_type_symbol
  _atom_site_label
  _atom_site_symmetry_multiplicity
  _atom_site_fract_x
  _atom_site_fract_y
  _atom_site_fract_z
  _atom_site_occupancy
  N   N1        1.0  0.7067597921972967  0.4389765663048475  0.5341987660873007  1.0000
  C   C1        1.0  0.6559632537721224  0.40422917998064123  0.6007734711364368  1.0000
  C   C2        1.0  0.5927672317645102  0.36100629639667714  0.6835839087811888  1.0000
  C   C3        1.0  0.6045365352303869  0.2974180230569883  0.8063249780473598  1.0000
  C   C4        1.0  0.5432470120314491  0.25587565614458563  0.8868509296084879  1.0000
  C   C5        1.0  0.4700340539257394  0.27760809652398377  0.8452767207645371  1.0000
  C   C6        1.0  0.45728781737689267  0.341351058408516  0.7220753923386325  1.0000
  C   C7        1.0  0.3795057085630795  0.3644144731150645  0.6777200496648257  1.0000
  C   C8        1.0  0.3606960618250032  0.34757679081052384  0.5481386723297437  1.0000
  C   C9        1.0  0.28745315958387646  0.36927051274687295  0.5065204006102422  1.0000
  C   C10       1.0  0.232076571762263  0.4081206916304405  0.5936631097549807  1.0000
  C   C11       1.0  0.1566964905436124  0.4304732974272294  0.5506833052875924  1.0000
  N   N2        1.0  0.0960962797696186  0.448443131890377  0.5161306705666722  1.0000
  C   C12       1.0  0.2501944866691098  0.42516911119744116  0.7227132726198155  1.0000
  C   C13       1.0  0.32338469356500804  0.4034403866191354  0.7645869942412109  1.0000
  C   C14       1.0  0.5194346572367811  0.3828888555659238  0.6415658585609949  1.0000
  H   H1        1.0  0.6610138205207442  0.2799932027411176  0.8396967101157775  1.0000
  H   H2        1.0  0.5524777474089597  0.20639401206171293  0.9816046532538403  1.0000
  H   H3        1.0  0.4234169636738729  0.2430323087240196  0.9087279600991136  1.0000
  H   H4        1.0  0.4023655783569447  0.3159517933124907  0.47942780823312403  1.0000
  H   H5        1.0  0.2739917411797108  0.3554164112765412  0.40648532902642454  1.0000
  H   H6        1.0  0.2078083372259739  0.45557114350831696  0.7909096792987866  1.0000
  H   H7        1.0  0.3363172978090402  0.4188400488917736  0.8644388823201195  1.0000
  H   H8        1.0  0.5109021536792031  0.4337328769960376  0.5470460897601344  1.0000
  C   C15       1.0  0.9015155601934361  0.06231445460146534  0.5252793451127382  1.0000
  C   C16       1.0  0.8886518066912432  0.07175206545291135  0.3909436205270733  1.0000
  C   C17       1.0  0.8820568276790994  0.9593977239104402  0.32271822559874397  1.0000
  C   C18       1.0  0.8884721092805359  0.8364880413436818  0.3906441578867299  1.0000
  C   C19       1.0  0.9013477205044438  0.825095454580699  0.5250609272938738  1.0000
  C   C20       1.0  0.9077935211427627  0.9385243622919691  0.5915508399563685  1.0000
  C   C21       1.0  0.8684494571371406  0.970355268483701  0.18060720690215648  1.0000
  C   C22       1.0  0.9065300630556483  0.06542243914306733  0.09741784968335687  1.0000
  C   C23       1.0  0.8937308123392755  0.07560348357623004  0.9636816241801682  1.0000
  C   C24       1.0  0.843062119171385  0.9900499497370441  0.9102793675918255  1.0000
  C   C25       1.0  0.8040638501776851  0.8967767774378899  0.9934431480376467  1.0000
  C   C26       1.0  0.8168904540677181  0.8863403925813896  0.1271407666031259  1.0000
  N   N3        1.0  0.8278445337419266  0.9999722069264804  0.7734168625532214  1.0000
  C   C27       1.0  0.8826760723350943  0.03827853189390629  0.6726490694588527  1.0000
  O   O1        1.0  0.9516012113395099  0.042478350781844254  0.6973103912244611  1.0000
  C   C28       1.0  0.8586780764872561  0.06419340436619514  0.5352151543865409  1.0000
  H   H9        1.0  0.9064868274321548  0.3861611017406301  0.576943834213635  1.0000
  H   H10       1.0  0.8826962342470062  0.16667165833559827  0.3394074814627186  1.0000
  H   H11       1.0  0.8844188867759308  0.7496100156666587  0.33820087879041005  1.0000
  H   H12       1.0  0.9177181319679595  0.9305301323715682  0.6951662287824991  1.0000
  H   H13       1.0  0.9260995784419772  0.5963202117010776  0.7786138478647779  1.0000
  H   H14       1.0  0.9466546978961005  0.13143148107579883  0.1356503163052145  1.0000
  H   H15       1.0  0.9225375041970645  0.15178174036862124  0.9027610253832199  1.0000
  H   H16       1.0  0.7638669214512959  0.8314703510494977  0.9543469521902277  1.0000
  H   H17       1.0  0.7856699808585976  0.8137194834784323  0.18900637682869692  1.0000
  H   H18       1.0  0.7749245875296491  0.9698284787557118  0.7447975732389547  1.0000
  H   H19       1.0  0.8044479385809344  0.11632214847121358  0.5332779532860261  1.0000
  H   H20       1.0  0.8517160464372873  0.9704313415701328  0.49031165866262816  1.0000
  H   H21       1.0  0.901432454127202  0.12534487043922105  0.4778326561531441  1.0000
  C   C29       1.0  0.9013445021952976  0.4438090769913017  0.14378212930898937  1.0000
  C   C30       1.0  0.8230998834340353  0.4239258822960057  0.1475937613661662  1.0000
  C   C31       1.0  0.7835884319879274  0.4137394352872681  0.03237661570135608  1.0000
  C   C32       1.0  0.8233231408701412  0.42372256336643366  0.912316167811499  1.0000
  C   C33       1.0  0.9015187261038247  0.4436007708297638  0.9065581291773093  1.0000
  C   C34       1.0  0.9400727959869208  0.45352218933792443  0.022842620388558332  1.0000
  C   C35       1.0  0.7008663463312733  0.392723802179451  0.03745266128622071  1.0000
  C   C36       1.0  0.6670821934726291  0.30491685423320014  0.9579392518615371  1.0000
  C   C37       1.0  0.5892372246292148  0.28523331828323073  0.9627482558984268  1.0000
  C   C38       1.0  0.5437900590489164  0.35231386760998373  0.04766721090288639  1.0000
  C   C39       1.0  0.577171978529708  0.44095664545628077  0.1262223209191753  1.0000
  C   C40       1.0  0.6550161889902858  0.4606443616353362  0.12156130155921985  1.0000
  C   C41       1.0  0.4599284984241571  0.3334583969950209  0.05050104704356073  1.0000
  C   C42       1.0  0.4261215522252242  0.42641080905543083  0.9546312315205459  1.0000
  C   C43       1.0  0.3983372726563166  0.5028458829560254  0.8757990656218291  1.0000
  H   H22       1.0  0.049087061360598705  0.4805442573994134  0.34393998849109075  1.0000
  H   H23       1.0  0.7928845826537446  0.414565708382419  0.24053627011739542  1.0000
  H   H24       1.0  0.7929989857943218  0.4177468215937976  0.8230926856495682  1.0000
  H   H25       1.0  0.00038741828952271185  0.4688510708621847  0.019117005817271604  1.0000
  H   H26       1.0  0.9315984630136764  0.45120523099357346  0.5768708988618991  1.0000
  H   H27       1.0  0.7009518788514144  0.2503706620766266  0.8930117690958412  1.0000
  H   H28       1.0  0.5643796337230671  0.21746821842312314  0.900362618836779  1.0000
  H   H29       1.0  0.5428636445992042  0.4951829704558739  0.1908252526933487  1.0000
  H   H30       1.0  0.6792605727612891  0.5305019362049819  0.1823335302535758  1.0000
  H   H31       1.0  0.4449571618557615  0.23284671846184835  0.027780302029397852  1.0000
  H   H32       1.0  0.4360112643205015  0.34832294312357726  0.14882772404439515  1.0000
  H   H33       1.0  0.3739661068994432  0.5699538243221165  0.806590648295415  1.0000
  Zn  Zn1       1.0  0.8191138946530158  0.44170493571917246  0.5289921899010328  1.0000
  Zn  Zn2       1.0  0.9837421673089553  0.4457041392538823  0.5213478363375224  1.0000
  C   C44       1.0  0.9014852773388704  0.43846608693257694  0.7623787162245577  1.0000
  C   C45       1.0  0.9013725820272028  0.44894467041054953  0.2879613535415242  1.0000
  C   C46       1.0  0.9013743758213735  0.6809148995890537  0.5199269752103244  1.0000
  C   C47       1.0  0.9014834277277949  0.20649429595927393  0.5304131668531187  1.0000
  O   O2        1.0  0.9638575786277253  0.45218023323967826  0.3334482275713111  1.0000
  O   O3        1.0  0.9639493305754914  0.43826484736237536  0.7110895811341444  1.0000
  O   O4        1.0  0.9638589343054843  0.6340453089384466  0.5153081235995263  1.0000
  O   O5        1.0  0.9639479186969641  0.2563997796164088  0.5292295903322244  1.0000
  O   O6        1.0  0.8389080870854551  0.6310092939933298  0.5211104385081413  1.0000
  O   O7        1.0  0.8389984829928152  0.43523039284874065  0.7168918263472093  1.0000
  O   O8        1.0  0.8389067307482658  0.4491457338945095  0.33924891131612744  1.0000
  O   O9        1.0  0.838997070838721  0.25336527095512174  0.5350303714525566  1.0000
