data_image0
_chemical_formula_structural       NC10NC5H10C16H10C13NH9Zn2C4O8
_chemical_formula_sum              "N3 C48 H29 Zn2 O8"
_cell_length_a       19.4436361288709
_cell_length_b       10.29914801576943
_cell_length_c       10.298528502251457
_cell_angle_alpha    85.51780360307934
_cell_angle_beta     89.70161212865115
_cell_angle_gamma    89.43179634642199

_space_group_name_H-M_alt    "P 1"
_space_group_IT_number       1

loop_
  _space_group_symop_operation_xyz
  'x, y, z'

loop_
  _atom_site_type_symbol
  _atom_site_label
  _atom_site_symmetry_multiplicity
  _atom_site_fract_x
  _atom_site_fract_y
  _atom_site_fract_z
  _atom_site_occupancy
  N   N1        1.0  0.6478611149754376  0.4099126919479912  0.5613570950518936  1.0000
  C   C1        1.0  0.5890269074113483  0.4198079102041352  0.5757390325797374  1.0000
  C   C2        1.0  0.5156997801073508  0.43214854607468256  0.5937288158441338  1.0000
  C   C3        1.0  0.473508817166366  0.4001982100134609  0.49905548096359675  1.0000
  C   C4        1.0  0.39760561925166926  0.4106345522155592  0.5043801513235764  1.0000
  C   C5        1.0  0.3578666761500271  0.3858292123462739  0.6114760125131651  1.0000
  C   C6        1.0  0.2817462039882724  0.3897528556772507  0.5985134366788436  1.0000
  C   C7        1.0  0.24119340658228464  0.4473700647045804  0.6922735470137888  1.0000
  C   C8        1.0  0.1695301264691253  0.4510135684899197  0.6817268685861877  1.0000
  C   C9        1.0  0.1374248479883872  0.39664367235757014  0.5777067983673234  1.0000
  C   C10       1.0  0.0636323258991818  0.40034850469327843  0.5670047940282681  1.0000
  N   N2        1.0  0.004308143206199  0.4033269954085026  0.5584010920499378  1.0000
  C   C11       1.0  0.1772526787534806  0.33831911892621247  0.48433024913967904  1.0000
  C   C12       1.0  0.2489323733008472  0.33462151748701885  0.49462513908875594  1.0000
  C   C13       1.0  0.385998551067483  0.3452973050422381  0.7426033075867611  1.0000
  C   C14       1.0  0.4446689525128009  0.38839803536042194  0.7898349729125971  1.0000
  C   C15       1.0  0.4888861858969303  0.48630241498890836  0.7154196738462852  1.0000
  H   H1        1.0  0.4956014298811747  0.37112568900277276  0.4087484855756487  1.0000
  H   H2        1.0  0.3729070971668658  0.43317928508260994  0.4112010414236249  1.0000
  H   H3        1.0  0.2650717223240834  0.49062238202885466  0.7731152862709578  1.0000
  H   H4        1.0  0.1391931814020629  0.4962938816532245  0.7546393329732752  1.0000
  H   H5        1.0  0.1529025150680414  0.2952623007973503  0.4038229591142666  1.0000
  H   H6        1.0  0.2786034455289169  0.2870972795045119  0.42240997566830796  1.0000
  H   H7        1.0  0.3550271078828353  0.28104192018767926  0.8068836080932857  1.0000
  H   H8        1.0  0.45981768893145614  0.3542773587975594  0.8877953137274852  1.0000
  H   H9        1.0  0.45878764901555635  0.5770368225092519  0.6901289972219062  1.0000
  H   H10       1.0  0.5321763992627335  0.5118576691237227  0.7785027237888669  1.0000
  C   C16       1.0  0.8260389372736475  0.0252192613342741  0.5600450665615895  1.0000
  C   C17       1.0  0.8103383628158917  0.03515369052680106  0.42668471064285907  1.0000
  C   C18       1.0  0.8024283850923816  0.9230600187295417  0.3589031359142749  1.0000
  C   C19       1.0  0.8104301862398132  0.799900316946402  0.42627930861053076  1.0000
  C   C20       1.0  0.8261368892205551  0.7880103034588595  0.5597243771277058  1.0000
  C   C21       1.0  0.8338457848229336  0.9011879985073351  0.6257855797781233  1.0000
  C   C22       1.0  0.7858192405821202  0.934615049241045  0.21782396124444703  1.0000
  C   C23       1.0  0.8183621413375705  0.853057764799117  0.1323258120227495  1.0000
  C   C24       1.0  0.802706158622238  0.8640585816336857  0.9995477308556007  1.0000
  C   C25       1.0  0.7543465283772124  0.9565205775629089  0.950464652614404  1.0000
  C   C26       1.0  0.7216782487173684  0.03806093198045679  0.03467974122755524  1.0000
  C   C27       1.0  0.7372851926699744  0.027302279738368185  0.1674791782448357  1.0000
  C   C28       1.0  0.7382540614467781  0.967721759681891  0.8137569572507481  1.0000
  C   C29       1.0  0.7247767938598091  0.977102641969479  0.6992662405780665  1.0000
  C   C30       1.0  0.7089950726748769  0.9880875291492037  0.5651987786562018  1.0000
  C   C31       1.0  0.6955200669847247  0.9974669861536293  0.4507265532882774  1.0000
  H   H11       1.0  0.8320426788621301  0.3488733028533908  0.6113555610803574  1.0000
  H   H12       1.0  0.8051511447380175  0.13032256234775774  0.37481119860279954  1.0000
  H   H13       1.0  0.8034676786838603  0.713153236843563  0.37491516172236605  1.0000
  H   H14       1.0  0.8459540291839561  0.8928094644261245  0.7286507179099302  1.0000
  H   H15       1.0  0.8553565339161643  0.5582697715527002  0.8117767405252263  1.0000
  H   H16       1.0  0.8565682858666759  0.7819349662508288  0.16786312125560476  1.0000
  H   H17       1.0  0.8284398730985343  0.800682099443715  0.935151501337323  1.0000
  H   H18       1.0  0.6840191964190757  0.10973844168189406  0.9977678322368346  1.0000
  H   H19       1.0  0.7107497242591515  0.09030404172255202  0.23107916952411078  1.0000
  H   H20       1.0  0.6836879271572486  0.005702940716936222  0.3502102866483856  1.0000
  C   C32       1.0  0.8260977099583645  0.4067410925766384  0.1784676989334797  1.0000
  C   C33       1.0  0.7545970867855004  0.4279257563221115  0.17656221623662138  1.0000
  C   C34       1.0  0.7183742218195446  0.4385198217736843  0.058450202280320385  1.0000
  C   C35       1.0  0.7545765213939905  0.4276612545435028  0.9413027942519325  1.0000
  C   C36       1.0  0.8260781249677918  0.4064884533311548  0.9413016868935045  1.0000
  C   C37       1.0  0.8613808717229263  0.3961611898133166  0.06035471727646846  1.0000
  C   C38       1.0  0.6427836811748534  0.46091054883482974  0.057443397956379094  1.0000
  C   C39       1.0  0.6124278779692365  0.5494098668261331  0.13857430251700475  1.0000
  C   C40       1.0  0.5412745735651548  0.5704392110688277  0.13750713826184047  1.0000
  C   C41       1.0  0.4995303131069653  0.5033462024058108  0.05553272437374268  1.0000
  C   C42       1.0  0.5292073176031267  0.4150957801452604  0.9745113571220494  1.0000
  C   C43       1.0  0.6003532681478589  0.3939721991855112  0.9753420117065943  1.0000
  C   C44       1.0  0.42627791839438317  0.5250466331007928  0.054554720624904185  1.0000
  N   N3        1.0  0.3673879325783966  0.5424924390826495  0.053768506533969695  1.0000
  H   H21       1.0  0.961148768776733  0.36590302490150717  0.38945646009748347  1.0000
  H   H22       1.0  0.7268210185755258  0.43444727668341065  0.2673056619771468  1.0000
  H   H23       1.0  0.7270595960275167  0.4375176584295075  0.8498231028376173  1.0000
  H   H24       1.0  0.9164877847063428  0.37983847314799957  0.061088428573182973  1.0000
  H   H25       1.0  0.961256483039537  0.36729095478346285  0.7339107629777182  1.0000
  H   H26       1.0  0.6438076450328637  0.6036029964466945  0.20159412695985224  1.0000
  H   H27       1.0  0.5188613172278335  0.6392493948371161  0.20037136724294324  1.0000
  H   H28       1.0  0.4973523612274814  0.36236171383095184  0.9109231364188677  1.0000
  H   H29       1.0  0.6220910794393815  0.3240442117454554  0.9130306381623652  1.0000
  Zn  Zn1       1.0  0.7507240282714385  0.4080087280405227  0.5605115709849704  1.0000
  Zn  Zn2       1.0  0.9014452197887067  0.4052203472163691  0.5592573031040815  1.0000
  C   C45       1.0  0.8260796259940758  0.401362154580293  0.7971119416103674  1.0000
  C   C46       1.0  0.826091268143973  0.4118685289407302  0.3226570455756266  1.0000
  C   C47       1.0  0.8261149726404349  0.6438283494692019  0.5546091771150625  1.0000
  C   C48       1.0  0.8260558698648344  0.16940077454848557  0.5651598804023732  1.0000
  O   O1        1.0  0.8832870121752633  0.41252550122228526  0.37057232175292176  1.0000
  O   O2        1.0  0.8832777787571864  0.39858788609206486  0.7482443316520404  1.0000
  O   O3        1.0  0.8833055505313234  0.5943824186859032  0.5524216394236239  1.0000
  O   O4        1.0  0.8832591889738871  0.21673097890317283  0.5663949170184801  1.0000
  O   O5        1.0  0.768910007652513  0.5964980973066722  0.5533739574917589  1.0000
  O   O6        1.0  0.7688822360774104  0.4007051251691234  0.7491965798099209  1.0000
  O   O7        1.0  0.7688914695755144  0.41464269555589306  0.3715230083318568  1.0000
  O   O8        1.0  0.7688636463676322  0.2188481639150084  0.5673457009814604  1.0000
