data_image0
_chemical_formula_structural       NC10NC5H10C12NH11C12ClH9Zn2C4O8
_chemical_formula_sum              "N3 C43 H30 Cl1 Zn2 O8"
_cell_length_a       19.4436361288709
_cell_length_b       10.299770795358612
_cell_length_c       10.299771906710086
_cell_angle_alpha    85.53968522419491
_cell_angle_beta     89.71369758328774
_cell_angle_gamma    89.43566516156574

_space_group_name_H-M_alt    "P 1"
_space_group_IT_number       1

loop_
  _space_group_symop_operation_xyz
  'x, y, z'

loop_
  _atom_site_type_symbol
  _atom_site_label
  _atom_site_symmetry_multiplicity
  _atom_site_fract_x
  _atom_site_fract_y
  _atom_site_fract_z
  _atom_site_occupancy
  N   N1        1.0  0.6477501393838299  0.409717199728898  0.5620032085093742  1.0000
  C   C1        1.0  0.5889178815768038  0.41961228917064486  0.5763866025523308  1.0000
  C   C2        1.0  0.5155931918526688  0.4319527671159289  0.5943781955397729  1.0000
  C   C3        1.0  0.47339055660476126  0.4000003972024839  0.49970622325930925  1.0000
  C   C4        1.0  0.3974883178004637  0.41043610360819915  0.5050336675987694  1.0000
  C   C5        1.0  0.3577604436247997  0.3856383567814101  0.6121078772107929  1.0000
  C   C6        1.0  0.2816386639835275  0.3895610010748445  0.5991482260021634  1.0000
  C   C7        1.0  0.2410983361775698  0.4471779688345585  0.6929155575175163  1.0000
  C   C8        1.0  0.1694340080687788  0.45082062060477446  0.6823714074918348  1.0000
  C   C9        1.0  0.1373152300742868  0.396450162689153  0.5783464777150358  1.0000
  C   C10       1.0  0.0635216448237603  0.4001541297957889  0.5676470415452866  1.0000
  N   N2        1.0  0.0041966074213509  0.4031319249197607  0.5590454042216892  1.0000
  C   C11       1.0  0.17713060921672563  0.3381259314265128  0.48496242568289505  1.0000
  C   C12       1.0  0.2488113217981944  0.33442917391225646  0.4952548010416413  1.0000
  C   C13       1.0  0.3859055153324071  0.34511662860213943  0.743205309765115  1.0000
  C   C14       1.0  0.4445826914124611  0.3882160151112286  0.790445257244182  1.0000
  C   C15       1.0  0.488795059328464  0.48610811402388654  0.7160716197855277  1.0000
  H   H1        1.0  0.4954720845302779  0.3709258142040761  0.40940099097389293  1.0000
  H   H2        1.0  0.3727801988846655  0.43297414652336563  0.4118737133960153  1.0000
  H   H3        1.0  0.2649871783352657  0.4904306361527959  0.7737614026052018  1.0000
  H   H4        1.0  0.1391067765906598  0.4961007049577595  0.755289643935757  1.0000
  H   H5        1.0  0.1527699632441827  0.2950687633136275  0.40445105227742606  1.0000
  H   H6        1.0  0.2784726795617451  0.2869053950015481  0.423033037484309  1.0000
  H   H7        1.0  0.3549389865768869  0.2808700878802277  0.8074563257989253  1.0000
  H   H8        1.0  0.4597411521240878  0.35410327650373286  0.8883820215848219  1.0000
  H   H9        1.0  0.4586968816785714  0.5768333583291596  0.690814061755824  1.0000
  H   H10       1.0  0.5320931996588822  0.5116643529308995  0.7791551693895529  1.0000
  C   C16       1.0  0.8259143399433151  0.025057106685678177  0.5605644129880574  1.0000
  C   C17       1.0  0.8059404865984201  0.034639575473413675  0.4293197311414869  1.0000
  C   C18       1.0  0.7958826602293421  0.9223577750147618  0.36278139749464855  1.0000
  C   C19       1.0  0.8060663694091267  0.7993556563169856  0.42925013372192433  1.0000
  C   C20       1.0  0.8260389781414078  0.7877819185498898  0.5604953764435994  1.0000
  C   C21       1.0  0.8358514509656424  0.9011896826233986  0.6254174324478541  1.0000
  C   C22       1.0  0.774751783800339  0.9335488704257722  0.22393213918450128  1.0000
  C   C23       1.0  0.7246666130530313  0.025665210072969957  0.17916057377214645  1.0000
  C   C24       1.0  0.7048077230975941  0.03606849924368549  0.04847434626140701  1.0000
  C   C25       1.0  0.7346582304126896  0.9547824396075478  0.9604826631480421  1.0000
  C   C26       1.0  0.7845782804152627  0.8628674909534052  0.004365039772313173  1.0000
  C   C27       1.0  0.8044922645696362  0.8522071668680152  0.13502083709689594  1.0000
  N   N3        1.0  0.714315855633025  0.9655555832955094  0.8268159416398784  1.0000
  H   H11       1.0  0.8334960533731041  0.34885853613788376  0.6105920965072631  1.0000
  H   H12       1.0  0.7990699748584104  0.12968673794261942  0.37802449265288884  1.0000
  H   H13       1.0  0.7974694693277973  0.712500193257761  0.3789093239828998  1.0000
  H   H14       1.0  0.8512598512772048  0.8930292154664402  0.7266668965991432  1.0000
  H   H15       1.0  0.8336793694522074  0.4559187989967025  0.6104909516360253  1.0000
  H   H16       1.0  0.7002060029843852  0.08850896449790913  0.24556678494271167  1.0000
  H   H17       1.0  0.6660280872993226  0.10727567476359057  0.0158845608767626  1.0000
  H   H18       1.0  0.8081882376308644  0.799694097690528  0.9372766140310835  1.0000
  H   H19       1.0  0.8437990442410412  0.7815009425082695  0.16616670549141266  1.0000
  H   H20       1.0  0.7362750517950132  0.9053738040469266  0.7604940987673547  1.0000
  H   H21       1.0  0.6771459763752973  0.033793297076284645  0.7931896306247368  1.0000
  C   C28       1.0  0.8259439430856591  0.4065264298285505  0.17916091279662005  1.0000
  C   C29       1.0  0.8883395860747323  0.4742566928170955  0.17230933159500794  1.0000
  C   C30       1.0  0.9199894877786938  0.5084673886150863  0.05170697426335069  1.0000
  C   C31       1.0  0.88840589769984  0.4740403053448601  0.9370390242431959  1.0000
  C   C32       1.0  0.8260093708167972  0.4063126185783914  0.9418989565905473  1.0000
  C   C33       1.0  0.7951281276982387  0.37293411967672174  0.06342498793958184  1.0000
  C   C34       1.0  0.9859993317975028  0.5801189549085886  0.04551231646394682  1.0000
  C   C35       1.0  0.9968864255283384  0.682923041247117  0.12521490138712288  1.0000
  C   C36       1.0  0.05904741188281837  0.750262020401518  0.11919672650522384  1.0000
  C   C37       1.0  0.1110266966971647  0.7158308743285484  0.033780322844568555  1.0000
  C   C38       1.0  0.10079635003886822  0.6138741223462334  0.9542010069008229  1.0000
  C   C39       1.0  0.03869697930086713  0.5463336828411713  0.9598430571186589  1.0000
  Cl  Cl1       1.0  0.18897583245360838  0.8004410994722786  0.026466237343358845  1.0000
  H   H22       1.0  0.8021499423040603  0.3807754486518744  0.5092207920058325  1.0000
  H   H23       1.0  0.9129514396248244  0.4990015302044961  0.26108366489650603  1.0000
  H   H24       1.0  0.9121122435679287  0.5017434527620108  0.8437302380280394  1.0000
  H   H25       1.0  0.7469923434765507  0.3206844671376745  0.06794246832337136  1.0000
  H   H26       1.0  0.8022465239698404  0.38045909239236053  0.6163008338361884  1.0000
  H   H27       1.0  0.9570187609789821  0.7123127455017879  0.19091710389651495  1.0000
  H   H28       1.0  0.06666538801762845  0.8293953092195758  0.18076006826000612  1.0000
  H   H29       1.0  0.14097823856954306  0.5866257618599935  0.8881524306027169  1.0000
  H   H30       1.0  0.032220499290619875  0.4666390267149074  0.8984898265183086  1.0000
  Zn  Zn1       1.0  0.7506128917361027  0.4078133582070138  0.5611571625390579  1.0000
  Zn  Zn2       1.0  0.9013338457671184  0.4050251558062896  0.5599021323338496  1.0000
  C   C40       1.0  0.8259946301702015  0.4011793781914812  0.7977255884831969  1.0000
  C   C41       1.0  0.8259537534798661  0.411660743952047  0.32333382000308775  1.0000
  C   C42       1.0  0.8260114387367293  0.6436122028699709  0.5553333210381182  1.0000
  C   C43       1.0  0.8259368932337705  0.16922635990921053  0.5657261572561967  1.0000
  O   O1        1.0  0.8831548615778154  0.4123200926753854  0.3712432877875844  1.0000
  O   O2        1.0  0.8831872385441336  0.3984028687468244  0.7488632080548612  1.0000
  O   O3        1.0  0.883200040736104  0.5941704545414426  0.5531297434258537  1.0000
  O   O4        1.0  0.8831420079481571  0.21655251714967716  0.5669766554693172  1.0000
  O   O5        1.0  0.768804678121399  0.5962859978165189  0.5540826398250387  1.0000
  O   O6        1.0  0.7687918761753314  0.4005199723391397  0.7498160350674654  1.0000
  O   O7        1.0  0.7687594991134059  0.4144371514488272  0.37219455340284235  1.0000
  O   O8        1.0  0.7687466454877705  0.2186695666071019  0.5679280184532991  1.0000
