data_image0
_chemical_formula_structural       NC10NC5H10C13OH12C12NCOCH13Zn2C4O8
_chemical_formula_sum              "N3 C46 H35 O10 Zn2"
_cell_length_a       19.4436361288709
_cell_length_b       10.299150109392551
_cell_length_c       10.299158637457994
_cell_angle_alpha    85.56061603079257
_cell_angle_beta     89.6864852280966
_cell_angle_gamma    89.39953782186457

_space_group_name_H-M_alt    "P 1"
_space_group_IT_number       1

loop_
  _space_group_symop_operation_xyz
  'x, y, z'

loop_
  _atom_site_type_symbol
  _atom_site_label
  _atom_site_symmetry_multiplicity
  _atom_site_fract_x
  _atom_site_fract_y
  _atom_site_fract_z
  _atom_site_occupancy
  N   N1        1.0  0.6476469278273623  0.4089127736267122  0.561603571567469  1.0000
  C   C1        1.0  0.5888077031723236  0.4188180119485778  0.5759844520083452  1.0000
  C   C2        1.0  0.515474311200509  0.43117118147666567  0.5939729108419038  1.0000
  C   C3        1.0  0.4733064719049416  0.39915491859269103  0.4993084808742603  1.0000
  C   C4        1.0  0.3973993955781975  0.4095949773323717  0.5046331570618856  1.0000
  C   C5        1.0  0.357652480786183  0.38486415386476236  0.6117153705398279  1.0000
  C   C6        1.0  0.2815326985978889  0.3887787788660584  0.5987545006143238  1.0000
  C   C7        1.0  0.24094924996893693  0.44646130477276036  0.6925073152615113  1.0000
  C   C8        1.0  0.1692863966245224  0.45009747146915813  0.6819620512611102  1.0000
  C   C9        1.0  0.13721227319622933  0.3956551205348722  0.5779506352790582  1.0000
  C   C10       1.0  0.0634201818726765  0.3993525077325406  0.567250066647891  1.0000
  N   N2        1.0  0.0040963454714614  0.40232501305042145  0.558647518886519  1.0000
  C   C11       1.0  0.1770709111878126  0.3372655164838678  0.4845812965875538  1.0000
  C   C12       1.0  0.2487502312519627  0.3335750768288208  0.4948747976032315  1.0000
  C   C13       1.0  0.3857776269809116  0.34442347366593706  0.7428253595995478  1.0000
  C   C14       1.0  0.44442838775375454  0.38755712145337773  0.7900541752230039  1.0000
  C   C15       1.0  0.48862708980909647  0.4854098042578767  0.7156530900992346  1.0000
  H   H1        1.0  0.4954207227869166  0.37001951271310274  0.40901006205825396  1.0000
  H   H2        1.0  0.3727075220124239  0.4320748779198731  0.41146597786086625  1.0000
  H   H3        1.0  0.2648030551818302  0.4897699331147831  0.773342387161779  1.0000
  H   H4        1.0  0.1389254741239162  0.49542857871883084  0.754868869981473  1.0000
  H   H5        1.0  0.1527451516876283  0.29415262031735345  0.4040806473068246  1.0000
  H   H6        1.0  0.2784458503767274  0.28600052785244423  0.4226650688643183  1.0000
  H   H7        1.0  0.3548161295418236  0.28021276510869053  0.807094573415609  1.0000
  H   H8        1.0  0.4595732434363425  0.35350459343562823  0.8880013621103604  1.0000
  H   H9        1.0  0.4585051093358765  0.5761266996650694  0.6903706140357373  1.0000
  H   H10       1.0  0.5319006224307014  0.5110089912400535  0.7787304566736506  1.0000
  C   C16       1.0  0.8259397260862076  0.024218044886718415  0.5602691318110249  1.0000
  C   C17       1.0  0.8246496659866974  0.012485578426386867  0.6970915301909022  1.0000
  C   C18       1.0  0.8239357772263863  0.8894033818641292  0.7662001899847357  1.0000
  C   C19       1.0  0.8245171197500302  0.7772325561830192  0.696729231820945  1.0000
  C   C20       1.0  0.8258101246922303  0.7870095922630101  0.5599932086040271  1.0000
  C   C21       1.0  0.8265157633032406  0.9109631359703175  0.49256221764273045  1.0000
  C   C22       1.0  0.8225650583035686  0.8779735920398614  0.9108527005326075  1.0000
  C   C23       1.0  0.7802610129900388  0.7858989985991502  0.9792254182289584  1.0000
  C   C24       1.0  0.7789483810398897  0.7752254082356385  0.1153434750569774  1.0000
  C   C25       1.0  0.8203671816162772  0.8554607353899532  0.1855457851345489  1.0000
  C   C26       1.0  0.8620130922106096  0.948501351638593  0.11782110145989655  1.0000
  C   C27       1.0  0.8633416897573896  0.9593504438630353  0.981702623515091  1.0000
  C   C28       1.0  0.8175105127674235  0.8463721943792386  0.3316567830697368  1.0000
  O   O1        1.0  0.7660969751235767  0.9305118879353488  0.3723240938054986  1.0000
  H   H11       1.0  0.8279279306344617  0.2536647194839039  0.30201414885100686  1.0000
  H   H12       1.0  0.8232436248598611  0.09930216176309337  0.7501121440257903  1.0000
  H   H13       1.0  0.8249005988066779  0.6821200305951293  0.749559941405245  1.0000
  H   H14       1.0  0.8275111504965443  0.9192207009878393  0.3870936476093032  1.0000
  H   H15       1.0  0.8262611664999862  0.4632955708136  0.5074001223842848  1.0000
  H   H16       1.0  0.7473772556311019  0.7234813482232882  0.9273890571516492  1.0000
  H   H17       1.0  0.7454821756374972  0.704530493734989  0.16599692681186695  1.0000
  H   H18       1.0  0.8936298165465411  0.012495628929497293  0.17041418099208194  1.0000
  H   H19       1.0  0.8968308033254555  0.03049062737760244  0.9318556307725254  1.0000
  H   H20       1.0  0.8680956497833335  0.8732793997321121  0.37140757548120085  1.0000
  H   H21       1.0  0.8063267819780296  0.7445697473722809  0.369562379220037  1.0000
  H   H22       1.0  0.7663353718160268  0.9208613043050683  0.46894948334779285  1.0000
  C   C29       1.0  0.8259394317937869  0.4054746711152841  0.1787575818335827  1.0000
  C   C30       1.0  0.8275142515068031  0.5421598209842216  0.16738132756032686  1.0000
  C   C31       1.0  0.8282587013367706  0.611601949751772  0.04445617400792368  1.0000
  C   C32       1.0  0.8273825251334299  0.5425221541964229  0.9320708106683719  1.0000
  C   C33       1.0  0.8258104196134413  0.4057530385274597  0.9415047667569385  1.0000
  C   C34       1.0  0.8251015602932377  0.3380702024428157  0.06523563195993454  1.0000
  C   C35       1.0  0.8299254915912573  0.7561980505261403  0.03339502467559341  1.0000
  C   C36       1.0  0.872128821114996  0.8232574243619273  0.11558778111346557  1.0000
  C   C37       1.0  0.873702963984543  0.9593298776030741  0.10504775247817832  1.0000
  C   C38       1.0  0.8335411624332317  0.031063209049068785  0.011205473134366262  1.0000
  C   C39       1.0  0.7905186890739029  0.9643793913129763  0.9308024582728907  1.0000
  C   C40       1.0  0.7889727790003069  0.8283343279778181  0.941081255782009  1.0000
  N   N3        1.0  0.8332547079390192  0.171125740817609  0.9999216058552696  1.0000
  C   C41       1.0  0.8921692398206887  0.24903114847532226  0.02263591018234057  1.0000
  O   O2        1.0  0.9514782285891388  0.19851838141465183  0.03067814564064264  1.0000
  C   C42       1.0  0.8840769033888547  0.3930074240751056  0.02725334547909153  1.0000
  H   H23       1.0  0.8253552373315505  0.35289745562552377  0.5106089711620798  1.0000
  H   H24       1.0  0.8272046138865697  0.5949870388728691  0.25431556717677317  1.0000
  H   H25       1.0  0.8288646280773869  0.5955126288539125  0.8370676567249355  1.0000
  H   H26       1.0  0.8238892195310312  0.23264170940157936  0.07329548600385039  1.0000
  H   H27       1.0  0.8232607039068055  0.14758539179876817  0.7520151919187561  1.0000
  H   H28       1.0  0.904328443825483  0.7704310806590777  0.18753226113486066  1.0000
  H   H29       1.0  0.905432521674501  0.008087012198947807  0.17179821832961872  1.0000
  H   H30       1.0  0.7583385011662205  0.01808045352715615  0.8594267898492935  1.0000
  H   H31       1.0  0.7549899428959845  0.7795720538191455  0.8780337350601406  1.0000
  H   H32       1.0  0.7886618603936608  0.2194087022285709  0.9653274414798498  1.0000
  H   H33       1.0  0.8357105295209215  0.4156177392569913  0.0790643592260667  1.0000
  H   H34       1.0  0.8822197780988148  0.43971284120643306  0.926533001628302  1.0000
  H   H35       1.0  0.9279498077781381  0.4329675020991912  0.07952946493158186  1.0000
  Zn  Zn1       1.0  0.7505105306143885  0.4070082193096314  0.5607580321049779  1.0000
  Zn  Zn2       1.0  0.9012327341953744  0.4042189626956747  0.5595037434971506  1.0000
  C   C43       1.0  0.8258341483199549  0.40052631858538357  0.7973310757204999  1.0000
  C   C44       1.0  0.8259107620715913  0.410702471764381  0.32293081306001215  1.0000
  C   C45       1.0  0.8258319566809655  0.6428239684950903  0.5548701400522376  1.0000
  C   C46       1.0  0.8259129025330412  0.16840326239873016  0.5653918189602509  1.0000
  O   O3        1.0  0.8830994319772577  0.4113927948551446  0.3708406725582407  1.0000
  O   O4        1.0  0.88304014368757  0.39771803432281816  0.7484688666950401  1.0000
  O   O5        1.0  0.8830376026226401  0.5933764656589033  0.5526799516197765  1.0000
  O   O6        1.0  0.8831019216258014  0.21573437372630755  0.5666294906822891  1.0000
  O   O7        1.0  0.7686412917498717  0.5954928092322462  0.5536322853410349  1.0000
  O   O8        1.0  0.7686438325582512  0.399835938305352  0.7494211306055185  1.0000
  O   O9        1.0  0.7687031211654768  0.4135106530072883  0.3717913750649364  1.0000
  O   O10       1.0  0.7687056107963168  0.21785222262445036  0.567580290561396  1.0000
