data_image0
_chemical_formula_structural       NC10NC3NH7C16H10C12IH9Zn2C4O8
_chemical_formula_sum              "N3 C45 H26 I1 Zn2 O8"
_cell_length_a       19.210446455230148
_cell_length_b       10.29914801576943
_cell_length_c       10.29977335064465
_cell_angle_alpha    85.52085607386434
_cell_angle_beta     89.99988081382295
_cell_angle_gamma    89.9607823085547

_space_group_name_H-M_alt    "P 1"
_space_group_IT_number       1

loop_
  _space_group_symop_operation_xyz
  'x, y, z'

loop_
  _atom_site_type_symbol
  _atom_site_label
  _atom_site_symmetry_multiplicity
  _atom_site_fract_x
  _atom_site_fract_y
  _atom_site_fract_z
  _atom_site_occupancy
  N   N1        1.0  0.6555248251046644  0.4207173940608291  0.5667956538252783  1.0000
  C   C1        1.0  0.5952964035285825  0.42292499136266803  0.5670259801618616  1.0000
  C   C2        1.0  0.5204921223453699  0.4256620078289213  0.5673113249801118  1.0000
  C   C3        1.0  0.48488821458246506  0.5418959296510679  0.5823798240670761  1.0000
  C   C4        1.0  0.4122227361771921  0.5420474932175756  0.5823271705401456  1.0000
  C   C5        1.0  0.3753254094981569  0.42637099722598726  0.5673975441298467  1.0000
  C   C6        1.0  0.2980032036422098  0.42501447375018486  0.5672474572061308  1.0000
  C   C7        1.0  0.2602468017268263  0.5286114029472946  0.5038474125504611  1.0000
  C   C8        1.0  0.1874683721847651  0.5272091085748751  0.5037388602266619  1.0000
  C   C9        1.0  0.1514449395026921  0.4224674279889449  0.5669792601774235  1.0000
  C   C10       1.0  0.0765153468053713  0.42116529811473646  0.5668429162572173  1.0000
  N   N2        1.0  0.0162774360845485  0.4201183414734708  0.5667333306375644  1.0000
  C   C11       1.0  0.1884776868244395  0.3189962075542121  0.6303542497237771  1.0000
  C   C12       1.0  0.261257958513368  0.3201241997636086  0.6305131497025016  1.0000
  C   C13       1.0  0.4135392912610062  0.3119573690349915  0.5526165314467701  1.0000
  N   N3        1.0  0.4843093646543412  0.31440246167178976  0.5527811841648587  1.0000
  H   H1        1.0  0.5129944333242703  0.6313320198465107  0.5943949366269323  1.0000
  H   H2        1.0  0.3849593152610731  0.632065063070643  0.5957367841632295  1.0000
  H   H3        1.0  0.2869719257346371  0.6098859009643733  0.45282677721888165  1.0000
  H   H4        1.0  0.1593199150322489  0.607655438724205  0.45404892056941293  1.0000
  H   H5        1.0  0.1611127592280842  0.2375864446550746  0.6799450634907154  1.0000
  H   H6        1.0  0.2887617076208976  0.23979662487664544  0.6816407651975758  1.0000
  H   H7        1.0  0.3872684755599786  0.22107683314872673  0.5391609919633784  1.0000
  C   C14       1.0  0.8358549018877336  0.03901653948229766  0.5669300509369688  1.0000
  C   C15       1.0  0.8199495991798377  0.04868015727372743  0.4334589305202199  1.0000
  C   C16       1.0  0.8119364118543968  0.9364500185279895  0.36562162676437504  1.0000
  C   C17       1.0  0.8200424860451259  0.8134283043399182  0.43305432450907255  1.0000
  C   C18       1.0  0.835954000877973  0.8018092097016886  0.5666101966761223  1.0000
  C   C19       1.0  0.8437634826652174  0.9151199026731229  0.6327257113072324  1.0000
  C   C20       1.0  0.7951106915964768  0.947718566088457  0.22442527799208367  1.0000
  C   C21       1.0  0.8280370556192731  0.8667033105606117  0.1392019693886719  1.0000
  C   C22       1.0  0.8121769490978806  0.8774340959805796  0.006313412860736722  1.0000
  C   C23       1.0  0.7632275862667269  0.969081235610346  0.9568439393448398  1.0000
  C   C24       1.0  0.7301741838210507  0.05007738689265806  0.04078333008812529  1.0000
  C   C25       1.0  0.7459846615997453  0.03958794355612638  0.1736928417502206  1.0000
  C   C26       1.0  0.7469252788865839  0.9800048457779312  0.820022717085509  1.0000
  C   C27       1.0  0.733272272241934  0.9891532645751752  0.7054369227983579  1.0000
  C   C28       1.0  0.7172847626749715  0.9998659397431308  0.5712581261358709  1.0000
  C   C29       1.0  0.703634047339765  0.009012972233110927  0.45669083920090436  1.0000
  H   H8        1.0  0.8419369650608806  0.362774153332889  0.6182828613149376  1.0000
  H   H9        1.0  0.8146938595912553  0.1437591409558343  0.38154980071024247  1.0000
  H   H10       1.0  0.8129900688726621  0.7265615457678408  0.38164008620966805  1.0000
  H   H11       1.0  0.8560296149773456  0.9069502186347291  0.7356762685013107  1.0000
  H   H12       1.0  0.8655550924272818  0.5725728786941745  0.8188682161356757  1.0000
  H   H13       1.0  0.8667087477019954  0.7962241101181036  0.17504495236382467  1.0000
  H   H14       1.0  0.8382142549292273  0.8144864012812455  0.9421341153542171  1.0000
  H   H15       1.0  0.6920560376170363  0.1211204141055171  0.003570359968854131  1.0000
  H   H16       1.0  0.7191358266397553  0.10214740948654422  0.23706949278392941  1.0000
  H   H17       1.0  0.6916476202487271  0.01704483933766121  0.3560911009066725  1.0000
  C   C30       1.0  0.8358712826052188  0.4205190227098299  0.1854008756435872  1.0000
  C   C31       1.0  0.8989806986551967  0.4894236335415063  0.17902382084118384  1.0000
  C   C32       1.0  0.9309921903394597  0.5242302469289637  0.058662520530460505  1.0000
  C   C33       1.0  0.8990476291438353  0.48920934760204404  0.9437542857208863  1.0000
  C   C34       1.0  0.8359376303871616  0.42030674285540615  0.9481393815813077  1.0000
  C   C35       1.0  0.8047031165329015  0.38634634905123333  0.06943063112152048  1.0000
  C   C36       1.0  0.997756413994829  0.597123256158103  0.052970147401495415  1.0000
  C   C37       1.0  0.008719858971210304  0.7001329557669829  0.13273567203992065  1.0000
  C   C38       1.0  0.07159476205669923  0.7686266512737836  0.12717621782293542  1.0000
  C   C39       1.0  0.12420510942471652  0.7351768343048417  0.04219177062517021  1.0000
  C   C40       1.0  0.1139132425572782  0.6330522927298128  0.9625684989179946  1.0000
  C   C41       1.0  0.051108926203406346  0.5643324887919345  0.9677220940610956  1.0000
  I   I1        1.0  0.21899778165270245  0.8386670942326124  0.034113689334618114  1.0000
  H   H18       1.0  0.8118035056295025  0.3943282812168829  0.5152792883529498  1.0000
  H   H19       1.0  0.923875628475452  0.5146314391216857  0.2679857989576806  1.0000
  H   H20       1.0  0.923024159610781  0.5173596544508161  0.8506255214907505  1.0000
  H   H21       1.0  0.7560166845745765  0.33319071549531687  0.07358187871932187  1.0000
  H   H22       1.0  0.8119006686059788  0.39401595167779413  0.6223595628165346  1.0000
  H   H23       1.0  0.9683599184472506  0.7287803267950304  0.19812136015511572  1.0000
  H   H24       1.0  0.07930888804933289  0.8478975628036625  0.18872750383164694  1.0000
  H   H25       1.0  0.1546153468163256  0.6066407730425061  0.8968906731883379  1.0000
  H   H26       1.0  0.04460439557748508  0.4845186358918814  0.9063317358883873  1.0000
  Zn  Zn1       1.0  0.7596302353107522  0.42054105398930375  0.5667851692258561  1.0000
  Zn  Zn2       1.0  0.9121720094885345  0.420284095137768  0.5667544554613588  1.0000
  C   C42       1.0  0.8359228605634295  0.4151727499783493  0.8039676116444567  1.0000
  C   C43       1.0  0.8358810502112918  0.4256540350661402  0.32957213948669994  1.0000
  C   C44       1.0  0.8359312417446294  0.6576266150037016  0.5614954584103165  1.0000
  C   C45       1.0  0.8358726167815287  0.18319860967398416  0.5720443626243861  1.0000
  O   O1        1.0  0.8937731358952623  0.42727421135378774  0.3779456793158107  1.0000
  O   O2        1.0  0.8938064517441833  0.4133565681662721  0.7555703873432995  1.0000
  O   O3        1.0  0.8938124394026306  0.6091411313605719  0.5597724076668182  1.0000
  O   O4        1.0  0.8937670961773782  0.2314896575652834  0.5737435616241267  1.0000
  O   O5        1.0  0.7780350965668872  0.6093354916508915  0.5597960630667376  1.0000
  O   O6        1.0  0.778029109101982  0.4135524889124982  0.7555939728433225  1.0000
  O   O7        1.0  0.777995793157663  0.42747008727468794  0.3779677034328097  1.0000
  O   O8        1.0  0.7779897534441945  0.2316855241694915  0.5737656831129403  1.0000
