data_image0
_chemical_formula_structural       NC12NC2H8C12OCH12C12OCH12Zn2C4O8
_chemical_formula_sum              "N2 C44 H32 O10 Zn2"
_cell_length_a       19.240039667572717
_cell_length_b       10.29979075500242
_cell_length_c       10.299794127170987
_cell_angle_alpha    85.57270427699777
_cell_angle_beta     89.99328814946611
_cell_angle_gamma    89.9807799165636

_space_group_name_H-M_alt    "P 1"
_space_group_IT_number       1

loop_
  _space_group_symop_operation_xyz
  'x, y, z'

loop_
  _atom_site_type_symbol
  _atom_site_label
  _atom_site_symmetry_multiplicity
  _atom_site_fract_x
  _atom_site_fract_y
  _atom_site_fract_z
  _atom_site_occupancy
  N   N1        1.0  0.6543118007826365  0.4208555790294999  0.5674475302495798  1.0000
  C   C1        1.0  0.5941634319554165  0.420855662986813  0.5674474483123353  1.0000
  C   C2        1.0  0.5193453948018085  0.42085578023248615  0.5674473110082923  1.0000
  C   C3        1.0  0.4828767677261539  0.35642051376492856  0.67085763277526  1.0000
  C   C4        1.0  0.4102060341062967  0.3563096578451488  0.6709441763373214  1.0000
  C   C5        1.0  0.373013159862143  0.4208558727317293  0.567447083332699  1.0000
  C   C6        1.0  0.410195963959417  0.48540227465995645  0.46395018485073347  1.0000
  C   C7        1.0  0.48286666693788466  0.4852911832768825  0.46403685091895386  1.0000
  C   C8        1.0  0.295808069442629  0.4208557940433937  0.5674469879253143  1.0000
  C   C9        1.0  0.2586379715797588  0.30760749243308183  0.6093210156927782  1.0000
  C   C10       1.0  0.1859672697301691  0.3077143659707664  0.6092296895514169  1.0000
  C   C11       1.0  0.1494757825388057  0.4208556648885353  0.5674470488387466  1.0000
  C   C12       1.0  0.074657745388674  0.42085555121762885  0.5674472974932452  1.0000
  N   N2        1.0  0.014509428530826398  0.42085551045417313  0.5674475059047881  1.0000
  C   C13       1.0  0.18593180619375746  0.5339970396184177  0.5256643552342719  1.0000
  C   C14       1.0  0.2586024889240411  0.5341040932295988  0.5255728664975663  1.0000
  H   H1        1.0  0.5105955294887932  0.30653352366172193  0.7515974547638709  1.0000
  H   H2        1.0  0.38311640982433526  0.3072210703024365  0.7527994163834328  1.0000
  H   H3        1.0  0.3830990574515832  0.5344908892403772  0.38209489395730745  1.0000
  H   H4        1.0  0.5105776766390246  0.5351780731972422  0.38329730471757206  1.0000
  H   H5        1.0  0.285745300423858  0.2184614066495043  0.6404912957875109  1.0000
  H   H6        1.0  0.1582662551230732  0.21946775360606074  0.6414328468218395  1.0000
  H   H7        1.0  0.1582029973565566  0.6222436274505432  0.4934612125147395  1.0000
  H   H8        1.0  0.2856816388857434  0.6232502581766215  0.4944025416297264  1.0000
  C   C15       1.0  0.8344764088466182  0.039487810448379346  0.5674864501180903  1.0000
  C   C16       1.0  0.8143495124010366  0.028358663859730182  0.6989186742801137  1.0000
  C   C17       1.0  0.8040959086646788  0.9055831460483279  0.7654832320187868  1.0000
  C   C18       1.0  0.8142246505452794  0.7930763521698438  0.6988528921399981  1.0000
  C   C19       1.0  0.8343515161953977  0.8022132837279741  0.567419735504713  1.0000
  C   C20       1.0  0.8443663140483232  0.925860366070792  0.5024731225269627  1.0000
  C   C21       1.0  0.7828070266048884  0.894863243221019  0.9045324015890253  1.0000
  C   C22       1.0  0.7320920713863749  0.804009687250835  0.9495959609295248  1.0000
  C   C23       1.0  0.712118137209151  0.7941940344244188  0.08032919408436145  1.0000
  C   C24       1.0  0.7424094303194564  0.87456386290532  0.16767347267470378  1.0000
  C   C25       1.0  0.793309300103885  0.9660270295904274  0.12448153576042997  1.0000
  C   C26       1.0  0.8130678024897268  0.9754813468856464  0.9932216263863471  1.0000
  O   O1        1.0  0.8254306062301071  0.0487505022545065  0.20834622744163545  1.0000
  C   C27       1.0  0.8105216370775836  0.04976552248469823  0.3436763095478538  1.0000
  H   H9        1.0  0.8421760338846783  0.3711799762479524  0.5174264219008766  1.0000
  H   H10       1.0  0.8056790965629055  0.11539893125039447  0.7493451927034758  1.0000
  H   H11       1.0  0.8072928137782412  0.6981904139544259  0.7502184816318789  1.0000
  H   H12       1.0  0.8598938991956994  0.9336776359865372  0.4010787145735142  1.0000
  H   H13       1.0  0.841986188790063  0.47824340344183264  0.5173220738765043  1.0000
  H   H14       1.0  0.707236875529758  0.7417624093574321  0.8833893840644884  1.0000
  H   H15       1.0  0.6728629687678693  0.7242332849223095  0.11400649999507939  1.0000
  H   H16       1.0  0.7259322840080279  0.8648421324830561  0.2683355833241503  1.0000
  H   H17       1.0  0.8528836621353658  0.04501630345606733  0.9610571106417232  1.0000
  H   H18       1.0  0.8225245088643653  0.9532504336319615  0.3942966342039398  1.0000
  H   H19       1.0  0.8433165317075032  0.12441617207504296  0.38588873888479835  1.0000
  H   H20       1.0  0.7550372721750894  0.0746801712039451  0.35811116227509765  1.0000
  C   C28       1.0  0.8344374132150286  0.4207370857553654  0.1861016937555533  1.0000
  C   C29       1.0  0.7663399459019752  0.37161467944471394  0.18891264582077016  1.0000
  C   C30       1.0  0.7318152912305665  0.34682655617638347  0.0731901006472313  1.0000
  C   C31       1.0  0.766292657546556  0.37184114503895405  0.9536077343960812  1.0000
  C   C32       1.0  0.8343905139335654  0.4209640587749628  0.948804520451509  1.0000
  C   C33       1.0  0.8680822784134304  0.4451340811252764  0.06557121256555809  1.0000
  C   C34       1.0  0.6597740193413292  0.29485073790189964  0.07721862620478803  1.0000
  C   C35       1.0  0.6100103524035756  0.3435175756183455  0.9860660612464813  1.0000
  C   C36       1.0  0.5423027596463028  0.2945878127839352  0.9901216149106089  1.0000
  C   C37       1.0  0.5233745832902857  0.19665442404207045  0.08481687993808573  1.0000
  C   C38       1.0  0.5724528049782567  0.1465829970029362  0.17683215012085918  1.0000
  C   C39       1.0  0.6402547704002743  0.19615230250679527  0.17232516481009807  1.0000
  O   O2        1.0  0.5561095150462677  0.048010643326860336  0.2736624266762022  1.0000
  C   C40       1.0  0.4894981921752109  0.9887374076074229  0.2897048275416365  1.0000
  H   H21       1.0  0.8603947228459566  0.43939651863354734  0.5124881639193573  1.0000
  H   H22       1.0  0.7396412747413023  0.35418594269525694  0.2811911983099791  1.0000
  H   H23       1.0  0.7402423261036035  0.35124681074554154  0.8642780116525395  1.0000
  H   H24       1.0  0.9206169046843278  0.48302911240605173  0.06263428992329256  1.0000
  H   H25       1.0  0.8603247136446803  0.43974328588037337  0.6195169107276892  1.0000
  H   H26       1.0  0.6232156035088003  0.42058327054192146  0.912740616434593  1.0000
  H   H27       1.0  0.5042963760739271  0.33298300641587275  0.91978038976672  1.0000
  H   H28       1.0  0.4705792351705746  0.16062041588443932  0.08564849407748687  1.0000
  H   H29       1.0  0.6779550699344187  0.15600709853877004  0.2424927767310272  1.0000
  H   H30       1.0  0.4751808800824224  0.940281923316226  0.20084853423540627  1.0000
  H   H31       1.0  0.4912963170465264  0.9142619755659614  0.373383228226706  1.0000
  H   H32       1.0  0.4499006512964212  0.06299535785734656  0.30997540480309627  1.0000
  Zn  Zn1       1.0  0.7582570647324086  0.42085209427681014  0.5674550116096295  1.0000
  Zn  Zn2       1.0  0.9105641844350207  0.42084840491292375  0.567450623884366  1.0000
  C   C41       1.0  0.834398655703058  0.41574747658221733  0.8046378215353938  1.0000
  C   C42       1.0  0.8344242563771803  0.42595466121970427  0.3302679412280656  1.0000
  C   C43       1.0  0.8343718472218428  0.6580404178444765  0.5622574496632247  1.0000
  C   C44       1.0  0.8344510131378964  0.18366015968152105  0.5726483824735678  1.0000
  O   O3        1.0  0.8922195999220179  0.42769866139030244  0.3786497862311291  1.0000
  O   O4        1.0  0.8922008920490953  0.4139996964390662  0.756252272607127  1.0000
  O   O5        1.0  0.8921784646100138  0.6096543111414803  0.5605284073434225  1.0000
  O   O6        1.0  0.8922419753934654  0.2320440559503667  0.5743735541253172  1.0000
  O   O7        1.0  0.7765792217990192  0.6096564432420379  0.5605320813633443  1.0000
  O   O8        1.0  0.7766016489836548  0.4140033888182182  0.7562558772483823  1.0000
  O   O9        1.0  0.7766203570062703  0.42770230804903253  0.3786518295472705  1.0000
  O   O10       1.0  0.7766427324704069  0.2320476933492892  0.5743756948056411  1.0000
