data_image0
_chemical_formula_structural       NC10NC5H10C12OCH12C12NH11Zn2C4O8
_chemical_formula_sum              "N3 C44 H33 O9 Zn2"
_cell_length_a       19.4436361288709
_cell_length_b       10.29979075500242
_cell_length_c       10.299774167527174
_cell_angle_alpha    85.5728606880388
_cell_angle_beta     89.69810155224394
_cell_angle_gamma    89.4004616021446

_space_group_name_H-M_alt    "P 1"
_space_group_IT_number       1

loop_
  _space_group_symop_operation_xyz
  'x, y, z'

loop_
  _atom_site_type_symbol
  _atom_site_label
  _atom_site_symmetry_multiplicity
  _atom_site_fract_x
  _atom_site_fract_y
  _atom_site_fract_z
  _atom_site_occupancy
  N   N1        1.0  0.647503082935377  0.4088861822925385  0.5620724710290981  1.0000
  C   C1        1.0  0.5886654856962922  0.41878967902250097  0.5764552774699903  1.0000
  C   C2        1.0  0.5153341291019069  0.43114067315083315  0.5944461352886314  1.0000
  C   C3        1.0  0.4731558389015891  0.3991330977265015  0.4997781760621862  1.0000
  C   C4        1.0  0.3972494185738878  0.4095719449387105  0.5051054324407915  1.0000
  C   C5        1.0  0.3575138447740784  0.3848363940777457  0.6121748361586166  1.0000
  C   C6        1.0  0.2813926971786907  0.3887515141789446  0.5992157706664922  1.0000
  C   C7        1.0  0.240819803734416  0.4464232628929654  0.6929792413174536  1.0000
  C   C8        1.0  0.16915584302232722  0.4500597946657332  0.6824355698163675  1.0000
  C   C9        1.0  0.1370700848001061  0.3956286009396137  0.5784149651214032  1.0000
  C   C10       1.0  0.0632768698607037  0.3993263579485842  0.5677160145572115  1.0000
  N   N2        1.0  0.0039521301472416  0.40229916056595627  0.5591147676285115  1.0000
  C   C11       1.0  0.1769182033409927  0.33724980890527534  0.48503475403935226  1.0000
  C   C12       1.0  0.24859860322189734  0.33355902469497245  0.495326661681311  1.0000
  C   C13       1.0  0.3856527965634076  0.3443907759000633  0.7432663400266277  1.0000
  C   C14       1.0  0.44430898565119314  0.3875178168242597  0.7905044040901077  1.0000
  C   C15       1.0  0.4885004443752483  0.48536703429979333  0.7161344584184339  1.0000
  H   H1        1.0  0.49526013196269536  0.3700058611349313  0.4094767778834383  1.0000
  H   H2        1.0  0.3725476853418095  0.43205587804863455  0.4119496638283644  1.0000
  H   H3        1.0  0.26468265908700994  0.48972313667593426  0.7738217294196406  1.0000
  H   H4        1.0  0.1388031324967149  0.49538248134942053  0.7553508059349159  1.0000
  H   H5        1.0  0.15258343127307142  0.2941456296936955  0.40452672380359367  1.0000
  H   H6        1.0  0.2782860677708166  0.2859930397563293  0.4231078580605523  1.0000
  H   H7        1.0  0.3546977163486999  0.2801813608078776  0.8075142558281421  1.0000
  H   H8        1.0  0.4594641246561547  0.353461921213984  0.8884367225494123  1.0000
  H   H9        1.0  0.45837645588378967  0.5760779438030788  0.6908784061078492  1.0000
  H   H10       1.0  0.5317809743611414  0.5109600756561823  0.779215352668255  1.0000
  C   C16       1.0  0.8257927024530777  0.024223727141001294  0.560632052414354  1.0000
  C   C17       1.0  0.8058751985095642  0.013463004152641123  0.6922297668110786  1.0000
  C   C18       1.0  0.7957282695381637  0.8908751778643677  0.7588786325100356  1.0000
  C   C19       1.0  0.8057516361368  0.7781829756421562  0.69216500980261  1.0000
  C   C20       1.0  0.8256691096058363  0.786951484160594  0.5605663631838718  1.0000
  C   C21       1.0  0.8355797171074333  0.9104152464917762  0.4955374058908506  1.0000
  C   C22       1.0  0.7746608688171857  0.8805449689075637  0.8981028466087495  1.0000
  C   C23       1.0  0.7244736845424815  0.7906189658091431  0.9435829064096894  1.0000
  C   C24       1.0  0.704707551347284  0.7811689374270429  0.07448037261017437  1.0000
  C   C25       1.0  0.7346835539631652  0.8609850662984926  0.16157607941788998  1.0000
  C   C26       1.0  0.7850537273875728  0.95151730370585  0.11796612694234432  1.0000
  C   C27       1.0  0.8046066710883588  0.9606099347302248  0.986543752529683  1.0000
  O   O1        1.0  0.8168406997658294  0.0336536015823401  0.2015672145101992  1.0000
  C   C28       1.0  0.8020868176275007  0.03494163541095485  0.33701994899596976  1.0000
  H   H11       1.0  0.8334122234319902  0.35577495161750683  0.5105087156241119  1.0000
  H   H12       1.0  0.7972949896389534  0.10066196681377693  0.7427275656425982  1.0000
  H   H13       1.0  0.7988919122968365  0.6834239417233727  0.7435876057883384  1.0000
  H   H14       1.0  0.8509457592195363  0.917948283384012  0.3940153248211997  1.0000
  H   H15       1.0  0.8332243541269984  0.4628418502392382  0.51040592624451  1.0000
  H   H16       1.0  0.699877194018713  0.7288260352079341  0.8775803019125916  1.0000
  H   H17       1.0  0.6658608969160904  0.7119261433352626  0.10848006252001618  1.0000
  H   H18       1.0  0.7183778332405694  0.8515649315991506  0.2623736587992893  1.0000
  H   H19       1.0  0.8440081807586602  0.029416686636404066  0.9540522515474779  1.0000
  H   H20       1.0  0.8139647476017372  0.938207188058373  0.38754180523308  1.0000
  H   H21       1.0  0.8345403905476373  0.10899267777008537  0.3789631712576713  1.0000
  H   H22       1.0  0.7471798755986326  0.06087097145937692  0.351910410971904  1.0000
  C   C29       1.0  0.8257543152972445  0.40547266744070387  0.17924695606372643  1.0000
  C   C30       1.0  0.7584015748785731  0.3574155689522627  0.1826308934455425  1.0000
  C   C31       1.0  0.7242493077558207  0.3331809194843447  0.06719793186310863  1.0000
  C   C32       1.0  0.7583542855162383  0.3576477433089784  0.9473265545765446  1.0000
  C   C33       1.0  0.8257074638020496  0.4057026072141685  0.941951469394271  1.0000
  C   C34       1.0  0.8590302085809133  0.4293464719115718  0.0584340202372744  1.0000
  C   C35       1.0  0.6529940118523474  0.28233986128653776  0.0718312900902005  1.0000
  C   C36       1.0  0.6336802096572407  0.1842431521576391  0.16729889318629887  1.0000
  C   C37       1.0  0.5666115216611345  0.1364471313096849  0.17152612723909533  1.0000
  C   C38       1.0  0.5177957210499601  0.18587478140211955  0.08062233706643318  1.0000
  C   C39       1.0  0.5366557193907275  0.2835897169095194  0.9853178982270347  1.0000
  C   C40       1.0  0.6037037382734495  0.33148738131004674  0.9808245467236945  1.0000
  N   N3        1.0  0.449200028168352  0.13693093033331305  0.08508254450826747  1.0000
  H   H23       1.0  0.8514304990016887  0.4237307399208925  0.5054150292043365  1.0000
  H   H24       1.0  0.7319984149244706  0.34040039014233514  0.27513718890523897  1.0000
  H   H25       1.0  0.7325993482688541  0.3374481868916477  0.8582116498254311  1.0000
  H   H26       1.0  0.9109898963075728  0.46641942126189373  0.055055480062515594  1.0000
  H   H27       1.0  0.8513617452460548  0.4240689595636604  0.6124457926600884  1.0000
  H   H28       1.0  0.6706844314789737  0.14329124832041562  0.23764518749895092  1.0000
  H   H29       1.0  0.5527493044781496  0.060656844181824265  0.2454661452166773  1.0000
  H   H30       1.0  0.4993646411975855  0.3228816156501111  0.9147040765690684  1.0000
  H   H31       1.0  0.6167617652209165  0.40815902209842414  0.9072231436647695  1.0000
  H   H32       1.0  0.4124518909226997  0.17316635132661173  0.017719815726782162  1.0000
  H   H33       1.0  0.4346563227321982  0.06409850009324303  0.1557808247831567  1.0000
  Zn  Zn1       1.0  0.750366579605732  0.40698184100488555  0.5612264538278318  1.0000
  Zn  Zn2       1.0  0.9010886260552866  0.4041928973909077  0.5599714664564979  1.0000
  C   C41       1.0  0.8257156324852033  0.40048546689457054  0.797784472778297  1.0000
  C   C42       1.0  0.8257412187824804  0.4106908797039217  0.3234135611214757  1.0000
  C   C43       1.0  0.8256892317884732  0.6427782322947289  0.5554039014675467  1.0000
  C   C44       1.0  0.8257675682969343  0.1683965549738473  0.5657942022303579  1.0000
  O   O2        1.0  0.8829350555237827  0.41137810410063835  0.371320930077665  1.0000
  O   O3        1.0  0.8829163417100935  0.3976805189914956  0.74892422370029  1.0000
  O   O4        1.0  0.88289425167116  0.5933350059369933  0.5532002037882107  1.0000
  O   O5        1.0  0.8829570941359656  0.21572362736768858  0.5670448530467675  1.0000
  O   O6        1.0  0.7684980600910162  0.595451111981246  0.5541530676589967  1.0000
  O   O7        1.0  0.7685201498781888  0.3997981853188055  0.7498770181943788  1.0000
  O   O8        1.0  0.7685388638408425  0.413495724700498  0.37227216324270773  1.0000
  O   O9        1.0  0.7685609024457387  0.21784123870814187  0.5679961835762215  1.0000
