data_image0
_chemical_formula_structural       NC12NC2H8C12NCOCH13C13OH12Zn2C4O8
_chemical_formula_sum              "N3 C45 H33 O10 Zn2"
_cell_length_a       17.80743265337812
_cell_length_b       10.299155265289647
_cell_length_c       10.299153481560891
_cell_angle_alpha    85.56585442832863
_cell_angle_beta     91.5511256746575
_cell_angle_gamma    89.41399588169462

_space_group_name_H-M_alt    "P 1"
_space_group_IT_number       1

loop_
  _space_group_symop_operation_xyz
  'x, y, z'

loop_
  _atom_site_type_symbol
  _atom_site_label
  _atom_site_symmetry_multiplicity
  _atom_site_fract_x
  _atom_site_fract_y
  _atom_site_fract_z
  _atom_site_occupancy
  N   N1        1.0  0.7068655657781208  0.4062215724482243  0.6009300449371076  1.0000
  C   C1        1.0  0.6560271268952245  0.43575451116078145  0.5322227952756571  1.0000
  C   C2        1.0  0.592779096138581  0.47249134469637055  0.44675962532270086  1.0000
  C   C3        1.0  0.6044715478286289  0.5264643267726741  0.3201243152200208  1.0000
  C   C4        1.0  0.5431316247404842  0.5616984344182028  0.23705755837390052  1.0000
  C   C5        1.0  0.46994477247571037  0.5432227744186215  0.2799661335277934  1.0000
  C   C6        1.0  0.45727565624257843  0.4891311722615941  0.4070696207793352  1.0000
  C   C7        1.0  0.5194728917955719  0.4539003119912137  0.4901198649808578  1.0000
  C   C8        1.0  0.37952134749477484  0.46954247159628526  0.45283881070985577  1.0000
  C   C9        1.0  0.3607520943613493  0.4967833293529629  0.579875795019569  1.0000
  C   C10       1.0  0.28753529411995477  0.4783492627006687  0.6228249214559793  1.0000
  C   C11       1.0  0.23214498421068383  0.43242039150793055  0.5395751057018305  1.0000
  C   C12       1.0  0.15679195285029313  0.41343403240665655  0.5839253186962956  1.0000
  N   N2        1.0  0.09621345186130842  0.3981702765839803  0.6195798389537004  1.0000
  C   C13       1.0  0.2502228791965181  0.4050108315798382  0.41308113982555716  1.0000
  C   C14       1.0  0.3233867751103527  0.42345957936515677  0.3698761216004065  1.0000
  H   H1        1.0  0.6609277304730913  0.5412750756454046  0.28568305813504447  1.0000
  H   H2        1.0  0.5523027433969306  0.6037585348123637  0.13926638542439562  1.0000
  H   H3        1.0  0.42328702650780364  0.5728336099289115  0.21436681546582248  1.0000
  H   H4        1.0  0.5110004465689415  0.41045474076979405  0.5877869835462566  1.0000
  H   H5        1.0  0.40243190123933725  0.53399263000406  0.6454385529818445  1.0000
  H   H6        1.0  0.2741046195359171  0.5002370018186952  0.720827866374709  1.0000
  H   H7        1.0  0.20782598146455064  0.36906908481238676  0.3479309791950971  1.0000
  H   H8        1.0  0.336289456550439  0.40003629519667383  0.27217694685964333  1.0000
  C   C15       1.0  0.901627034681045  0.02079668378286814  0.6103778208324242  1.0000
  C   C16       1.0  0.8887709134555764  0.03072316477071957  0.4748362306364724  1.0000
  C   C17       1.0  0.8821798090235156  0.9186198871212552  0.4059925785375329  1.0000
  C   C18       1.0  0.8885912290486577  0.7954670208536238  0.47451983758449146  1.0000
  C   C19       1.0  0.9014592035000747  0.7835850848040442  0.6101435864757514  1.0000
  C   C20       1.0  0.9079012286112728  0.896768479582404  0.677237781737301  1.0000
  C   C21       1.0  0.8685805125359186  0.9300945555417678  0.26260598709232874  1.0000
  C   C22       1.0  0.9066670675590017  0.023394062697194018  0.18301237569955608  1.0000
  C   C23       1.0  0.8938754152472658  0.03406147653975533  0.048076335173706575  1.0000
  C   C24       1.0  0.8432085464757952  0.950750578135857  0.9898985863004324  1.0000
  C   C25       1.0  0.8042043055284208  0.8592863133182397  0.0693800808082703  1.0000
  C   C26       1.0  0.8170233140317608  0.8483623034388417  0.20428009606452657  1.0000
  N   N3        1.0  0.8279986808041091  0.9612658572492428  0.8516083709678965  1.0000
  C   C27       1.0  0.8828376567147986  0.9970396292955028  0.7560169948914206  1.0000
  O   O1        1.0  0.9517631620925227  0.9981567917434325  0.7871770636292044  1.0000
  C   C28       1.0  0.8588471813906177  0.023941937801312374  0.6163273515953254  1.0000
  H   H9        1.0  0.9065953672410799  0.3444542376164097  0.6625083367740365  1.0000
  H   H10       1.0  0.8828182419345969  0.1258761939574764  0.42274123151179244  1.0000
  H   H11       1.0  0.884541011827309  0.7087362912935679  0.4216971512747447  1.0000
  H   H12       1.0  0.9178199526024967  0.888397059825948  0.7817835184328199  1.0000
  H   H13       1.0  0.9261966683778137  0.5538658945351006  0.8660170463507604  1.0000
  H   H14       1.0  0.9467904984635378  0.08762445373823513  0.22502678328639703  1.0000
  H   H15       1.0  0.9226864881319671  0.10890389468528272  0.9898756878942709  1.0000
  H   H16       1.0  0.7640086300872397  0.7957612127712608  0.026495172954574597  1.0000
  H   H17       1.0  0.7857983396074153  0.7771863939756541  0.26319806862415196  1.0000
  H   H18       1.0  0.7750790281500769  0.9334825039420465  0.8179999408613168  1.0000
  H   H19       1.0  0.8046157184655536  0.0785077487379151  0.6092760065408274  1.0000
  H   H20       1.0  0.8518876318405417  0.9304629849759446  0.5707697215459744  1.0000
  H   H21       1.0  0.9016061004056138  0.08313279121803463  0.5629799693966353  1.0000
  C   C29       1.0  0.9014786169275089  0.4020447580319646  0.2288851151120348  1.0000
  C   C30       1.0  0.8238115234181048  0.3792688286982622  0.22584357529617827  1.0000
  C   C31       1.0  0.7845689059755102  0.36788091511326915  0.1071403703007503  1.0000
  C   C32       1.0  0.8239887032539804  0.37958248690336993  0.9905440005078532  1.0000
  C   C33       1.0  0.9016076119276151  0.4023369768033842  0.9916362915487187  1.0000
  C   C34       1.0  0.9398993485489273  0.41343164102210306  0.11131865334472502  1.0000
  C   C35       1.0  0.7024556312519968  0.34381423332129346  0.10489778135094086  1.0000
  C   C36       1.0  0.6549267776868919  0.41003859570392964  0.009934177154012458  1.0000
  C   C37       1.0  0.5776533291859808  0.3874343737503232  0.007901709924516442  1.0000
  C   C38       1.0  0.5466083054132947  0.297357498081402  0.09990156111865933  1.0000
  C   C39       1.0  0.5936329259822878  0.23223992240978175  0.19575921776977134  1.0000
  C   C40       1.0  0.6709099449881707  0.25481442097998563  0.19797001447809137  1.0000
  C   C41       1.0  0.4633590805447605  0.275790621399437  0.09983723485096907  1.0000
  O   O2        1.0  0.4295962913617817  0.3640832354267163  0.17770120130875822  1.0000
  H   H22       1.0  0.04798337803875263  0.445867128621678  0.4418497098360499  1.0000
  H   H23       1.0  0.7935247710957429  0.37213085307054206  0.315870724081712  1.0000
  H   H24       1.0  0.7941838276748714  0.36914574344490747  0.8989405068324055  1.0000
  H   H25       1.0  0.9997687280889451  0.4309865142607876  0.11287697024068888  1.0000
  H   H26       1.0  0.9314526161960199  0.41117528209029897  0.6645738706836615  1.0000
  H   H27       1.0  0.6773684682319052  0.480835924590719  0.9384303359605521  1.0000
  H   H28       1.0  0.5419970995740371  0.44045582032230923  0.9346974402373363  1.0000
  H   H29       1.0  0.570498000697204  0.16366348588660573  0.268669079213135  1.0000
  H   H30       1.0  0.7061147068219297  0.20160179539271694  0.27167593180268  1.0000
  H   H31       1.0  0.45145783159574154  0.1742418977419944  0.13811623776071436  1.0000
  H   H32       1.0  0.43957657432150726  0.28964867037810205  0.9985632290877975  1.0000
  H   H33       1.0  0.37498751304791  0.3458574731043311  0.17438779975442964  1.0000
  Zn  Zn1       1.0  0.8192229606922603  0.40389467769253584  0.606319460760854  1.0000
  Zn  Zn2       1.0  0.9838560585758783  0.40048658109832  0.6142010196196284  1.0000
  C   C42       1.0  0.9015826773555289  0.39710768677754693  0.8474615071698797  1.0000
  C   C43       1.0  0.901498139361856  0.4072751735954383  0.3730591862424746  1.0000
  C   C44       1.0  0.901486164264246  0.639399909909143  0.6050124259454988  1.0000
  C   C45       1.0  0.9015945966304603  0.16498139122692823  0.6155083344964134  1.0000
  O   O3        1.0  0.963982095170279  0.40773152775193644  0.4244363338119159  1.0000
  O   O4        1.0  0.9640514336425879  0.3940636862205582  0.8020659068556606  1.0000
  O   O5        1.0  0.963972656103879  0.5897177385550985  0.6062865176639931  1.0000
  O   O6        1.0  0.9640608165123531  0.21207748583400177  0.6202156229349147  1.0000
  O   O7        1.0  0.8390181465745877  0.5923037741212815  0.6003048547491472  1.0000
  O   O8        1.0  0.8390969237547771  0.3966512821880819  0.7960841742148352  1.0000
  O   O9        1.0  0.8390275850783623  0.4103190778606687  0.4184530397593407  1.0000
  O   O10       1.0  0.8391063064358729  0.21466502669055565  0.6142324262545871  1.0000
