data_image0
_chemical_formula_structural       NC10NC3NCH9C12OCH12C12SCH12Zn2C4O8
_chemical_formula_sum              "N3 C44 H33 O9 S1 Zn2"
_cell_length_a       19.437513618241372
_cell_length_b       10.29979075500242
_cell_length_c       10.299780138516091
_cell_angle_alpha    85.57237843546018
_cell_angle_beta     90.3395305496005
_cell_angle_gamma    89.50469088654314

_space_group_name_H-M_alt    "P 1"
_space_group_IT_number       1

loop_
  _space_group_symop_operation_xyz
  'x, y, z'

loop_
  _atom_site_type_symbol
  _atom_site_label
  _atom_site_symmetry_multiplicity
  _atom_site_fract_x
  _atom_site_fract_y
  _atom_site_fract_z
  _atom_site_occupancy
  N   N1        1.0  0.6477194010678019  0.41007020424619434  0.575691876130267  1.0000
  C   C1        1.0  0.5887834207770867  0.427079423598129  0.5727159980744554  1.0000
  C   C2        1.0  0.5153396438229765  0.4483308913063624  0.5690221532230657  1.0000
  C   C3        1.0  0.4735939032978359  0.34713917076494694  0.5573633724362665  1.0000
  C   C4        1.0  0.3977025501320674  0.3572022259135339  0.5501423465827198  1.0000
  C   C5        1.0  0.3581132069513278  0.4380647809329081  0.6158819469308183  1.0000
  C   C6        1.0  0.2819326262330228  0.42945470943225494  0.6074382184426541  1.0000
  C   C7        1.0  0.2488161911500149  0.30811213803517323  0.6120813756307553  1.0000
  C   C8        1.0  0.17708274678683664  0.30173884138380336  0.6049136350070021  1.0000
  C   C9        1.0  0.1374951768869796  0.41623551535483805  0.5934649527751574  1.0000
  C   C10       1.0  0.0636473184687066  0.4095240045498101  0.5861291281964995  1.0000
  N   N2        1.0  0.0042787382217114  0.4041285400239747  0.5802315836205818  1.0000
  C   C11       1.0  0.1698950450538557  0.5372676815342579  0.5895670385487841  1.0000
  C   C12       1.0  0.2416128517742282  0.543894980692949  0.5967967978776396  1.0000
  C   C13       1.0  0.38677991766174663  0.5303683143748081  0.7057979059783965  1.0000
  N   N3        1.0  0.4437555697023114  0.593575876521891  0.6853946267531117  1.0000
  C   C14       1.0  0.4876004090768014  0.5842906947529523  0.5722921040045714  1.0000
  H   H1        1.0  0.49599310275831393  0.25208126770553463  0.5452426931249255  1.0000
  H   H2        1.0  0.3730006325972984  0.28767827075000363  0.4918267999375656  1.0000
  H   H3        1.0  0.278280369015563  0.21820351632477375  0.6231017169776809  1.0000
  H   H4        1.0  0.1525038684412724  0.20751433367174044  0.608800617895821  1.0000
  H   H5        1.0  0.1397456336746173  0.6265218920277522  0.5808587418345121  1.0000
  H   H6        1.0  0.265710143989655  0.6385322806737754  0.5928943559553661  1.0000
  H   H7        1.0  0.356771549350633  0.55077157565829  0.7901608009132801  1.0000
  H   H8        1.0  0.5303418563057065  0.6546036634441101  0.5780552588422181  1.0000
  H   H9        1.0  0.45793100803946934  0.6123799728453689  0.48165057582465054  1.0000
  C   C15       1.0  0.8260641926209611  0.02573051444448038  0.5780015265970335  1.0000
  C   C16       1.0  0.8061390621639319  0.014932649628005112  0.7091802956869224  1.0000
  C   C17       1.0  0.7959882522596521  0.8923259047609913  0.7756157306390334  1.0000
  C   C18       1.0  0.8060154622864886  0.7796523979697162  0.7091129397237714  1.0000
  C   C19       1.0  0.8259405622699897  0.7884580482687924  0.577933237770945  1.0000
  C   C20       1.0  0.8358549595646214  0.911940288007787  0.513112740428745  1.0000
  C   C21       1.0  0.7749127844013521  0.8819564094287896  0.914396812469602  1.0000
  C   C22       1.0  0.7247095678946538  0.79193917846433  0.9588212530391285  1.0000
  C   C23       1.0  0.704935862808649  0.7824522880538349  0.0893029578488509  1.0000
  C   C24       1.0  0.7349201694037539  0.8623219632567595  0.17702916142131486  1.0000
  C   C25       1.0  0.7853064108540767  0.952945744363221  0.1344786769677313  1.0000
  C   C26       1.0  0.8048668663356678  0.962074855814451  0.0034675798430082727  1.0000
  O   O1        1.0  0.8171022863546514  0.03513889575637341  0.2187483527139621  1.0000
  C   C27       1.0  0.8023423322205208  0.03639910353606557  0.35389075108496415  1.0000
  H   H10       1.0  0.8336866287055524  0.3572959458621434  0.5280384589985296  1.0000
  H   H11       1.0  0.7975556368193902  0.1021156631482889  0.7594976185957252  1.0000
  H   H12       1.0  0.7991530439311815  0.6848805218339873  0.7603912476839021  1.0000
  H   H13       1.0  0.8512268853734869  0.9195019792094489  0.4119138690966728  1.0000
  H   H14       1.0  0.8334987024251054  0.46436250523651373  0.527931718061809  1.0000
  H   H15       1.0  0.7001062028225968  0.7301022659226615  0.8923013007500484  1.0000
  H   H16       1.0  0.6660768122590842  0.7131388902978035  0.12248556124538201  1.0000
  H   H17       1.0  0.7186082823480444  0.852871479147036  0.27748376630882177  1.0000
  H   H18       1.0  0.8442809269879035  0.03095320338402563  0.9718048358642797  1.0000
  H   H19       1.0  0.8142233744202456  0.9396857417273734  0.4046624392987941  1.0000
  H   H20       1.0  0.8348054781723572  0.11050854980845126  0.39651658533609946  1.0000
  H   H21       1.0  0.7474182383358634  0.062228920008420285  0.36762632249416316  1.0000
  C   C28       1.0  0.8260300387406244  0.40698253157059416  0.19661564860073333  1.0000
  C   C29       1.0  0.760622978980944  0.3500611240547675  0.19928236873067262  1.0000
  C   C30       1.0  0.7274534646916215  0.3213333136889933  0.08348634361079044  1.0000
  C   C31       1.0  0.7605666162070064  0.35028750150743293  0.9639777349175094  1.0000
  C   C32       1.0  0.8259747022541108  0.4072060684477796  0.9593191898040625  1.0000
  C   C33       1.0  0.8583401159797128  0.4352356357697742  0.07615651059477857  1.0000
  C   C34       1.0  0.658257334651688  0.26113027897133256  0.08737030576712046  1.0000
  C   C35       1.0  0.6072965098174249  0.3036403336852145  0.9957613522150979  1.0000
  C   C36       1.0  0.5421841983770325  0.24694688733325454  0.9996536403797589  1.0000
  C   C37       1.0  0.5270829665985313  0.14738905993843177  0.09503282328769314  1.0000
  C   C38       1.0  0.5774316075127505  0.10409027646353297  0.186228401836408  1.0000
  C   C39       1.0  0.6425865113382611  0.16060958378111367  0.18269907903991367  1.0000
  S   S1        1.0  0.4435631622678952  0.07450990233611376  0.09957731784300128  1.0000
  C   C40       1.0  0.40826256656929666  0.1893130241337333  0.20784684353479066  1.0000
  H   H22       1.0  0.8509631633064237  0.42862450449041156  0.5230566475840273  1.0000
  H   H23       1.0  0.7349142749538032  0.3295672871881963  0.2915062186922044  1.0000
  H   H24       1.0  0.7356215837423586  0.32670186449138683  0.8745900213099294  1.0000
  H   H25       1.0  0.90879903847577  0.4791472924455382  0.0733308795693366  1.0000
  H   H26       1.0  0.8508829274194127  0.4289533043070395  0.6300860286483032  1.0000
  H   H27       1.0  0.617514403825825  0.3818376147766862  0.9222063424634799  1.0000
  H   H28       1.0  0.5034136681198061  0.28092612589867016  0.9288257934302813  1.0000
  H   H29       1.0  0.5661620515173662  0.02660649274153637  0.2598948254748188  1.0000
  H   H30       1.0  0.6809872087193108  0.12458552659457944  0.2534215813909859  1.0000
  H   H31       1.0  0.4373564083271096  0.18279811834051118  0.30123190607160977  1.0000
  H   H32       1.0  0.35366818336824024  0.16509411897789672  0.22792628694425554  1.0000
  H   H33       1.0  0.4109056675557308  0.2899906524838285  0.16128039909821879  1.0000
  Zn  Zn1       1.0  0.7506147291942785  0.40835208128465617  0.5770094465775888  1.0000
  Zn  Zn2       1.0  0.9013834172605235  0.40583599656749536  0.5789246835203277  1.0000
  C   C41       1.0  0.8259844590958986  0.40199015824059803  0.815152309877103  1.0000
  C   C42       1.0  0.8260153334733915  0.41219953079231786  0.3407819684492488  1.0000
  C   C43       1.0  0.8259607481403938  0.6442848754184669  0.5727711996450329  1.0000
  C   C44       1.0  0.8260389932300092  0.16990325419130303  0.5831631474028989  1.0000
  O   O2        1.0  0.8832263305534069  0.4129898966122121  0.3898923253113551  1.0000
  O   O3        1.0  0.8832034078941463  0.3992891625069177  0.7674951997974102  1.0000
  O   O4        1.0  0.8831834896016051  0.5949452241304263  0.5717707284795721  1.0000
  O   O5        1.0  0.8832461974043673  0.2173338451089546  0.5856166986045346  1.0000
  O   O6        1.0  0.7687518976004812  0.5968542336032256  0.5703174308329748  1.0000
  O   O7        1.0  0.768771815641956  0.40119973226289063  0.766041832768825  1.0000
  O   O8        1.0  0.7687947384676059  0.4149004206538851  0.3884373969569621  1.0000
  O   O9        1.0  0.7688146053101937  0.21924435989040458  0.5841618676143936  1.0000
