data_image0
_chemical_formula_structural       NC10NC3NH7C13OH12C13F3H9Zn2C4O8
_chemical_formula_sum              "N3 C43 H28 O9 F3 Zn2"
_cell_length_a       19.210446455230148
_cell_length_b       10.299150109392551
_cell_length_c       10.2985328690268
_cell_angle_alpha    85.55822410433288
_cell_angle_beta     89.99621934770116
_cell_angle_gamma    89.92850971851941

_space_group_name_H-M_alt    "P 1"
_space_group_IT_number       1

loop_
  _space_group_symop_operation_xyz
  'x, y, z'

loop_
  _atom_site_type_symbol
  _atom_site_label
  _atom_site_symmetry_multiplicity
  _atom_site_fract_x
  _atom_site_fract_y
  _atom_site_fract_z
  _atom_site_occupancy
  N   N1        1.0  0.6551454775208968  0.4198546168194104  0.5667695362712106  1.0000
  C   C1        1.0  0.5949163813175955  0.4220623429956547  0.5670000037695218  1.0000
  C   C2        1.0  0.5201112637276925  0.4247995191124061  0.5672855235863707  1.0000
  C   C3        1.0  0.4844717336899195  0.5410419853977526  0.5823616726368439  1.0000
  C   C4        1.0  0.4118062113409527  0.5411935168683057  0.5823090237376132  1.0000
  C   C5        1.0  0.3749443337934582  0.4255085572229622  0.5673717889772958  1.0000
  C   C6        1.0  0.2976225427787296  0.42415194943982426  0.5672216146797675  1.0000
  C   C7        1.0  0.2598370544824697  0.5277105487234646  0.5038227058844613  1.0000
  C   C8        1.0  0.1870590521637521  0.5263081950656598  0.5037140666852016  1.0000
  C   C9        1.0  0.1510650570847366  0.4216047535199381  0.5669532546022129  1.0000
  C   C10       1.0  0.0761358623266636  0.42030254733848316  0.5668168273830245  1.0000
  N   N2        1.0  0.0158982715611408  0.41925552936723554  0.5667071747910843  1.0000
  C   C11       1.0  0.1881268536946319  0.31817184751070604  0.6303271135033526  1.0000
  C   C12       1.0  0.260906779248081  0.31929993021529657  0.6304860886580639  1.0000
  C   C13       1.0  0.4131932781795615  0.31108654918058276  0.5525832499430705  1.0000
  N   N3        1.0  0.4839626075038481  0.313531730464649  0.5527480523193069  1.0000
  H   H1        1.0  0.5125505283223856  0.6304849016880174  0.5943827025673132  1.0000
  H   H2        1.0  0.3845151423869127  0.6312187444096367  0.5957246905640108  1.0000
  H   H3        1.0  0.2865394038877024  0.608954209483854  0.45280286687418747  1.0000
  H   H4        1.0  0.1588880243729223  0.6067244870550743  0.4540249752025518  1.0000
  H   H5        1.0  0.1607847911070408  0.2367920673611965  0.6799170175933127  1.0000
  H   H6        1.0  0.2884330133010268  0.2390032527585435  0.6816129689868295  1.0000
  H   H7        1.0  0.3869503727042823  0.2201983316066396  0.5391216053376282  1.0000
  C   C14       1.0  0.8355908145641204  0.03815537513313738  0.5668824814057483  1.0000
  C   C15       1.0  0.8343157694720962  0.02639543531344901  0.7037031535477667  1.0000
  C   C16       1.0  0.8336087127105687  0.9032983156385935  0.772810435782145  1.0000
  C   C17       1.0  0.8341815417692661  0.7911402015673086  0.7033397559392041  1.0000
  C   C18       1.0  0.835459586574787  0.8009447568206376  0.5666054883898546  1.0000
  C   C19       1.0  0.836158668678834  0.9249130139208892  0.49917591526327443  1.0000
  C   C20       1.0  0.832253785597361  0.8918393654383608  0.917461065845951  1.0000
  C   C21       1.0  0.789454217880071  0.7990511394449046  0.9854947092198616  1.0000
  C   C22       1.0  0.7881561709046427  0.7883497263560258  0.12161081153157272  1.0000
  C   C23       1.0  0.8300907887984871  0.8692779395655629  0.1921538682338827  1.0000
  C   C24       1.0  0.8722244198924458  0.9630211038236945  0.12476295724361086  1.0000
  C   C25       1.0  0.8735386251505937  0.9738982870233605  0.988646563404898  1.0000
  C   C26       1.0  0.8272322954204936  0.8601352114695595  0.33825101524127155  1.0000
  O   O1        1.0  0.775207046070654  0.9434094016655897  0.3785035250161808  1.0000
  H   H8        1.0  0.8375452828864917  0.2676463995621081  0.3086271293313845  1.0000
  H   H9        1.0  0.8329046056643346  0.11318614887514933  0.7567157420679151  1.0000
  H   H10       1.0  0.8345814636548344  0.6960318793119561  0.7561769562889131  1.0000
  H   H11       1.0  0.8371424931747451  0.9331917726020439  0.39370868362951383  1.0000
  H   H12       1.0  0.8359043152968091  0.47724054243877384  0.5140127016542677  1.0000
  H   H13       1.0  0.756161807978478  0.7360832185920357  0.9333880674150743  1.0000
  H   H14       1.0  0.7542971957645471  0.7170904116123639  0.17199580617282884  1.0000
  H   H15       1.0  0.9042346668858936  0.027544332569279684  0.17761607947216917  1.0000
  H   H16       1.0  0.9074209653824934  0.04560322146876139  0.9390682653132023  1.0000
  H   H17       1.0  0.8784371221209717  0.8878905938212599  0.3784150244071317  1.0000
  H   H18       1.0  0.8159219994328346  0.7581432640736603  0.37606823958703717  1.0000
  H   H19       1.0  0.7754699258185117  0.9337587275516507  0.47513702728570606  1.0000
  C   C27       1.0  0.8355052145144254  0.4194281676926386  0.185346538838411  1.0000
  C   C28       1.0  0.905311958155912  0.3784176144611122  0.18756243572229203  1.0000
  C   C29       1.0  0.9406835376619113  0.3577559359400524  0.07151434878290219  1.0000
  C   C30       1.0  0.9053530087425908  0.37867318351210644  0.9522616592600901  1.0000
  C   C31       1.0  0.8355451824326247  0.4196720327721555  0.9481414175907821  1.0000
  C   C32       1.0  0.801067090783343  0.43978253283442337  0.06518124702219352  1.0000
  C   C33       1.0  0.014485886878469412  0.314410189330979  0.074791513121647  1.0000
  C   C34       1.0  0.0625412198472668  0.3689352126576326  0.9832217115297186  1.0000
  C   C35       1.0  0.13199910723273445  0.32824318279775855  0.9863274116249303  1.0000
  C   C36       1.0  0.15466586905402946  0.23080167641652816  0.0798303765150099  1.0000
  C   C37       1.0  0.10701315922864785  0.1780951750697537  0.17297677472117656  1.0000
  C   C38       1.0  0.037559797375289694  0.2188202550289049  0.16998198281818833  1.0000
  C   C39       1.0  0.2301438411584038  0.1903865720148834  0.0861154894690197  1.0000
  F   F1        1.0  0.2658287075268171  0.2696482211115159  0.16556519463824437  1.0000
  F   F2        1.0  0.2597867595623349  0.20151140897636255  0.9632490979555439  1.0000
  F   F3        1.0  0.23661239157055447  0.062244476416935424  0.13604699762145178  1.0000
  H   H20       1.0  0.703728966496972  0.497741232839102  0.3884209261763625  1.0000
  H   H21       1.0  0.9325741876789816  0.36421166880569755  0.27964187063088186  1.0000
  H   H22       1.0  0.9320894249596218  0.36124587452254775  0.8626326728598221  1.0000
  H   H23       1.0  0.7472654269175991  0.47138492790208497  0.06274028928394348  1.0000
  H   H24       1.0  0.7035062826861519  0.49640187198200403  0.7330871798049228  1.0000
  H   H25       1.0  0.046665716540055024  0.44473188650368844  0.9104676499057849  1.0000
  H   H26       1.0  0.1680800015667343  0.3734131719815832  0.9158194642414115  1.0000
  H   H27       1.0  0.1234446797837252  0.10518934456505291  0.24817256805773535  1.0000
  H   H28       1.0  0.0017294561739553682  0.17460395276873064  0.24150921739468623  1.0000
  Zn  Zn1       1.0  0.7592509413410573  0.419678271185973  0.5667590409812597  1.0000
  Zn  Zn2       1.0  0.911792794179104  0.41942129499892866  0.5667283104971201  1.0000
  C   C40       1.0  0.8355369666775959  0.41445182662449853  0.8039587236560821  1.0000
  C   C41       1.0  0.8355084343196078  0.4246493755468672  0.32952875436757334  1.0000
  C   C42       1.0  0.8354805367114763  0.6567597169972352  0.5614822695610613  1.0000
  C   C43       1.0  0.8355648125059362  0.18233992485539496  0.5720052782835758  1.0000
  O   O2        1.0  0.8933983540639322  0.42629847327645765  0.37790596301913126  1.0000
  O   O3        1.0  0.8934227838081078  0.4126067099938433  0.7555578177599513  1.0000
  O   O4        1.0  0.8933764355983508  0.6082733976176891  0.5597563651838569  1.0000
  O   O5        1.0  0.8934446502147866  0.23063179500014241  0.5737073182203882  1.0000
  O   O6        1.0  0.7775990332503263  0.6084677712738644  0.5597800332616458  1.0000
  O   O7        1.0  0.7776453811848261  0.41280264405785894  0.7555814160204142  1.0000
  O   O8        1.0  0.7776209514129081  0.4264943615816017  0.37792799977856895  1.0000
  O   O9        1.0  0.7776672475676165  0.2308276740468611  0.5737294523583185  1.0000
