data_image0
_chemical_formula_structural       NC12NC2H8C16H10C12OCH12Zn2C4O8
_chemical_formula_sum              "N2 C47 H30 O9 Zn2"
_cell_length_a       19.240039667572717
_cell_length_b       10.29914801576943
_cell_length_c       10.299794127170987
_cell_angle_alpha    85.55374609457252
_cell_angle_beta     89.99328814946611
_cell_angle_gamma    90.01219802926651

_space_group_name_H-M_alt    "P 1"
_space_group_IT_number       1

loop_
  _space_group_symop_operation_xyz
  'x, y, z'

loop_
  _atom_site_type_symbol
  _atom_site_label
  _atom_site_symmetry_multiplicity
  _atom_site_fract_x
  _atom_site_fract_y
  _atom_site_fract_z
  _atom_site_occupancy
  N   N1        1.0  0.6547289245633391  0.42098069080816125  0.5669758866231975  1.0000
  C   C1        1.0  0.594580555760767  0.4209807747728669  0.5669758046580844  1.0000
  C   C2        1.0  0.519762518641579  0.420980892028864  0.5669756673151221  1.0000
  C   C3        1.0  0.4832749751592491  0.35653995178916853  0.6704073779432749  1.0000
  C   C4        1.0  0.4106042089951693  0.35642908610810053  0.6704939583032268  1.0000
  C   C5        1.0  0.3734302837290686  0.4209809845362522  0.5669754396088245  1.0000
  C   C6        1.0  0.4106320368593059  0.48553307002252066  0.46345711537499157  1.0000
  C   C7        1.0  0.4833027072244254  0.4854219688574246  0.46354381831926306  1.0000
  C   C8        1.0  0.2962251932864539  0.4209809058409879  0.5669753442275598  1.0000
  C   C9        1.0  0.2590218488639592  0.3077226322837352  0.6088869640208716  1.0000
  C   C10       1.0  0.1863511783894754  0.30782951523204427  0.608795602403545  1.0000
  C   C11       1.0  0.1498929063447143  0.4209807766747571  0.5669754051838642  1.0000
  C   C12       1.0  0.07507486916121188  0.4209806629938413  0.5669756538760953  1.0000
  N   N2        1.0  0.0149265522913973  0.420980622226796  0.5669758623011694  1.0000
  C   C13       1.0  0.1863821451685247  0.5341321139362585  0.5251551550472133  1.0000
  C   C14       1.0  0.2590528593267787  0.5342391769739205  0.5250636307747687  1.0000
  H   H1        1.0  0.5109790914855563  0.3066485689453091  0.7511637595888057  1.0000
  H   H2        1.0  0.38350017366571826  0.30733617612714026  0.7523654929818009  1.0000
  H   H3        1.0  0.3835495414068992  0.53462600704357  0.3815855298401287  1.0000
  H   H4        1.0  0.5110283623324863  0.5353132515096155  0.3827877124942167  1.0000
  H   H5        1.0  0.2861030068903584  0.2185686968456837  0.6400868355700753  1.0000
  H   H6        1.0  0.1586242570251221  0.21957513241494575  0.6410280525541778  1.0000
  H   H7        1.0  0.1586792430813792  0.6223864722186165  0.4929227194556147  1.0000
  H   H8        1.0  0.2861581801294213  0.6233931915823878  0.4938637144261797  1.0000
  C   C15       1.0  0.8347815736303501  0.03957934133355989  0.5671413990040042  1.0000
  C   C16       1.0  0.8189205296493199  0.049139703553458425  0.43367378265567225  1.0000
  C   C17       1.0  0.8109297281781075  0.9368572021788087  0.36583827206952124  1.0000
  C   C18       1.0  0.8190133336185256  0.8138877719018464  0.43326921161840715  1.0000
  C   C19       1.0  0.8348805676012169  0.8023719919456755  0.5668215768211182  1.0000
  C   C20       1.0  0.8426682322077796  0.9157337179880389  0.6329353437397527  1.0000
  C   C21       1.0  0.7941508280512795  0.9480165180825344  0.22464563020867856  1.0000
  C   C22       1.0  0.8270391772402715  0.8670068677395767  0.13943199416780105  1.0000
  C   C23       1.0  0.811223173536497  0.8776348080436771  0.006546922233062968  1.0000
  C   C24       1.0  0.7623564464695838  0.9691721881201325  0.9570713171082597  1.0000
  C   C25       1.0  0.7293414446642182  0.050161784064417514  0.04100107347670279  1.0000
  C   C26       1.0  0.7451078928636269  0.03977511550295598  0.17390709099951307  1.0000
  C   C27       1.0  0.7460995052942203  0.9799899546983123  0.8202536872512329  1.0000
  C   C28       1.0  0.7324844922821573  0.9890497309209224  0.7056709015386753  1.0000
  C   C29       1.0  0.7165414728376961  0.9996586065743991  0.5714956278901546  1.0000
  C   C30       1.0  0.7029287448660124  0.008717010949903736  0.456931349058717  1.0000
  H   H9        1.0  0.8408466659791142  0.3633766203783171  0.6184928547290196  1.0000
  H   H10       1.0  0.8136805722148371  0.14418007380440367  0.38176617615295516  1.0000
  H   H11       1.0  0.8119793891069707  0.7269797015515715  0.38185616338321515  1.0000
  H   H12       1.0  0.8549002296328339  0.9076436747346834  0.7358831977644755  1.0000
  H   H13       1.0  0.8643987180389178  0.5733300488993711  0.819072894328323  1.0000
  H   H14       1.0  0.8656460645763319  0.7966125159442871  0.17527997300281828  1.0000
  H   H15       1.0  0.8372299418013914  0.8146933956914929  0.942375123102265  1.0000
  H   H16       1.0  0.6912874548101154  0.12112009299380544  0.0037832671709423504  1.0000
  H   H17       1.0  0.7182909628887257  0.10232648946665912  0.23727614118225526  1.0000
  H   H18       1.0  0.690975673803254  0.016671055183137717  0.356334252142005  1.0000
  C   C31       1.0  0.8348545022093934  0.42086218710024026  0.18563008946223136  1.0000
  C   C32       1.0  0.7667426139205985  0.37173545537346864  0.18845734738582687  1.0000
  C   C33       1.0  0.7322106821438688  0.3469451494158926  0.07274303046611119  1.0000
  C   C34       1.0  0.7666953920491949  0.37196194090887214  0.9531523607873797  1.0000
  C   C35       1.0  0.8348076695609121  0.42108918010568175  0.9483328408159917  1.0000
  C   C36       1.0  0.8685065296888156  0.44526133071908625  0.0650915098507363  1.0000
  C   C37       1.0  0.6601541515962964  0.29496475447143045  0.0767888090533051  1.0000
  C   C38       1.0  0.6104047718919837  0.34363587748943614  0.9856200894596054  1.0000
  C   C39       1.0  0.5426828147137496  0.294701806201902  0.989691885035382  1.0000
  C   C40       1.0  0.5237258878316607  0.1967597940498631  0.08441965840451737  1.0000
  C   C41       1.0  0.572789409937732  0.14668395802969703  0.17645154946683417  1.0000
  C   C42       1.0  0.6406059275326965  0.1962576283008628  0.17192810995245789  1.0000
  O   O1        1.0  0.5564171818972927  0.04810292468013677  0.2733145464640254  1.0000
  C   C43       1.0  0.4897884580485835  0.9888244697251499  0.28937662268862674  1.0000
  H   H19       1.0  0.8608172897321653  0.4395232630129924  0.5120103657505153  1.0000
  H   H20       1.0  0.7400388261663228  0.3543051839569513  0.2807416852291036  1.0000
  H   H21       1.0  0.740639014681021  0.3513657932054044  0.863829474197106  1.0000
  H   H22       1.0  0.9210522808896151  0.4831596988025848  0.06214200820308924  1.0000
  H   H23       1.0  0.8607473823321328  0.4398700607940036  0.6190389974517494  1.0000
  H   H24       1.0  0.6236326473472855  0.42070835834277664  0.9122690631992154  1.0000
  H   H25       1.0  0.5046877029050668  0.3331003806777748  0.9193379148605221  1.0000
  H   H26       1.0  0.47091996112680806  0.16072261295972612  0.08526323379496348  1.0000
  H   H27       1.0  0.6782944415486619  0.15610888939378564  0.24210904780873177  1.0000
  H   H28       1.0  0.4754569207698567  0.9403647187428728  0.20053641386041532  1.0000
  H   H29       1.0  0.4915647189991452  0.9143424798364965  0.3730797450015395  1.0000
  H   H30       1.0  0.4502127172439271  0.0630889586721608  0.3096225505138872  1.0000
  Zn  Zn1       1.0  0.7586741874900849  0.4209772057486256  0.5669833691399879  1.0000
  Zn  Zn2       1.0  0.9109813061096018  0.42097351605987665  0.5669789826393847  1.0000
  C   C44       1.0  0.8348142798865907  0.41587213857288297  0.8041678735098865  1.0000
  C   C45       1.0  0.8348428771069556  0.4260802219920927  0.3297946049950238  1.0000
  C   C46       1.0  0.8348586018912523  0.6581864146571226  0.5617070740959242  1.0000
  C   C47       1.0  0.8347985029237414  0.183764385494541  0.5722554743002417  1.0000
  O   O2        1.0  0.8926387326418614  0.4278243757285891  0.37817587108874795  1.0000
  O   O3        1.0  0.892616003132865  0.41412420453099275  0.7557829047456959  1.0000
  O   O4        1.0  0.8926510144608203  0.6097960473720088  0.5599940932247092  1.0000
  O   O5        1.0  0.8926036693489916  0.23215254215086745  0.5739645852371433  1.0000
  O   O6        1.0  0.7770517722757512  0.6097981796603056  0.5599977665368945  1.0000
  O   O7        1.0  0.7770167611514048  0.4141278972352729  0.7557865081612907  1.0000
  O   O8        1.0  0.7770394907966717  0.4278280227084217  0.37817791319440475  1.0000
  O   O9        1.0  0.7770044274937722  0.23215617987007686  0.573966724710057  1.0000
