data_image0
_chemical_formula_structural       NC10NC5H10C16H10C12BrH9Zn2C4O8
_chemical_formula_sum              "N2 C47 H29 Br1 Zn2 O8"
_cell_length_a       19.4436361288709
_cell_length_b       10.29914801576943
_cell_length_c       10.299148005577397
_cell_angle_alpha    85.52895802354352
_cell_angle_beta     89.67790826124899
_cell_angle_gamma    89.43179634642199

_space_group_name_H-M_alt    "P 1"
_space_group_IT_number       1

loop_
  _space_group_symop_operation_xyz
  'x, y, z'

loop_
  _atom_site_type_symbol
  _atom_site_label
  _atom_site_symmetry_multiplicity
  _atom_site_fract_x
  _atom_site_fract_y
  _atom_site_fract_z
  _atom_site_occupancy
  N   N1        1.0  0.6481778033148089  0.40962606556858994  0.5614627653162145  1.0000
  C   C1        1.0  0.589340429856044  0.41952414919366476  0.5758436464713235  1.0000
  C   C2        1.0  0.5160093424625984  0.43186836923817595  0.5938321083618432  1.0000
  C   C3        1.0  0.47383921995470707  0.399899171042988  0.4991657273656136  1.0000
  C   C4        1.0  0.3979348499207802  0.41033657409971647  0.504490006621364  1.0000
  C   C5        1.0  0.35817233181639296  0.3855525713522674  0.6115780014753105  1.0000
  C   C6        1.0  0.2820547131053456  0.3894736320992229  0.5986163777596907  1.0000
  C   C7        1.0  0.2414812762943053  0.44710952131526693  0.6923696012879046  1.0000
  C   C8        1.0  0.1698203178205643  0.45075092384515103  0.6818236975280776  1.0000
  C   C9        1.0  0.1377379372689687  0.3963603033926735  0.5778112677238547  1.0000
  C   C10       1.0  0.0639477710110613  0.4000630035267454  0.5671100494614716  1.0000
  N   N2        1.0  0.0046254822502576  0.4030397800932124  0.5585069794366713  1.0000
  C   C11       1.0  0.177586323005841  0.33801714619096135  0.48444157712986047  1.0000
  C   C12       1.0  0.24926375133996553  0.3343215958424324  0.49473571090536694  1.0000
  C   C13       1.0  0.38627534169362227  0.34504678904540653  0.7426956650719898  1.0000
  C   C14       1.0  0.44493534603649965  0.3881569295105971  0.7899238611682193  1.0000
  C   C15       1.0  0.4891689604540349  0.48604648309179277  0.715514028006125  1.0000
  H   H1        1.0  0.4959517119406711  0.3708086578210059  0.4088653651484402  1.0000
  H   H2        1.0  0.3732568393454535  0.4328627425330125  0.41131774085287764  1.0000
  H   H3        1.0  0.2653417963509695  0.49037794505131904  0.7732054026101445  1.0000
  H   H4        1.0  0.1394673225389652  0.4960457636401925  0.7547308063961846  1.0000
  H   H5        1.0  0.15325388138325544  0.2949442882839328  0.4039402004736292  1.0000
  H   H6        1.0  0.27895072028576984  0.28678297015415244  0.4225258517862023  1.0000
  H   H7        1.0  0.3552897484919328  0.2808042110032525  0.8069712441036292  1.0000
  H   H8        1.0  0.46006251845372687  0.35405576996458166  0.8878770066637744  1.0000
  H   H9        1.0  0.4590759908071388  0.5767758518530048  0.6902252090161007  1.0000
  H   H10       1.0  0.5324452873534609  0.5116143055061599  0.7785924444134922  1.0000
  C   C16       1.0  0.8263559144297378  0.024932373554372278  0.5601508331961746  1.0000
  C   C17       1.0  0.8106846965757012  0.03484023284839166  0.4268002727756961  1.0000
  C   C18       1.0  0.802789639604427  0.922733056666349  0.35902367669531765  1.0000
  C   C19       1.0  0.8107766092407374  0.7995867784981809  0.4263949005206944  1.0000
  C   C20       1.0  0.8264539369699829  0.7877233517867637  0.5598301673173631  1.0000
  C   C21       1.0  0.8341482905254837  0.9009142084636527  0.6258865176832276  1.0000
  C   C22       1.0  0.7862115508407946  0.9342599794292886  0.21795486448140355  1.0000
  C   C23       1.0  0.818773272296506  0.8526856608610516  0.13246299521423488  1.0000
  C   C24       1.0  0.8031465180088012  0.8636600238059593  0.9996946667764703  1.0000
  C   C25       1.0  0.7547976924175823  0.9561122407240339  0.9506151937536602  1.0000
  C   C26       1.0  0.7221108744974996  0.03766937363877321  0.03482409665481545  1.0000
  C   C27       1.0  0.7376885853214162  0.026937179541154155  0.16761377937409616  1.0000
  C   C28       1.0  0.7387353189404123  0.96728618604115  0.8139175397548581  1.0000
  C   C29       1.0  0.7252832541850923  0.9766442579012984  0.6994352325799413  1.0000
  C   C30       1.0  0.7095310452590632  0.9876024343030573  0.5653776180942183  1.0000
  C   C31       1.0  0.6960812383300706  0.9969590845641372  0.45091380086584776  1.0000
  H   H11       1.0  0.8323483610434597  0.3485966378613805  0.6114575588898237  1.0000
  H   H12       1.0  0.8055088974095868  0.12999876970930235  0.37493057091515336  1.0000
  H   H13       1.0  0.8038254084700367  0.7128294649180815  0.375034526398488  1.0000
  H   H14       1.0  0.8462338911924651  0.8925561686009919  0.7287441002317145  1.0000
  H   H15       1.0  0.8556180974004389  0.5580330372459362  0.8118640171283842  1.0000
  H   H16       1.0  0.8569715940007756  0.7815699425480628  0.16799769418373245  1.0000
  H   H17       1.0  0.8288944080215824  0.8002707117065997  0.9353031672482213  1.0000
  H   H18       1.0  0.6844599476145695  0.10933952923809542  0.9979148988936624  1.0000
  H   H19       1.0  0.7111391166499634  0.08995161279710917  0.23120909914811705  1.0000
  H   H20       1.0  0.6842712251397556  0.005175012883628538  0.3504049172814927  1.0000
  C   C32       1.0  0.8264986837076886  0.4063781816648193  0.17860149294105487  1.0000
  C   C33       1.0  0.7618120429304539  0.46835847498318994  0.17367536174023424  1.0000
  C   C34       1.0  0.7289176824521011  0.49973232827999636  0.05404026749601454  1.0000
  C   C35       1.0  0.7615824836026276  0.468289905409605  0.9384002609138271  1.0000
  C   C36       1.0  0.8263111629048334  0.40627756582532104  0.9413794449695567  1.0000
  C   C37       1.0  0.8583705550891559  0.3757015821114045  0.06190696154279873  1.0000
  C   C38       1.0  0.6604875152760752  0.5653019214603701  0.04987392654960665  1.0000
  C   C39       1.0  0.6460533025867308  0.6668951046176372  0.13002913621356837  1.0000
  C   C40       1.0  0.5816157432765398  0.7284999065353077  0.12591325695695788  1.0000
  C   C41       1.0  0.5308800066076204  0.6894902359825907  0.041986073067672214  1.0000
  C   C42       1.0  0.5446235207858713  0.5886967484454264  0.9619837954491337  1.0000
  C   C43       1.0  0.6090025771091798  0.5268710430012604  0.9657077144559549  1.0000
  Br  Br1       1.0  0.4428988035402169  0.7737936788690436  0.03663071938258988  1.0000
  H   H21       1.0  0.8513940047495425  0.3825903199504752  0.507967644912398  1.0000
  H   H22       1.0  0.7364351392082753  0.49077550290584226  0.26321609842082694  1.0000
  H   H23       1.0  0.7368850012865289  0.49384337090943364  0.8457780574121974  1.0000
  H   H24       1.0  0.9082659717226856  0.32789855532220336  0.06499055774376439  1.0000
  H   H25       1.0  0.9486752913721788  0.28996427820883675  0.7396517000728084  1.0000
  H   H26       1.0  0.6848659361326022  0.6997979423813765  0.19460077471734682  1.0000
  H   H27       1.0  0.5712394084221455  0.8067646800582813  0.1877710610354275  1.0000
  H   H28       1.0  0.5054042965952478  0.5579535946895731  0.8971076248938568  1.0000
  H   H29       1.0  0.6182279381847114  0.4479381861347229  0.9040608376111079  1.0000
  Zn  Zn1       1.0  0.7510409027359501  0.40772193320409733  0.5606173033541757  1.0000
  Zn  Zn2       1.0  0.9017623703550995  0.4049333024873125  0.5593631276009567  1.0000
  C   C44       1.0  0.8263444176392787  0.40112249854903226  0.7972002953628108  1.0000
  C   C45       1.0  0.8264605015047785  0.4115343454290421  0.3227802486809568  1.0000
  C   C46       1.0  0.8264331463984033  0.6435403786760616  0.5547153430230694  1.0000
  C   C47       1.0  0.8263717210973923  0.1691149058126893  0.5652652713469744  1.0000
  O   O1        1.0  0.88364569795043  0.4122008640560322  0.37069200541650504  1.0000
  O   O2        1.0  0.8835533276251816  0.3983384939782333  0.7483362747964333  1.0000
  O   O3        1.0  0.8836242058317764  0.5940940120611848  0.5525279660092288  1.0000
  O   O4        1.0  0.8835747683379405  0.21644535622848937  0.5665002172479738  1.0000
  O   O5        1.0  0.7692284533192711  0.5962098804159583  0.553480214128315  1.0000
  O   O6        1.0  0.7691575753271002  0.40045592277536834  0.7492884530104005  1.0000
  O   O7        1.0  0.7692499460761262  0.41431824779859716  0.37164262216622657  1.0000
  O   O8        1.0  0.7691790164356932  0.21856273066868392  0.5674509313745881  1.0000
