data_image0
_chemical_formula_structural       NC10NC3NCH9C16H10C13NH13Zn2C4O8
_chemical_formula_sum              "N4 C47 H32 Zn2 O8"
_cell_length_a       19.437513618241372
_cell_length_b       10.29914801576943
_cell_length_c       10.299780419254978
_cell_angle_alpha    85.54946318164076
_cell_angle_beta     90.33405371402336
_cell_angle_gamma    89.53623586623313

_space_group_name_H-M_alt    "P 1"
_space_group_IT_number       1

loop_
  _space_group_symop_operation_xyz
  'x, y, z'

loop_
  _atom_site_type_symbol
  _atom_site_label
  _atom_site_symmetry_multiplicity
  _atom_site_fract_x
  _atom_site_fract_y
  _atom_site_fract_z
  _atom_site_occupancy
  N   N1        1.0  0.6482009072719408  0.4102850966562843  0.575222299546059  1.0000
  C   C1        1.0  0.5892700201143944  0.4272959355360819  0.5722408242582104  1.0000
  C   C2        1.0  0.5158326053450293  0.4485494250366362  0.5685399862906142  1.0000
  C   C3        1.0  0.4740580428156879  0.34735008009280577  0.5569143659745397  1.0000
  C   C4        1.0  0.3981699777591772  0.35741446727806925  0.5496900028664811  1.0000
  C   C5        1.0  0.3586008258356141  0.43827925158304337  0.615403371194589  1.0000
  C   C6        1.0  0.28241816788593926  0.4296690415805786  0.6069624290132816  1.0000
  C   C7        1.0  0.2492662337586086  0.30831605229848114  0.6116454380898844  1.0000
  C   C8        1.0  0.1775312979923597  0.3019427159541166  0.6044797555943955  1.0000
  C   C9        1.0  0.13797758014887673  0.416449703978615  0.5929934364420408  1.0000
  C   C10       1.0  0.0641281404955042  0.40973813683833815  0.5856597802141719  1.0000
  N   N2        1.0  0.0047582890839289  0.40434262703669877  0.5797639788007374  1.0000
  C   C11       1.0  0.170412819630867  0.5374922111782372  0.5890557757369776  1.0000
  C   C12       1.0  0.2421321884518439  0.5441195669253034  0.5962833938558472  1.0000
  C   C13       1.0  0.3872898357492752  0.5305843111998922  0.7052894570230515  1.0000
  N   N3        1.0  0.4442848846980158  0.5937985314852452  0.6848653339018038  1.0000
  C   C14       1.0  0.4881327194238637  0.5845203212091696  0.5717653245562566  1.0000
  H   H1        1.0  0.496430226171431  0.25228509480686845  0.5448248315637678  1.0000
  H   H2        1.0  0.3734507905126538  0.28788871825911944  0.4913970014939888  1.0000
  H   H3        1.0  0.2787037270567796  0.21839919245254213  0.6226953434570839  1.0000
  H   H4        1.0  0.1529248398823201  0.2077100993080565  0.6083976854618613  1.0000
  H   H5        1.0  0.1402897862359963  0.6267544470271857  0.5803181407331044  1.0000
  H   H6        1.0  0.2662571811781245  0.6387650112574361  0.5923498693853706  1.0000
  H   H7        1.0  0.3572831501140991  0.5509834942620055  0.7896460533214793  1.0000
  H   H8        1.0  0.5308943112920514  0.6548387477919937  0.577505426826469  1.0000
  H   H9        1.0  0.45847604498153266  0.6126181437135743  0.48111414797006047  1.0000
  C   C15       1.0  0.8264338834766487  0.025913258161860853  0.5776581180561773  1.0000
  C   C16       1.0  0.8107414115305451  0.03574516634374669  0.4439896565455026  1.0000
  C   C17       1.0  0.8028355735909674  0.9235995139287043  0.3760529562793484  1.0000
  C   C18       1.0  0.8108333026828699  0.8004917335567839  0.44358625310366673  1.0000
  C   C19       1.0  0.8265318968177523  0.788704299247779  0.5773395420597938  1.0000
  C   C20       1.0  0.8342367576103153  0.9019326550125458  0.643551926298767  1.0000
  C   C21       1.0  0.7862350006134361  0.9350460898813474  0.23464784662193394  1.0000
  C   C22       1.0  0.8187962547241321  0.853500157042905  0.14984836007484947  1.0000
  C   C23       1.0  0.8031483317440029  0.8643988571487584  0.016763014611981264  1.0000
  C   C24       1.0  0.7547785333484057  0.9567460918062278  0.9666709275613679  1.0000
  C   C25       1.0  0.7220919862172358  0.038274154713426434  0.05018492926838647  1.0000
  C   C26       1.0  0.7376908532160681  0.027617542358714386  0.18329059560174366  1.0000
  C   C27       1.0  0.7386943729790699  0.9678421836054538  0.8296474392578896  1.0000
  C   C28       1.0  0.7252240619984801  0.9771350541634851  0.7148922493184555  1.0000
  C   C29       1.0  0.7094504869354085  0.9880168805445779  0.5805150923551681  1.0000
  C   C30       1.0  0.6959824367543896  0.9973083401882661  0.46577843822725296  1.0000
  H   H10       1.0  0.8324344961708108  0.34960667766307396  0.6290863768161856  1.0000
  H   H11       1.0  0.8055576291906837  0.13087582434951495  0.3920156476834955  1.0000
  H   H12       1.0  0.8038736331369041  0.7137035112580727  0.39208418506947096  1.0000
  H   H13       1.0  0.8463387515901127  0.8936331948641031  0.7466546717246445  1.0000
  H   H14       1.0  0.8557360872963967  0.5591567106912867  0.8299646665150446  1.0000
  H   H15       1.0  0.8570107472112051  0.7824662237919996  0.1861833663766912  1.0000
  H   H16       1.0  0.8288962473857806  0.8010331368375672  0.9529187285358143  1.0000
  H   H17       1.0  0.6844248884133554  0.1098630248264485  0.012487058307193655  1.0000
  H   H18       1.0  0.7111410133616142  0.0906066495694271  0.24632191218463295  1.0000
  H   H19       1.0  0.6841564044663349  0.005467025741594966  0.36502998192023295  1.0000
  C   C31       1.0  0.8265297312389948  0.4072231230513004  0.19614529442040474  1.0000
  C   C32       1.0  0.8763545496506401  0.5054302903450394  0.18807684979907613  1.0000
  C   C33       1.0  0.9015481434488823  0.5552888168123764  0.0668438693839355  1.0000
  C   C34       1.0  0.8762600799547462  0.5056041120943855  0.9527753983818097  1.0000
  C   C35       1.0  0.8264360785562878  0.4073944116244461  0.958852301114073  1.0000
  C   C36       1.0  0.8018480129021965  0.3587573214312654  0.08099490034786139  1.0000
  C   C37       1.0  0.954260842573369  0.6591809530538204  0.05939975492300209  1.0000
  C   C38       1.0  0.9496234113343796  0.763844784008116  0.9634705329248279  1.0000
  C   C39       1.0  0.9992600964980313  0.8615425013570717  0.956549958313043  1.0000
  C   C40       1.0  0.054102252008907836  0.8569250710363006  0.04592454519506051  1.0000
  C   C41       1.0  0.05939918801723043  0.7519713874433342  0.14080551216808135  1.0000
  C   C42       1.0  0.00977672504896665  0.654248731984042  0.14789904896599948  1.0000
  C   C43       1.0  0.10844465659768887  0.9602459955225333  0.03611759888570787  1.0000
  N   N4        1.0  0.1611821668200515  0.9267123532027819  0.9439251657751173  1.0000
  H   H20       1.0  0.807572097129292  0.36975426130271116  0.5266769440529013  1.0000
  H   H21       1.0  0.8950092457549802  0.5446285971999771  0.276167780619883  1.0000
  H   H22       1.0  0.8962094670018946  0.5424297722232141  0.859206428576373  1.0000
  H   H23       1.0  0.763410663330969  0.2829939132958874  0.08645077726564376  1.0000
  H   H24       1.0  0.8074377984979476  0.3699952279833003  0.6337123942362988  1.0000
  H   H25       1.0  0.9071932432258648  0.7708988938274224  0.894625705348131  1.0000
  H   H26       1.0  0.9948390987259201  0.94102301412914  0.8816210874933406  1.0000
  H   H27       1.0  0.10208491402373543  0.7455653329750382  0.20912679704993908  1.0000
  H   H28       1.0  0.015396698613856064  0.5737309924061005  0.22137773093893842  1.0000
  H   H29       1.0  0.08468435507777183  0.05567655148238071  0.002494564170560487  1.0000
  H   H30       1.0  0.1321723327430686  0.9711618390937771  0.1332717755337569  1.0000
  H   H31       1.0  0.19591035767913456  0.003831611784403055  0.9343954291410417  1.0000
  H   H32       1.0  0.18877360058747206  0.845942331142558  0.9850827617780769  1.0000
  Zn  Zn1       1.0  0.7510956697375415  0.40856674047007124  0.5765404401820537  1.0000
  Zn  Zn2       1.0  0.9018635301465072  0.40605031518645496  0.5784565120634126  1.0000
  C   C44       1.0  0.8264515619879805  0.4021879817941221  0.8146865169499895  1.0000
  C   C45       1.0  0.826509284471345  0.41243068516712533  0.34031058299575223  1.0000
  C   C46       1.0  0.8265104702323524  0.644519462690784  0.5722247297409819  1.0000
  C   C47       1.0  0.8264503245714176  0.17009764471281397  0.5827724394385356  1.0000
  O   O1        1.0  0.883718038913111  0.4132177540932529  0.3894209124677639  1.0000
  O   O2        1.0  0.8836721249858038  0.3994900244161832  0.7670300682793432  1.0000
  O   O3        1.0  0.8837189226783962  0.5951757731168739  0.5712404492843068  1.0000
  O   O4        1.0  0.8836711897868138  0.21753201552036794  0.5852104334343562  1.0000
  O   O5        1.0  0.7692879586475645  0.5970850409963033  0.5697865181504174  1.0000
  O   O6        1.0  0.7692411611608575  0.401400852713407  0.7655760672509844  1.0000
  O   O7        1.0  0.7692870753198693  0.4151285367792794  0.3879653501212261  1.0000
  O   O8        1.0  0.7692402261776067  0.21944278893873337  0.5837549684555696  1.0000
