data_image0
_chemical_formula_structural       NC12NC2H8C16H10C12ClH9Zn2C4O8
_chemical_formula_sum              "N2 C46 H27 Cl1 Zn2 O8"
_cell_length_a       19.240039667572717
_cell_length_b       10.29914801576943
_cell_length_c       10.299771906710086
_cell_angle_alpha    85.52082016499398
_cell_angle_beta     90.0091503227729
_cell_angle_gamma    90.01219802926651

_space_group_name_H-M_alt    "P 1"
_space_group_IT_number       1

loop_
  _space_group_symop_operation_xyz
  'x, y, z'

loop_
  _atom_site_type_symbol
  _atom_site_label
  _atom_site_symmetry_multiplicity
  _atom_site_fract_x
  _atom_site_fract_y
  _atom_site_fract_z
  _atom_site_occupancy
  N   N1        1.0  0.6545166319691951  0.4218066912499756  0.5669085191031926  1.0000
  C   C1        1.0  0.5943682631544802  0.4218067752619261  0.5669084371342257  1.0000
  C   C2        1.0  0.5195502260149457  0.42180689259708837  0.5669082997848072  1.0000
  C   C3        1.0  0.4830780052239517  0.35730633393375344  0.6703448728139272  1.0000
  C   C4        1.0  0.4104072518861525  0.35719541834744306  0.6704314572440857  1.0000
  C   C5        1.0  0.3732179910687023  0.4218069852357271  0.566908072067805  1.0000
  C   C6        1.0  0.41040440867639816  0.48641873907003985  0.46338488136123557  1.0000
  C   C7        1.0  0.4830750918859582  0.4863075879290435  0.4634715883814762  1.0000
  C   C8        1.0  0.2960129006119575  0.42180690659544084  0.5669079766820564  1.0000
  C   C9        1.0  0.2588157651055639  0.3085244750242764  0.6088215667715122  1.0000
  C   C10       1.0  0.1861450810964894  0.30863141063376265  0.6087302008592088  1.0000
  C   C11       1.0  0.14968061367924806  0.4218067773940746  0.5669080376412265  1.0000
  C   C12       1.0  0.0748625765325878  0.4218066635698119  0.5669082863451487  1.0000
  N   N2        1.0  0.0147142596936499  0.42180662268262936  0.5669084947800211  1.0000
  C   C13       1.0  0.1861636571227392  0.5349822200036767  0.5250858215037864  1.0000
  C   C14       1.0  0.2588343577223063  0.5350893357962709  0.5249942929287179  1.0000
  H   H1        1.0  0.5107940850487048  0.3073684028104229  0.7511050508764936  1.0000
  H   H2        1.0  0.3833153452573431  0.30805531730864555  0.7523068407638609  1.0000
  H   H3        1.0  0.3833097845158158  0.5355588671782401  0.38150944698277955  1.0000
  H   H4        1.0  0.5107887835364343  0.5362454187017223  0.38271168615236095  1.0000
  H   H5        1.0  0.2859015451767747  0.21935255586393887  0.640022905049678  1.0000
  H   H6        1.0  0.1584229347463136  0.22035844891222234  0.640964166281085  1.0000
  H   H7        1.0  0.1584559800235729  0.6232551571820848  0.4928518706416287  1.0000
  H   H8        1.0  0.2859350564735005  0.6242613341528465  0.493792909849061  1.0000
  C   C15       1.0  0.8345693055557186  0.04040524637342058  0.5670740392648583  1.0000
  C   C16       1.0  0.8186884892720144  0.05004253982500062  0.43360014850548856  1.0000
  C   C17       1.0  0.8106876384398854  0.9377991390915699  0.36576144892197626  1.0000
  C   C18       1.0  0.8187812333068237  0.8147908413696432  0.43319555844904123  1.0000
  C   C19       1.0  0.8346682521471446  0.8031980813322351  0.5667542020468959  1.0000
  C   C20       1.0  0.8424657110502284  0.9165216991528491  0.6328710770224526  1.0000
  C   C21       1.0  0.793887821601374  0.9490398389604844  0.2245621694909512  1.0000
  C   C22       1.0  0.8267635469805623  0.8680793060750497  0.13934452749422332  1.0000
  C   C23       1.0  0.8109278572740325  0.8787838418300601  0.0064532085342901  1.0000
  C   C24       1.0  0.7620538007389962  0.9703497398297736  0.9569752775248159  1.0000
  C   C25       1.0  0.7290512325455559  0.05129095834956532  0.040908979492979336  1.0000
  C   C26       1.0  0.7448373698506634  0.04082768226407918  0.17382124502565266  1.0000
  C   C27       1.0  0.745776590979667  0.9812463685999115  0.8201512157701458  1.0000
  C   C28       1.0  0.732144603321751  0.9903721907674147  0.7055630434363622  1.0000
  C   C29       1.0  0.7161817067400896  0.001058405548879593  0.5713814621093114  1.0000
  C   C30       1.0  0.7025520068642193  0.010182845201842428  0.4568117975266688  1.0000
  H   H9        1.0  0.8406420052668759  0.36417292624763986  0.6184279090596636  1.0000
  H   H10       1.0  0.8134408420852535  0.14511282981386597  0.38169010178792284  1.0000
  H   H11       1.0  0.8117396723083717  0.7279124056920586  0.3817800932485489  1.0000
  H   H12       1.0  0.8547129594866146  0.9083723163726045  0.7358237707016868  1.0000
  H   H13       1.0  0.8642237718698911  0.5740107396860298  0.8190173780744976  1.0000
  H   H14       1.0  0.8653757449463255  0.7976642913711047  0.17519419156915284  1.0000
  H   H15       1.0  0.8369251189314797  0.8158794183421517  0.9422783926399063  1.0000
  H   H16       1.0  0.6909917291313007  0.12227071976127024  0.003689423550707671  1.0000
  H   H17       1.0  0.7180298275615147  0.10334253007099292  0.23719327423416003  1.0000
  H   H18       1.0  0.6905840330385077  0.01819487397680364  0.35620997146626987  1.0000
  C   C31       1.0  0.8345857158774332  0.4219079966813415  0.1855447945951716  1.0000
  C   C32       1.0  0.897635562362684  0.49079693406422753  0.17918820543775116  1.0000
  C   C33       1.0  0.9296173109073944  0.525595349584403  0.058836978479344326  1.0000
  C   C34       1.0  0.8977025794579221  0.4905817531298591  0.9439185193849662  1.0000
  C   C35       1.0  0.8346518396861172  0.4216953758600719  0.9482834515083391  1.0000
  C   C36       1.0  0.8034468090066559  0.3877434308818912  0.06956445106376163  1.0000
  C   C37       1.0  0.9963192525289704  0.5984727050862095  0.05316598523751126  1.0000
  C   C38       1.0  0.007317273862981644  0.7014868049657668  0.13292488826935922  1.0000
  C   C39       1.0  0.07013000822907411  0.7699800892175372  0.12739988897671628  1.0000
  C   C40       1.0  0.12265749982478669  0.7365063568126726  0.04242585015688949  1.0000
  C   C41       1.0  0.11232310664117029  0.634351798536493  0.9627953817555439  1.0000
  C   C42       1.0  0.049572643416262885  0.5656581749939975  0.9679448338155154  1.0000
  Cl  Cl1       1.0  0.20142391387163316  0.8225640812620272  0.03573014549543552  1.0000
  H   H19       1.0  0.8105422379118625  0.39571517241677956  0.5154158876316843  1.0000
  H   H20       1.0  0.9225055351351605  0.5159986386552258  0.2681584385503508  1.0000
  H   H21       1.0  0.9216574109923213  0.518725292366448  0.850797147787755  1.0000
  H   H22       1.0  0.75480633246491  0.33459990676057294  0.07370006403383944  1.0000
  H   H23       1.0  0.8106398471241427  0.3954005733548087  0.6224968347663244  1.0000
  H   H24       1.0  0.9670290338846784  0.7301424381384936  0.19828681609537369  1.0000
  H   H25       1.0  0.07782534838798139  0.849260950325009  0.1890002604037644  1.0000
  H   H26       1.0  0.1529288014340453  0.6078434993780062  0.8970889783371168  1.0000
  H   H27       1.0  0.04303083143538711  0.48583698874118664  0.9065642238140428  1.0000
  Zn  Zn1       1.0  0.7584618960044237  0.4218032018774891  0.5669160019717416  1.0000
  Zn  Zn2       1.0  0.9107690139741114  0.4217995147171354  0.5669116152649256  1.0000
  C   C43       1.0  0.8346371256419948  0.41656142066911306  0.8041116565600444  1.0000
  C   C44       1.0  0.8345954477491736  0.4270429346089406  0.32971608740811753  1.0000
  C   C45       1.0  0.8346455287590355  0.6590154520621216  0.5616394588851579  1.0000
  C   C46       1.0  0.8345869924639338  0.18458734276233368  0.5721883549775455  1.0000
  O   O1        1.0  0.892398470633457  0.4287592012032764  0.3780996279408282  1.0000
  O   O2        1.0  0.8924316809903662  0.414841375903616  0.7557244131828027  1.0000
  O   O3        1.0  0.8924376875623554  0.6106260721455685  0.5599263974854498  1.0000
  O   O4        1.0  0.8923924120821283  0.232974514280744  0.5738975462610123  1.0000
  O   O5        1.0  0.7768384459214618  0.6106282023165548  0.5599300709703197  1.0000
  O   O6        1.0  0.7768324395427271  0.41484506653087383  0.7557280167677964  1.0000
  O   O7        1.0  0.7767992290907907  0.4287628470060314  0.3781016701424855  1.0000
  O   O8        1.0  0.776793170543857  0.232978150766753  0.5738996858345042  1.0000
