data_image0
_chemical_formula_structural       NC11NC3H8C16H10C13NH9Zn2C4O8
_chemical_formula_sum              "N3 C47 H27 Zn2 O8"
_cell_length_a       17.807433833752565
_cell_length_b       10.29914801576943
_cell_length_c       10.298528502251457
_cell_angle_alpha    85.51780360307934
_cell_angle_beta     88.52196449538943
_cell_angle_gamma    90.69784511463686

_space_group_name_H-M_alt    "P 1"
_space_group_IT_number       1

loop_
  _space_group_symop_operation_xyz
  'x, y, z'

loop_
  _atom_site_type_symbol
  _atom_site_label
  _atom_site_symmetry_multiplicity
  _atom_site_fract_x
  _atom_site_fract_y
  _atom_site_fract_z
  _atom_site_occupancy
  N   N1        1.0  0.7076540360568139  0.4390907700162028  0.5338849706479418  1.0000
  C   C1        1.0  0.6568279098720509  0.40433877813536667  0.6004696561024783  1.0000
  C   C2        1.0  0.5935950839018546  0.36111016579685495  0.6832925083169443  1.0000
  C   C3        1.0  0.6053100084148937  0.29751341038512935  0.8060519118894409  1.0000
  C   C4        1.0  0.5439848724217922  0.25596548202903646  0.8865898674174622  1.0000
  C   C5        1.0  0.47079040321756493  0.2777007990992235  0.8450094213776889  1.0000
  C   C6        1.0  0.45809871935838953  0.34145227327121264  0.7217897015838444  1.0000
  C   C7        1.0  0.3803362920203496  0.3645187547734603  0.6774277216151638  1.0000
  C   C8        1.0  0.3615538027460453  0.3476884322289244  0.5478387069373949  1.0000
  C   C9        1.0  0.288329386754564  0.36938503273197165  0.5062142000295309  1.0000
  C   C10       1.0  0.23294445290773802  0.40823078509789634  0.5933582036105178  1.0000
  C   C11       1.0  0.1575834444027602  0.43058636266770756  0.5503719670645346  1.0000
  N   N2        1.0  0.09699856669027891  0.44855858621943856  0.515814161425264  1.0000
  C   C12       1.0  0.2510354224728498  0.4252718803901048  0.7224159334656028  1.0000
  C   C13       1.0  0.3242070650132988  0.40354026144107547  0.7642959148485193  1.0000
  C   C14       1.0  0.5202811661566954  0.382995630812514  0.6412681657424282  1.0000
  H   H1        1.0  0.661772459771494  0.2800862813190541  0.8394286477991759  1.0000
  H   H2        1.0  0.5531734868126265  0.20647728249117692  0.9813577996006579  1.0000
  H   H3        1.0  0.42414458785990733  0.24312059411323617  0.9084703764354689  1.0000
  H   H4        1.0  0.40322954256302507  0.31606690613502875  0.47912696065843763  1.0000
  H   H5        1.0  0.274888625282033  0.3555365966439221  0.4061733519324242  1.0000
  H   H6        1.0  0.2086427410462573  0.4556704485556109  0.7906133533520492  1.0000
  H   H7        1.0  0.3371196161160858  0.41893429854584396  0.8641533496253595  1.0000
  H   H8        1.0  0.5117912144292355  0.43384621971088144  0.5467340163032626  1.0000
  C   C15       1.0  0.9022763897844679  0.06242203217824849  0.5250174288121778  1.0000
  C   C16       1.0  0.8851267652328192  0.07164934594641226  0.3923228454251626  1.0000
  C   C17       1.0  0.87648675345904  0.9591994281232695  0.32487668809859493  1.0000
  C   C18       1.0  0.8852270632983159  0.8364001078681598  0.39191354968094605  1.0000
  C   C19       1.0  0.9023833819915421  0.8252174858186475  0.5246925857904201  1.0000
  C   C20       1.0  0.91080375321072  0.9387423706467019  0.5904268977938913  1.0000
  C   C21       1.0  0.8583447043740553  0.9700064234402461  0.18450181327588266  1.0000
  C   C22       1.0  0.8938910807999096  0.8899147915538737  0.09762370375505003  1.0000
  C   C23       1.0  0.8767901634877774  0.9002105012669571  0.9655095042361119  1.0000
  C   C24       1.0  0.8239672872044786  0.9904944978780816  0.9184770843034804  1.0000
  C   C25       1.0  0.7882839603031603  0.0705635529812616  0.004077449825729884  1.0000
  C   C26       1.0  0.8053313129274845  0.06050779927487615  0.13621508465127463  1.0000
  C   C27       1.0  0.806389601323664  0.0009709146954386405  0.7824517794140493  1.0000
  C   C28       1.0  0.7916684788755327  0.00974481385545678  0.6685325574077643  1.0000
  C   C29       1.0  0.7744302183374482  0.02001893096094709  0.5351343089912  1.0000
  C   C30       1.0  0.7597115665429407  0.02879150670809616  0.4212334823754267  1.0000
  H   H9        1.0  0.9088342335388243  0.38634646751591806  0.5760733386182728  1.0000
  H   H10       1.0  0.879460804236142  0.1665845981681453  0.34066929395543477  1.0000
  H   H11       1.0  0.8776219663737489  0.7493394534755197  0.34084464334560827  1.0000
  H   H12       1.0  0.9240295014360397  0.9309091622395719  0.6927785937886257  1.0000
  H   H13       1.0  0.9342997897262121  0.596792935153446  0.7755059093759165  1.0000
  H   H14       1.0  0.9356233776660621  0.8205127041919604  0.13154090656194883  1.0000
  H   H15       1.0  0.9048989147169281  0.8379930025575787  0.9000220534836427  1.0000
  H   H16       1.0  0.7471492483456879  0.1405449911906227  0.9687624481748078  1.0000
  H   H17       1.0  0.7763468116423765  0.122314468744676  0.20094029501292443  1.0000
  H   H18       1.0  0.7467874053136943  0.036494570669358906  0.3212189498414899  1.0000
  C   C31       1.0  0.9023405867652535  0.4439465103984035  0.1434375689670344  1.0000
  C   C32       1.0  0.8242409703516757  0.4619109611744001  0.1445640231612173  1.0000
  C   C33       1.0  0.7846749954873387  0.47087363749425903  0.0279880159656396  1.0000
  C   C34       1.0  0.8242185069224487  0.4616455331809197  0.9093054732384265  1.0000
  C   C35       1.0  0.9023191942209188  0.44369298909290666  0.9062723874157008  1.0000
  C   C36       1.0  0.9408801305816538  0.4349556748358485  0.023828428045398642  1.0000
  C   C37       1.0  0.7021079916365822  0.48985995171881513  0.030186578792698704  1.0000
  C   C38       1.0  0.6689505661334083  0.576992118672214  0.112604701219577  1.0000
  C   C39       1.0  0.591230323512833  0.594816892332227  0.11455474603153704  1.0000
  C   C40       1.0  0.5456333680657313  0.5258438244058996  0.03435047004792158  1.0000
  C   C41       1.0  0.5780493466209206  0.43892998175169295  0.9520706689427225  1.0000
  C   C42       1.0  0.655761556673822  0.4210106401748088  0.9498844262957111  1.0000
  C   C43       1.0  0.4656203041991787  0.5442451466311773  0.03647868590991443  1.0000
  N   N3        1.0  0.40129519626676124  0.5590386918678587  0.0381896629284435  1.0000
  H   H19       1.0  0.04985588693910037  0.40919081168524696  0.34869957882125435  1.0000
  H   H20       1.0  0.7939013708291405  0.46718151544447206  0.23648529480250802  1.0000
  H   H21       1.0  0.7941619672639489  0.4702626421347529  0.8189926189430681  1.0000
  H   H22       1.0  0.0010730152693305683  0.4211148385797132  0.022225366947529412  1.0000
  H   H23       1.0  0.04997354245361163  0.4105835927538175  0.6931493141490326  1.0000
  H   H24       1.0  0.7032264599936847  0.6325985161552545  0.17429388728235828  1.0000
  H   H25       1.0  0.5667484848260292  0.6626176379230166  0.1783693944037159  1.0000
  H   H26       1.0  0.5432544068929916  0.38476124621198493  0.8898332367097948  1.0000
  H   H27       1.0  0.6795056115953318  0.3520616705214896  0.8866512751632518  1.0000
  Zn  Zn1       1.0  0.8200104563942759  0.4418194998220897  0.5286776124080754  1.0000
  Zn  Zn2       1.0  0.9846421298055296  0.44581923236200405  0.5210321115484471  1.0000
  C   C44       1.0  0.9023208337811324  0.43856675794459243  0.7620825784825316  1.0000
  C   C45       1.0  0.9023335504177276  0.4490736566389504  0.287627188770083  1.0000
  C   C46       1.0  0.9023594426687149  0.6810345447598927  0.5195783151359397  1.0000
  C   C47       1.0  0.9022948851320314  0.20660430799490048  0.5301315246375709  1.0000
  O   O1        1.0  0.96480805023479  0.45230658516473476  0.33311711704628677  1.0000
  O   O2        1.0  0.9647979646386373  0.43836855418397636  0.7107895184824253  1.0000
  O   O3        1.0  0.9648282995477748  0.6341643375505113  0.5149656486101957  1.0000
  O   O4        1.0  0.9647776591520492  0.25651080975676943  0.5289408921363972  1.0000
  O   O5        1.0  0.8398748708670467  0.6311279210638288  0.5207688344223274  1.0000
  O   O6        1.0  0.839844536175313  0.4353336981625464  0.7165926343758628  1.0000
  O   O7        1.0  0.8398546218588786  0.449271684403459  0.3389186713573853  1.0000
  O   O8        1.0  0.8398242307690311  0.2534758996734279  0.534742543831817  1.0000
