data_image0
_chemical_formula_structural       NC12NC2H8C12NCOCH13C12SCH12Zn2C4O8
_chemical_formula_sum              "N3 C45 H33 O9 S1 Zn2"
_cell_length_a       17.80743265337812
_cell_length_b       10.299155265289647
_cell_length_c       10.299780138516091
_cell_angle_alpha    85.56043235920357
_cell_angle_beta     91.52646952147009
_cell_angle_gamma    89.41399588169462

_space_group_name_H-M_alt    "P 1"
_space_group_IT_number       1

loop_
  _space_group_symop_operation_xyz
  'x, y, z'

loop_
  _atom_site_type_symbol
  _atom_site_label
  _atom_site_symmetry_multiplicity
  _atom_site_fract_x
  _atom_site_fract_y
  _atom_site_fract_z
  _atom_site_occupancy
  N   N1        1.0  0.7072130086844682  0.4063469316915549  0.6010216006727864  1.0000
  C   C1        1.0  0.6563916324555323  0.4358860267001561  0.5323188472431122  1.0000
  C   C2        1.0  0.5931648254926287  0.4726305178930901  0.44686127003651643  1.0000
  C   C3        1.0  0.6048887256031287  0.5266148467262848  0.32023424700264  1.0000
  C   C4        1.0  0.5435694311871349  0.5618563973061335  0.23717292608058194  1.0000
  C   C5        1.0  0.4703719230720195  0.5433768926192335  0.28007869327898227  1.0000
  C   C6        1.0  0.45767124215203414  0.4892739017557808  0.40717386282400736  1.0000
  C   C7        1.0  0.5198478531336016  0.45403560003064425  0.49021867218206205  1.0000
  C   C8        1.0  0.37990556715316287  0.46968110008680397  0.452940057599182  1.0000
  C   C9        1.0  0.3611047658481233  0.49691057509584247  0.5799687285543587  1.0000
  C   C10       1.0  0.2878772996859431  0.47847266012276024  0.6229150443815832  1.0000
  C   C11       1.0  0.2325076639093944  0.43255124826675684  0.5396706765309494  1.0000
  C   C12       1.0  0.1571436186845117  0.41356091530476036  0.584017987228526  1.0000
  N   N2        1.0  0.0965562633061536  0.3982939647714374  0.6196701742388899  1.0000
  C   C13       1.0  0.25061697221447027  0.40515302243085327  0.41318498847385365  1.0000
  C   C14       1.0  0.3237915975968682  0.42360564146533464  0.3699827976035577  1.0000
  H   H1        1.0  0.6613534613370319  0.5414286815990479  0.2857952437682445  1.0000
  H   H2        1.0  0.5527648351548498  0.6039252599694005  0.13938815262722137  1.0000
  H   H3        1.0  0.42373046793906327  0.5729936059491745  0.214483668064416  1.0000
  H   H4        1.0  0.51135115340318  0.4105812776556188  0.5878793993694891  1.0000
  H   H5        1.0  0.4027682909704405  0.5341140012031407  0.6455271960617386  1.0000
  H   H6        1.0  0.2744222871995083  0.5003516179965215  0.7209115759457212  1.0000
  H   H7        1.0  0.208236253774379  0.3692171132377198  0.348039091297744  1.0000
  H   H8        1.0  0.33671854150152747  0.4001911113227492  0.2722900163385358  1.0000
  C   C15       1.0  0.9019721313410853  0.020921196488087324  0.6104687583016113  1.0000
  C   C16       1.0  0.8891496703081313  0.03085982225192052  0.47493603800523854  1.0000
  C   C17       1.0  0.8825756624040046  0.9187627131204092  0.4060968910643097  1.0000
  C   C18       1.0  0.8889700644737821  0.7956037066842249  0.4746196656581545  1.0000
  C   C19       1.0  0.9018043583295191  0.7837096184970935  0.610234539273335  1.0000
  C   C20       1.0  0.908229721370235  0.8968870015120533  0.6773243438620773  1.0000
  C   C21       1.0  0.8690119743246097  0.9302502292434562  0.26271968289891845  1.0000
  C   C22       1.0  0.9071182955041805  0.023556868132976305  0.18313128014608515  1.0000
  C   C23       1.0  0.8943601530036742  0.03423637249315448  0.04820406989238579  1.0000
  C   C24       1.0  0.843707732005941  0.9509306869226465  0.990030128195857  1.0000
  C   C25       1.0  0.8046837527450157  0.8594593004168147  0.06950642140073193  1.0000
  C   C26       1.0  0.8174692603835866  0.8485232032477305  0.20439760874234714  1.0000
  N   N3        1.0  0.8285322091161583  0.9614583570938857  0.8517489626341042  1.0000
  C   C27       1.0  0.8833949240439039  0.9972406943034036  0.756163842098124  1.0000
  O   O1        1.0  0.9523126911775144  0.9983550647518156  0.7873218717076957  1.0000
  C   C28       1.0  0.8594391390334404  0.024155519258387548  0.6164833401519751  1.0000
  H   H9        1.0  0.906927517888019  0.34457407933144113  0.6625958627999855  1.0000
  H   H10       1.0  0.8832099359800609  0.12601751924649407  0.42284444799956145  1.0000
  H   H11       1.0  0.8849329651580723  0.7088777101340964  0.4218004360875707  1.0000
  H   H12       1.0  0.9181224826320957  0.8885062142651454  0.7818632390399147  1.0000
  H   H13       1.0  0.9264782799811069  0.5539675014951424  0.8660912546797956  1.0000
  H   H14       1.0  0.9472312926145895  0.08778349460575918  0.22514293829214105  1.0000
  H   H15       1.0  0.9231856793486681  0.10908400552381137  0.9900072312881769  1.0000
  H   H16       1.0  0.7644987272766748  0.7959380424365204  0.026624319953730824  1.0000
  H   H17       1.0  0.7862296543594789  0.7773420146257475  0.26331172568467287  1.0000
  H   H18       1.0  0.7756209027285812  0.9336780151638921  0.8181427318775514  1.0000
  H   H19       1.0  0.8052094272286905  0.07872196200848736  0.6094324565405111  1.0000
  H   H20       1.0  0.8524909031959726  0.9306806484805332  0.570928691413402  1.0000
  H   H21       1.0  0.9022113062562547  0.08335115269875493  0.5631394490287707  1.0000
  C   C29       1.0  0.901918452906299  0.40220345318585515  0.22900101762689573  1.0000
  C   C30       1.0  0.8305000230797145  0.3456647574878531  0.229091879442344  1.0000
  C   C31       1.0  0.7942819905546948  0.31713104051923446  0.11198954455349597  1.0000
  C   C32       1.0  0.8304384683328525  0.34589148643204437  0.9937849677887534  1.0000
  C   C33       1.0  0.9018580189303694  0.402427335255356  0.9917023221954828  1.0000
  C   C34       1.0  0.9371980483130055  0.4302675142794381  0.1098142853731423  1.0000
  C   C35       1.0  0.7187262474854033  0.257332889594883  0.11314842402500536  1.0000
  C   C36       1.0  0.6630780306728137  0.30014797119019465  0.019514190583502566  1.0000
  C   C37       1.0  0.5919814398415706  0.24383550976638468  0.02084223422924869  1.0000
  C   C38       1.0  0.57549601207835  0.14435923479975044  0.11564494996188879  1.0000
  C   C39       1.0  0.6304757919514754  0.10075898630630009  0.20884175345063727  1.0000
  C   C40       1.0  0.7016188987849635  0.1568970428377603  0.20787839714634027  1.0000
  S   S1        1.0  0.48430015709191515  0.07196875551444415  0.11690031194615824  1.0000
  C   C41       1.0  0.44574893380765335  0.18698989452895476  0.22374889973686907  1.0000
  H   H22       1.0  0.9291431098823438  0.42369953218779766  0.5564239438799521  1.0000
  H   H23       1.0  0.8024284270727027  0.3253214962684414  0.32030287329929563  1.0000
  H   H24       1.0  0.8032008921216354  0.3224516606923451  0.9034152662221859  1.0000
  H   H25       1.0  0.9922945016813745  0.47388392406909396  0.10897582589024468  1.0000
  H   H26       1.0  0.9290554826205126  0.42402883288937265  0.6634500809172361  1.0000
  H   H27       1.0  0.674232042819883  0.3782909253001927  0.946346945970733  1.0000
  H   H28       1.0  0.5496447141715043  0.27804693904821587  0.9484732269290501  1.0000
  H   H29       1.0  0.6181733926698707  0.02333581140371943  0.28207865149113  1.0000
  H   H30       1.0  0.7435518753737649  0.12064282316648245  0.28012785895352077  1.0000
  H   H31       1.0  0.47751807287868503  0.18030224584895782  0.3182864574635236  1.0000
  H   H32       1.0  0.386135940770795  0.1630922688586851  0.2416733903976067  1.0000
  H   H33       1.0  0.4486307266474867  0.28765980826604665  0.17726577082869555  1.0000
  Zn  Zn1       1.0  0.8195690651992728  0.40401955403428813  0.6064106638108584  1.0000
  Zn  Zn2       1.0  0.9842002057885423  0.4006107512378907  0.6142917068970535  1.0000
  C   C42       1.0  0.9018688970132215  0.3972109563480557  0.8475369297813276  1.0000
  C   C43       1.0  0.9019021713709358  0.4074209504871644  0.3731656539445152  1.0000
  C   C44       1.0  0.9018325933582981  0.6395249033636206  0.6051037145284204  1.0000
  C   C45       1.0  0.9019384191865347  0.16510544422867968  0.6155989362225942  1.0000
  O   O2        1.0  0.9643733682566139  0.4078727011566676  0.42453943937146654  1.0000
  O   O3        1.0  0.9643489267746707  0.3941710233204174  0.8021443001745909  1.0000
  O   O4        1.0  0.9643187687919303  0.5898426178486129  0.6063777228698082  1.0000
  O   O5        1.0  0.9644034700675705  0.21220111705404388  0.6203059166141287  1.0000
  O   O6        1.0  0.8393657447397163  0.592429189382804  0.600396451397539  1.0000
  O   O7        1.0  0.8393959023812533  0.39675915526219696  0.7961629589809054  1.0000
  O   O8        1.0  0.839420344046849  0.41046078737956027  0.41855653686821004  1.0000
  O   O9        1.0  0.8394504458490611  0.21478919401603402  0.6143231114767485  1.0000
