data_image0
_chemical_formula_structural       NC12NC2H8C12ClH9C12SCH12Zn2C4O8
_chemical_formula_sum              "N2 C43 H29 Cl1 S1 Zn2 O8"
_cell_length_a       17.80743265337812
_cell_length_b       10.299768534541528
_cell_length_c       10.299780138516091
_cell_angle_alpha    85.57853540926422
_cell_angle_beta     91.52646952147009
_cell_angle_gamma    89.45366305101135

_space_group_name_H-M_alt    "P 1"
_space_group_IT_number       1

loop_
  _space_group_symop_operation_xyz
  'x, y, z'

loop_
  _atom_site_type_symbol
  _atom_site_label
  _atom_site_symmetry_multiplicity
  _atom_site_fract_x
  _atom_site_fract_y
  _atom_site_fract_z
  _atom_site_occupancy
  N   N1        1.0  0.7077836423355649  0.40621691918965896  0.6014944409881058  1.0000
  C   C1        1.0  0.6569742517705182  0.4357532833986548  0.5328016191582978  1.0000
  C   C2        1.0  0.5937623541039587  0.4724943776749939  0.4473563961414184  1.0000
  C   C3        1.0  0.6055081586776957  0.5264737158209711  0.32074752365524395  1.0000
  C   C4        1.0  0.5442031637309329  0.561712008426519  0.23769805160597257  1.0000
  C   C5        1.0  0.47099815744663015  0.5432342121136933  0.2805976056469892  1.0000
  C   C6        1.0  0.45827552391558146  0.4891362229074019  0.4076745847479042  1.0000
  C   C7        1.0  0.5204378367461601  0.4539011788562195  0.4907075463254975  1.0000
  C   C8        1.0  0.3805018990206356  0.4695452325334244  0.4534341920542897  1.0000
  C   C9        1.0  0.36171214623740233  0.4967721902602109  0.5804720180716061  1.0000
  C   C10       1.0  0.28847719878130906  0.47833597981636045  0.6234121347246913  1.0000
  C   C11       1.0  0.2330889301181514  0.43241881325539167  0.5401523272308426  1.0000
  C   C12       1.0  0.1577171794524636  0.41343023589199235  0.5844932530209515  1.0000
  N   N2        1.0  0.09712362941791682  0.3981646967418715  0.6201403069951203  1.0000
  C   C13       1.0  0.2511871214297671  0.40502312030224097  0.4136574273744025  1.0000
  C   C14       1.0  0.3243692340723387  0.42347403344814527  0.37046144062202746  1.0000
  H   H1        1.0  0.6619789052134075  0.541286181199699  0.2863135011110276  1.0000
  H   H2        1.0  0.5534156373904557  0.6037769819512222  0.13992742249625745  1.0000
  H   H3        1.0  0.4243687194716596  0.5728481874684517  0.2150125381290291  1.0000
  H   H4        1.0  0.5119235051653935  0.4104508737013004  0.5883536633516404  1.0000
  H   H5        1.0  0.4033907668716409  0.5339721770237753  0.6460429940712613  1.0000
  H   H6        1.0  0.2750310638124571  0.5002129150469263  0.721416022406375  1.0000
  H   H7        1.0  0.2087918217802985  0.3690905332747536  0.34849944786906706  1.0000
  H   H8        1.0  0.337286677391813  0.40006166790774733  0.27276078695115347  1.0000
  C   C15       1.0  0.90238637620251  0.02082681542463649  0.610812011228457  1.0000
  C   C16       1.0  0.9073451485441103  0.030251328083739315  0.47458689583703717  1.0000
  C   C17       1.0  0.909930020644523  0.9178859447920699  0.4055713937963976  1.0000
  C   C18       1.0  0.9074886308742919  0.7949606475625658  0.4746092565641642  1.0000
  C   C19       1.0  0.9025280912173177  0.783544642399408  0.610834225270531  1.0000
  C   C20       1.0  0.9000052964314611  0.8970340382658529  0.6781727683614109  1.0000
  C   C21       1.0  0.9151769872787736  0.9289099406696554  0.26145662583014895  1.0000
  C   C22       1.0  0.8724438791305744  0.02331273284538038  0.18494975247737  1.0000
  C   C23       1.0  0.8774494092737668  0.03349165494375095  0.0493160273213471  1.0000
  C   C24       1.0  0.9251156335272945  0.9497909383829403  0.9884939282144858  1.0000
  C   C25       1.0  0.9678365505457821  0.8557002149931069  0.06348906731470261  1.0000
  C   C26       1.0  0.9629644311307676  0.8451262866421023  0.1991438242072341  1.0000
  Cl  Cl1       1.0  0.9313121082036508  0.9628096827156821  0.8183135941769923  1.0000
  H   H9        1.0  0.900458293385404  0.3446901587533724  0.662715387059384  1.0000
  H   H10       1.0  0.9102457426782375  0.12518878056632632  0.42199566458504956  1.0000
  H   H11       1.0  0.908428694222579  0.708092431154954  0.42171058846450316  1.0000
  H   H12       1.0  0.8961790709965358  0.8889952876052986  0.7832641376217262  1.0000
  H   H13       1.0  0.9006678050260951  0.4517402469431042  0.6627486485591689  1.0000
  H   H14       1.0  0.8344557162655462  0.08808754323620849  0.22987176537316212  1.0000
  H   H15       1.0  0.8440985533145274  0.10627944151742019  0.9916096704501189  1.0000
  H   H16       1.0  0.004987023118704803  0.7908956361131505  0.016837537133718383  1.0000
  H   H17       1.0  0.9972687134494234  0.7726116676937659  0.2554016056413728  1.0000
  C   C27       1.0  0.9024874053162917  0.40207382373596  0.22947246482673345  1.0000
  C   C28       1.0  0.8310460345768873  0.3455403548686329  0.2295443172682503  1.0000
  C   C29       1.0  0.7948164243261115  0.3170092757554739  0.1124323888065617  1.0000
  C   C30       1.0  0.8309845718266459  0.3457670628524221  0.9942374818452002  1.0000
  C   C31       1.0  0.9024270621818463  0.4022976851082438  0.9921738446686872  1.0000
  C   C32       1.0  0.9377783878830833  0.430135290392343  0.11029516823867369  1.0000
  C   C33       1.0  0.7192364178006116  0.2572166529885318  0.11357116301392778  1.0000
  C   C34       1.0  0.6636055734626101  0.3000277764596053  0.01995132480892492  1.0000
  C   C35       1.0  0.5924861335144523  0.24372052095179852  0.021260435144961676  1.0000
  C   C36       1.0  0.575960342659663  0.14425344226461445  0.11602970508114718  1.0000
  C   C37       1.0  0.6309224314720508  0.10065722448169656  0.20921184934550263  1.0000
  C   C38       1.0  0.7020883166566285  0.15679009122035614  0.20826736771270693  1.0000
  S   S1        1.0  0.4847351148047214  0.07186965525922417  0.11726072802340637  1.0000
  C   C39       1.0  0.44623056203328265  0.18688016091882242  0.2241479880865236  1.0000
  H   H18       1.0  0.9297207844545348  0.42356791549069617  0.5569026184662507  1.0000
  H   H19       1.0  0.8029661841703647  0.3251989743219259  0.3207484713377835  1.0000
  H   H20       1.0  0.8037374847664046  0.32232940405341104  0.9038598993679243  1.0000
  H   H21       1.0  0.9928925388697318  0.47374766797740353  0.10947137341390079  1.0000
  H   H22       1.0  0.9296332908084262  0.4238971857494216  0.6639288662206297  1.0000
  H   H23       1.0  0.6747912925791381  0.37816350649086417  0.9468103533285017  1.0000
  H   H24       1.0  0.5501632893357598  0.277928787490914  0.9489029303713767  1.0000
  H   H25       1.0  0.6185886172756916  0.023241207116454055  0.2824227162569697  1.0000
  H   H26       1.0  0.7440065828796786  0.12053922314156074  0.2805046401686859  1.0000
  H   H27       1.0  0.47799698755099584  0.1801931304916311  0.3186832972997853  1.0000
  H   H28       1.0  0.3866078723923494  0.16298474451145428  0.24206444391559723  1.0000
  H   H29       1.0  0.4491532022907318  0.2875407680281856  0.1776987062986315  1.0000
  Zn  Zn1       1.0  0.820138754503011  0.4038897566913868  0.6068827216179924  1.0000
  Zn  Zn2       1.0  0.9847685119502252  0.40048126902845316  0.6147626186005111  1.0000
  C   C40       1.0  0.9024358236878609  0.3970817884393285  0.8480066984097361  1.0000
  C   C41       1.0  0.9024732408115612  0.407290838695493  0.37363885536517394  1.0000
  C   C42       1.0  0.9024978403614292  0.6393733342665484  0.6056549536677895  1.0000
  C   C43       1.0  0.9024111676659963  0.164997733769501  0.6159906666080455  1.0000
  O   O1        1.0  0.9649446209977665  0.4077425476020189  0.4250127926792051  1.0000
  O   O2        1.0  0.9649146199783625  0.3940421364442648  0.8026130467202837  1.0000
  O   O3        1.0  0.964963856911546  0.5896956417279209  0.6069122578894337  1.0000
  O   O4        1.0  0.9648953278970293  0.2120890527429713  0.6207134814514406  1.0000
  O   O5        1.0  0.8400118823761511  0.5922819741414302  0.6009318560712107  1.0000
  O   O6        1.0  0.8399626457349085  0.3966300291211078  0.7966325757052828  1.0000
  O   O7        1.0  0.8399926469194146  0.41033039456420206  0.41903076033926223  1.0000
  O   O8        1.0  0.8399433538061752  0.21467689044510774  0.6147315464742598  1.0000
