data_image0
_chemical_formula_structural       NC12NC2H8C12OCH12C16H10Zn2C4O8
_chemical_formula_sum              "N2 C47 H30 O9 Zn2"
_cell_length_a       17.80743265337812
_cell_length_b       10.29979075500242
_cell_length_c       10.299151387937775
_cell_angle_alpha    85.5809823184421
_cell_angle_beta     91.5231079548936
_cell_angle_gamma    89.41792083348325

_space_group_name_H-M_alt    "P 1"
_space_group_IT_number       1

loop_
  _space_group_symop_operation_xyz
  'x, y, z'

loop_
  _atom_site_type_symbol
  _atom_site_label
  _atom_site_symmetry_multiplicity
  _atom_site_fract_x
  _atom_site_fract_y
  _atom_site_fract_z
  _atom_site_occupancy
  N   N1        1.0  0.7073224184586799  0.4060244391610821  0.6012517582184436  1.0000
  C   C1        1.0  0.6565047170775313  0.4355508093655074  0.5325519610580947  1.0000
  C   C2        1.0  0.5932824812303795  0.472279472379751  0.4470980614110651  1.0000
  C   C3        1.0  0.6050131347589126  0.5262403841376018  0.320476390066174  1.0000
  C   C4        1.0  0.543698262977726  0.5614665875830807  0.2374185437820695  1.0000
  C   C5        1.0  0.4704984584992778  0.5429950322189574  0.2803224580039567  1.0000
  C   C6        1.0  0.4577910026702261  0.4889155386326127  0.4074122731625429  1.0000
  C   C7        1.0  0.519963191734747  0.45369258128685974  0.49045360778005076  1.0000
  C   C8        1.0  0.3800228833141847  0.469331206902762  0.45317651649099777  1.0000
  C   C9        1.0  0.36121880381230626  0.49657776435431966  0.5802170048323769  1.0000
  C   C10       1.0  0.2879890416537941  0.4781478015662366  0.6231614784023229  1.0000
  C   C11       1.0  0.2326203478205937  0.4322174062918722  0.5399034372917904  1.0000
  C   C12       1.0  0.1572539338073624  0.4132352810674109  0.5842488559947376  1.0000
  N   N2        1.0  0.09666467408487212  0.39797492899273235  0.6198995219654024  1.0000
  C   C13       1.0  0.2507329080589487  0.4048021934866348  0.4134059221482591  1.0000
  C   C14       1.0  0.3239098390292546  0.4232468204496611  0.3702055644187787  1.0000
  H   H1        1.0  0.6614797128878477  0.5410478398578265  0.28603887013323037  1.0000
  H   H2        1.0  0.5528988984727861  0.6035173369735825  0.13963798344263  1.0000
  H   H3        1.0  0.4238605727274026  0.5725994850096094  0.2147305538856541  1.0000
  H   H4        1.0  0.5114612052954791  0.41025646251148906  0.5881098233616093  1.0000
  H   H5        1.0  0.40288163172696695  0.5337881835148635  0.6457864598832359  1.0000
  H   H6        1.0  0.2745315376914468  0.5000398690005041  0.7211673108061467  1.0000
  H   H7        1.0  0.2083529268376184  0.36885925387133334  0.3482493247956284  1.0000
  H   H8        1.0  0.33683919779895644  0.39981934764463256  0.27250317255601275  1.0000
  C   C15       1.0  0.9020646508043481  0.020630485361618378  0.610617976857595  1.0000
  C   C16       1.0  0.880302954409778  0.0099702994941544  0.7410146462283729  1.0000
  C   C17       1.0  0.8692165241662092  0.887433635312475  0.8070516235709071  1.0000
  C   C18       1.0  0.8801679927705857  0.7746907685292838  0.7409423966482969  1.0000
  C   C19       1.0  0.901929655922471  0.7833587399183535  0.6105447931642969  1.0000
  C   C20       1.0  0.9127578805668997  0.9067725413929112  0.546113476575685  1.0000
  C   C21       1.0  0.8461984589089993  0.8772097719317761  0.9450054541090882  1.0000
  C   C22       1.0  0.7913778619127121  0.7874961336700467  0.9874456569912193  1.0000
  C   C23       1.0  0.7697815377723048  0.7781459212729701  0.11715122014135193  1.0000
  C   C24       1.0  0.8025196139786679  0.8578515670406175  0.20606798431272  1.0000
  C   C25       1.0  0.8575399981273568  0.9481709567922642  0.165509068687964  1.0000
  C   C26       1.0  0.8789034844324533  0.9571645711203578  0.035265650422188766  1.0000
  O   O1        1.0  0.8922563250139953  0.030188843154812517  0.2510408171612023  1.0000
  C   C27       1.0  0.8761345669866105  0.03155678635824399  0.3856056724612603  1.0000
  H   H9        1.0  0.9103896646257469  0.3521432804427942  0.5609541150481194  1.0000
  H   H10       1.0  0.8709285828686676  0.09721168562728866  0.7909947574020919  1.0000
  H   H11       1.0  0.8726728287907789  0.6799672335571461  0.7919516327905665  1.0000
  H   H12       1.0  0.9295466880849694  0.914228015972261  0.4455179830838347  1.0000
  H   H13       1.0  0.9101844636122836  0.45921093493334236  0.560839933450378  1.0000
  H   H14       1.0  0.7645147235580644  0.7257946409408891  0.9199490613691712  1.0000
  H   H15       1.0  0.7273485149016649  0.7090673327637587  0.14879789648476927  1.0000
  H   H16       1.0  0.7847044485949507  0.8485127452145319  0.3058819849469536  1.0000
  H   H17       1.0  0.921942493375342  0.025805057520810637  0.005160865831357109  1.0000
  H   H18       1.0  0.8891062077747497  0.9347808525575273  0.4368498755485465  1.0000
  H   H19       1.0  0.9115809732644904  0.10548071870523512  0.42951799185585404  1.0000
  H   H20       1.0  0.8161601164847239  0.05771346670878219  0.3971687523421257  1.0000
  C   C28       1.0  0.9020407114881098  0.4018249789363395  0.22921253115125517  1.0000
  C   C29       1.0  0.829545447750725  0.457276605370293  0.22082715496098593  1.0000
  C   C30       1.0  0.7927440121462835  0.48556659327291296  0.09941747802514378  1.0000
  C   C31       1.0  0.8294146914275627  0.4576569013065859  0.9855085251040858  1.0000
  C   C32       1.0  0.9019535616809217  0.4021642291452596  0.9919503041990358  1.0000
  C   C33       1.0  0.9378207419325257  0.37459182325212814  0.11420751934232709  1.0000
  C   C34       1.0  0.7160528029017101  0.5442280093444107  0.0915921731046474  1.0000
  C   C35       1.0  0.6969531498825797  0.6444347847046032  0.99536388252612  1.0000
  C   C36       1.0  0.6247590089888113  0.6996079532657573  0.9881263881332814  1.0000
  C   C37       1.0  0.5707174425993236  0.6554023751934994  0.07677001124310712  1.0000
  C   C38       1.0  0.5891361121841078  0.5557680153585844  0.17280354416603028  1.0000
  C   C39       1.0  0.6613087153611691  0.5005076996184774  0.18028957960842984  1.0000
  C   C40       1.0  0.4964039181969537  0.7122490788498912  0.06919149994523877  1.0000
  C   C41       1.0  0.43416739013157135  0.7598573353938973  0.06284451856033679  1.0000
  C   C42       1.0  0.3612890629227128  0.8156061755892734  0.055412267896223444  1.0000
  C   C43       1.0  0.2990625923603901  0.863206976275664  0.04906641868996542  1.0000
  H   H21       1.0  0.9299095313264328  0.38043367361239167  0.559917590919476  1.0000
  H   H22       1.0  0.8019377789215896  0.4802416643845795  0.30880677055202943  1.0000
  H   H23       1.0  0.8009047671620835  0.47762525483781393  0.8917684416264553  1.0000
  H   H24       1.0  0.9937372934917236  0.33181702365243226  0.11995985804154752  1.0000
  H   H25       1.0  0.03867826467591673  0.2966702850315577  0.7968657361069078  1.0000
  H   H26       1.0  0.7381319214830037  0.6812852738508284  0.9267864514662709  1.0000
  H   H27       1.0  0.6111590456450043  0.7769380056558202  0.9136158432767676  1.0000
  H   H28       1.0  0.54766564425383  0.5205647468146646  0.2416982691435321  1.0000
  H   H29       1.0  0.6740209988934656  0.42243436625212016  0.2543646579501426  1.0000
  H   H30       1.0  0.2444226135447119  0.905004347008493  0.04349424653205869  1.0000
  Zn  Zn1       1.0  0.819678186273888  0.403698060453904  0.6066405872860616  1.0000
  Zn  Zn2       1.0  0.9843089044407887  0.4002907189468825  0.6145212869635752  1.0000
  C   C44       1.0  0.9019692821834517  0.3969264951379494  0.847776932547142  1.0000
  C   C45       1.0  0.9020196059889178  0.4070638857320006  0.37338515506880166  1.0000
  C   C46       1.0  0.9019518784946585  0.6391846663902339  0.6053833071626586  1.0000
  C   C47       1.0  0.9020369537690478  0.16480415536972814  0.6157788471523933  1.0000
  O   O2        1.0  0.9644890233576756  0.40752337662155314  0.4247614896890066  1.0000
  O   O3        1.0  0.964450770823996  0.39387993099571617  0.8023814928831396  1.0000
  O   O4        1.0  0.9644358747578231  0.5895064860865546  0.6066468849641284  1.0000
  O   O5        1.0  0.9645038632560162  0.21189683194032005  0.6204959975433202  1.0000
  O   O6        1.0  0.8394831712782765  0.5920919486246357  0.6006658740101893  1.0000
  O   O7        1.0  0.8394980670727287  0.3964669538079535  0.7964004125339654  1.0000
  O   O8        1.0  0.839536319842768  0.4101103534821886  0.4187788479460335  1.0000
  O   O9        1.0  0.8395511597285572  0.2144837995555191  0.6145134531689178  1.0000
