data_image0
_chemical_formula_structural       NC10NC3NH7C12ClH9C12NCOCH13Zn2C4O8
_chemical_formula_sum              "N4 C43 H29 Cl1 O9 Zn2"
_cell_length_a       19.210446455230148
_cell_length_b       10.299768534541528
_cell_length_c       10.299158637457994
_cell_angle_alpha    85.58253282463848
_cell_angle_beta     89.9723271520695
_cell_angle_gamma    89.96529235611058

_space_group_name_H-M_alt    "P 1"
_space_group_IT_number       1

loop_
  _space_group_symop_operation_xyz
  'x, y, z'

loop_
  _atom_site_type_symbol
  _atom_site_label
  _atom_site_symmetry_multiplicity
  _atom_site_fract_x
  _atom_site_fract_y
  _atom_site_fract_z
  _atom_site_occupancy
  N   N1        1.0  0.6559544489330283  0.4196657491947102  0.5674054977305829  1.0000
  C   C1        1.0  0.5957260608609052  0.4218732859156018  0.5676367969283729  1.0000
  C   C2        1.0  0.5209218212726329  0.4246102271331895  0.5679233479141625  1.0000
  C   C3        1.0  0.4853189185719032  0.5408428427673238  0.5830431000952934  1.0000
  C   C4        1.0  0.4126534601335335  0.5409943583325403  0.582990512657096  1.0000
  C   C5        1.0  0.3757551160251716  0.4253192049169334  0.568009879632722  1.0000
  C   C6        1.0  0.2984328917894811  0.423962713188063  0.567859194817742  1.0000
  C   C7        1.0  0.2606972104278876  0.5275092805592263  0.5045040415851743  1.0000
  C   C8        1.0  0.1879187498619087  0.5261070488440385  0.504394871675262  1.0000
  C   C9        1.0  0.1518745896277424  0.4214157357509827  0.5675898753118085  1.0000
  C   C10       1.0  0.0769449772943985  0.42011364129726747  0.5674529575538318  1.0000
  N   N2        1.0  0.0167070507753481  0.41906671316058985  0.5673429105495296  1.0000
  C   C11       1.0  0.1888866281528566  0.3179948492501701  0.6309200284411818  1.0000
  C   C12       1.0  0.2616669063267217  0.3191228368953305  0.6310794259357677  1.0000
  C   C13       1.0  0.413967995175839  0.31090689543879013  0.5531784170391829  1.0000
  N   N3        1.0  0.48473812901722063  0.313351863056875  0.553344146350395  1.0000
  H   H1        1.0  0.5134258021113715  0.6302781972894957  0.5950976536262369  1.0000
  H   H2        1.0  0.3853903686667958  0.6310120306645493  0.5964398372071458  1.0000
  H   H3        1.0  0.2874389209581319  0.6087434477178806  0.45351861157941653  1.0000
  H   H4        1.0  0.1597865010038795  0.6065139782907629  0.45473978694080475  1.0000
  H   H5        1.0  0.1615054772810319  0.23662451438380683  0.6804755627265726  1.0000
  H   H6        1.0  0.2891540811711125  0.2388355721220925  0.6821722534865877  1.0000
  H   H7        1.0  0.3876968255465406  0.22002630900085496  0.5396827867834453  1.0000
  C   C14       1.0  0.8362684221326429  0.03800095641114942  0.567372094497772  1.0000
  C   C15       1.0  0.8408764347904915  0.04751083212436491  0.43090119456915943  1.0000
  C   C16       1.0  0.843278270473789  0.9351900860598958  0.3617576815379029  1.0000
  C   C17       1.0  0.84100938037581  0.8122228993938017  0.43091666159243514  1.0000
  C   C18       1.0  0.8363997301742848  0.8007214973401835  0.5673874997549184  1.0000
  C   C19       1.0  0.8340555779789286  0.9141673266030625  0.6348509784994096  1.0000
  C   C20       1.0  0.8481540892603172  0.9463044080542449  0.21738284602310465  1.0000
  C   C21       1.0  0.8085659503827463  0.039883935235250245  0.1429252705449029  1.0000
  C   C22       1.0  0.8132172300462873  0.0501491567684087  0.0070435464768698886  1.0000
  C   C23       1.0  0.8573897169467  0.9673564998410717  0.9439275371197273  1.0000
  C   C24       1.0  0.8969667075506719  0.874088702165408  0.016873881011798098  1.0000
  C   C25       1.0  0.8924390414634392  0.8634310293086099  0.15277022702253218  1.0000
  Cl  Cl1       1.0  0.8631478783015748  0.9804819169713379  0.7734400736346383  1.0000
  H   H8        1.0  0.8344768266238632  0.3618310340852997  0.6193709783763315  1.0000
  H   H9        1.0  0.8435692064897419  0.14250011573057342  0.37816768413646895  1.0000
  H   H10       1.0  0.8418855946923096  0.725368968391115  0.37796990921119233  1.0000
  H   H11       1.0  0.8305000033584276  0.9060627077108874  0.7401319957755785  1.0000
  H   H12       1.0  0.8346709525423919  0.4688851346175814  0.6193941737837767  1.0000
  H   H13       1.0  0.7733625100541355  0.10393480787789233  0.18967524707249717  1.0000
  H   H14       1.0  0.7823206549545373  0.12229457037599234  0.9509366648230437  1.0000
  H   H15       1.0  0.9313941303775218  0.8099919065991549  0.9684345466171753  1.0000
  H   H16       1.0  0.9242191833795284  0.7915769302006037  0.20738263736780138  1.0000
  C   C26       1.0  0.8363993105798043  0.4192231735208898  0.18600671358233423  1.0000
  C   C27       1.0  0.8380401839453767  0.5559224451837428  0.17469565805911635  1.0000
  C   C28       1.0  0.8388175200452023  0.6253708139207761  0.05180317641849941  1.0000
  C   C29       1.0  0.8379069911643282  0.5562825327683449  0.9393842098827063  1.0000
  C   C30       1.0  0.8362688358839651  0.41949934847940495  0.9487529570805142  1.0000
  C   C31       1.0  0.8355281255344424  0.3518107115697642  0.07245211402611162  1.0000
  C   C32       1.0  0.8405541969092303  0.7699818676684425  0.04081100605386956  1.0000
  C   C33       1.0  0.8832903619663787  0.8377441830025145  0.12337235034868321  1.0000
  C   C34       1.0  0.8849303394907929  0.9738308019560404  0.11289728006034028  1.0000
  C   C35       1.0  0.8443081184722269  0.04488296395779612  0.018756211368800457  1.0000
  C   C36       1.0  0.8007430446161177  0.9774824096650734  0.9379780975652112  1.0000
  C   C37       1.0  0.7991316503275441  0.8414236524414369  0.9481921766036856  1.0000
  N   N4        1.0  0.84406639798866  0.18492804436000876  0.007523715928139607  1.0000
  C   C38       1.0  0.9037193469157253  0.26381615384488555  0.030746535293043165  1.0000
  O   O1        1.0  0.9637273299445434  0.2143043035849952  0.03925125578297228  1.0000
  C   C39       1.0  0.8955788063080429  0.4076434903576751  0.03535342464629587  1.0000
  H   H17       1.0  0.8357899685581607  0.3666408883931471  0.5178331988858023  1.0000
  H   H18       1.0  0.837744983582985  0.6087396942601417  0.26164763567998417  1.0000
  H   H19       1.0  0.839425229427992  0.6092931241433381  0.8444134133937169  1.0000
  H   H20       1.0  0.8342648644707991  0.24637136561677675  0.08046169786292978  1.0000
  H   H21       1.0  0.8335994902365521  0.16131216468282705  0.7591436873803192  1.0000
  H   H22       1.0  0.9158607371086432  0.7854635423470246  0.1955581804314963  1.0000
  H   H23       1.0  0.917059925620307  0.023116575983576748  0.1799242234488574  1.0000
  H   H24       1.0  0.7681926400049126  0.030638016392326328  0.8663615723384712  1.0000
  H   H25       1.0  0.7647215673535146  0.7920948854694849  0.8848498697871237  1.0000
  H   H26       1.0  0.798951540705508  0.23245751331202902  0.9725857717845843  1.0000
  H   H27       1.0  0.8466360097497669  0.4294392365726436  0.0867801581656491  1.0000
  H   H28       1.0  0.8937153201993419  0.4543134941544804  0.9346358992945198  1.0000
  H   H29       1.0  0.939995387940055  0.44833700323534575  0.08800130658442296  1.0000
  Zn  Zn1       1.0  0.7600598544208975  0.4194894190297076  0.5673949355015524  1.0000
  Zn  Zn2       1.0  0.9126016257063538  0.41923246472952536  0.5673641084583068  1.0000
  C   C40       1.0  0.836291052744301  0.4142734988200323  0.8045774549337465  1.0000
  C   C41       1.0  0.8363720933946274  0.4244500207833988  0.33018171619052783  1.0000
  C   C42       1.0  0.8363722066419745  0.6565492472403498  0.5622093968930977  1.0000
  C   C43       1.0  0.8362908871646645  0.1821727121881065  0.5725498434494789  1.0000
  O   O2        1.0  0.8942517653080208  0.4261010199672737  0.3785564653037228  1.0000
  O   O3        1.0  0.8941870555555386  0.41242649741931126  0.7561789349380272  1.0000
  O   O4        1.0  0.8942518077544305  0.6080672300671719  0.5604650134610429  1.0000
  O   O5        1.0  0.8941869610752118  0.23046029666197354  0.5742702894156761  1.0000
  O   O6        1.0  0.7784744669970208  0.608261587186357  0.5604887545478712  1.0000
  O   O7        1.0  0.7784097150753997  0.4126224148025688  0.7562026068102414  1.0000
  O   O8        1.0  0.7784744251334853  0.42629689152961103  0.3785785757571636  1.0000
  O   O9        1.0  0.7784096208795749  0.23065615897084757  0.5742924972378369  1.0000
