data_image0
_chemical_formula_structural       NC12NC2H8C12NCOCH13C16H10Zn2C4O8
_chemical_formula_sum              "N3 C48 H31 O9 Zn2"
_cell_length_a       19.240039667572717
_cell_length_b       10.299155265289647
_cell_length_c       10.299151387937775
_cell_angle_alpha    85.56903598390942
_cell_angle_beta     89.98856263563692
_cell_angle_gamma    89.97652338962732

_space_group_name_H-M_alt    "P 1"
_space_group_IT_number       1

loop_
  _space_group_symop_operation_xyz
  'x, y, z'

loop_
  _atom_site_type_symbol
  _atom_site_label
  _atom_site_symmetry_multiplicity
  _atom_site_fract_x
  _atom_site_fract_y
  _atom_site_fract_z
  _atom_site_occupancy
  N   N1        1.0  0.65431861380933  0.4207585694388689  0.5670770265365583  1.0000
  C   C1        1.0  0.5941702449823929  0.42075865339084295  0.5670769445775603  1.0000
  C   C2        1.0  0.5193522078301906  0.42075877062574385  0.5670768072419663  1.0000
  C   C3        1.0  0.48288157320932884  0.3563334759764998  0.6705059000099594  1.0000
  C   C4        1.0  0.4102108401724162  0.35622262396915305  0.6705924711871192  1.0000
  C   C5        1.0  0.3730199728969074  0.42075886309918786  0.5670765795353689  1.0000
  C   C6        1.0  0.4102047839467968  0.4852952893136302  0.463560882377122  1.0000
  C   C7        1.0  0.48287548751215614  0.4851842018424115  0.4636475761159562  1.0000
  C   C8        1.0  0.2958148824847366  0.4207587843908964  0.5670764841395546  1.0000
  C   C9        1.0  0.258647436275844  0.3075077341679444  0.6089763397359638  1.0000
  C   C10       1.0  0.1859767342129204  0.3076146027898794  0.6088849865674104  1.0000
  C   C11       1.0  0.1494825955833561  0.4207586552348104  0.5670765450831163  1.0000
  C   C12       1.0  0.0746645584267567  0.4207585415910948  0.5670767937741208  1.0000
  N   N2        1.0  0.0145162415613214  0.4207585008546737  0.5670770022048615  1.0000
  C   C13       1.0  0.1859359677994303  0.5339027834900922  0.5252680506884542  1.0000
  C   C14       1.0  0.2586066503164057  0.5340098321759774  0.5251765348785715  1.0000
  H   H1        1.0  0.5105987507542157  0.30645430446062316  0.7512602895606015  1.0000
  H   H2        1.0  0.3831195506533682  0.3071420788596806  0.7524621689487867  1.0000
  H   H3        1.0  0.3831095426772211  0.534375861455546  0.3816911337598814  1.0000
  H   H4        1.0  0.510588081422846  0.535063273207615  0.3828934623876181  1.0000
  H   H5        1.0  0.28575693160073723  0.2183592250230908  0.6401668590555449  1.0000
  H   H6        1.0  0.15827780469645947  0.2193657868156329  0.641108247852423  1.0000
  H   H7        1.0  0.1582050738719266  0.6221515749319568  0.4930448039602078  1.0000
  H   H8        1.0  0.2856836337961452  0.6231584204839498  0.4939859707670351  1.0000
  C   C15       1.0  0.834498379964618  0.03936111098985662  0.567195703131419  1.0000
  C   C16       1.0  0.8226401591338016  0.049014201299592663  0.43227048121775713  1.0000
  C   C17       1.0  0.816560491089466  0.9367707972340975  0.36374282748763687  1.0000
  C   C18       1.0  0.8224740082735874  0.8137543245288649  0.4319626963453598  1.0000
  C   C19       1.0  0.8343431734977238  0.8021460288281117  0.5669695088456115  1.0000
  C   C20       1.0  0.8402853804426405  0.9154663698554748  0.6337548538680224  1.0000
  C   C21       1.0  0.8040167832896681  0.9479562705063964  0.22100823483641796  1.0000
  C   C22       1.0  0.8392731648501301  0.042038808828379404  0.13959060966827486  1.0000
  C   C23       1.0  0.8274744282510934  0.05243419880612654  0.0052678468620479535  1.0000
  C   C24       1.0  0.7806155717928602  0.9680724565315649  0.949517278117423  1.0000
  C   C25       1.0  0.7445102287578933  0.8758061801402245  0.030866743953719133  1.0000
  C   C26       1.0  0.7563342831947116  0.8651547577304562  0.1651521712798738  1.0000
  N   N3        1.0  0.7665805209079696  0.9782655251333967  0.8119561866316074  1.0000
  C   C27       1.0  0.8173394840230332  0.015167808348222955  0.713738423252829  1.0000
  O   O1        1.0  0.881097276067559  0.017711821294499996  0.7415968363234033  1.0000
  C   C28       1.0  0.7951814789405586  0.04156627960145176  0.5751985001594857  1.0000
  H   H9        1.0  0.8390811330049495  0.3631243044498593  0.6190880205350189  1.0000
  H   H10       1.0  0.817146742315458  0.14404124058228351  0.38046083024872446  1.0000
  H   H11       1.0  0.8187408248196467  0.7269368996695349  0.3793342337805887  1.0000
  H   H12       1.0  0.849434213775752  0.9073058743144927  0.737825051687881  1.0000
  H   H13       1.0  0.8571617935385347  0.5729526151413473  0.8216569868843799  1.0000
  H   H14       1.0  0.8763820689537059  0.1071011433534581  0.17968293393402845  1.0000
  H   H15       1.0  0.8541440527390688  0.127869063422422  0.9456873921809814  1.0000
  H   H16       1.0  0.7073347163143044  0.8114475937161866  0.989907383532187  1.0000
  H   H17       1.0  0.7274312661374188  0.7933365318926782  0.22556557398029065  1.0000
  H   H18       1.0  0.7176310760342002  0.949386122626496  0.7808827431446868  1.0000
  H   H19       1.0  0.7450114598733036  0.09501040276065997  0.5707448674206739  1.0000
  H   H20       1.0  0.7887548420333099  0.9479408840198715  0.5299744205917873  1.0000
  H   H21       1.0  0.8347535857492604  0.10163823744682832  0.5198031896561166  1.0000
  C   C29       1.0  0.8344610797466903  0.42058479161061046  0.18571168562005158  1.0000
  C   C30       1.0  0.7673903773264875  0.4745418185582211  0.18078723079470937  1.0000
  C   C31       1.0  0.7333426559457594  0.5020731001618302  0.061134423715190955  1.0000
  C   C32       1.0  0.7672693938898856  0.47491944057944924  0.945474784625596  1.0000
  C   C33       1.0  0.8343804402121543  0.4209222663198584  0.948453562190493  1.0000
  C   C34       1.0  0.8675638131088107  0.39408930587016444  0.06899850817432096  1.0000
  C   C35       1.0  0.6623899756021491  0.559153411009629  0.05697035438690601  1.0000
  C   C36       1.0  0.6447160787135349  0.658973083255751  0.9616359797420762  1.0000
  C   C37       1.0  0.5779239691046653  0.712657856685724  0.957845041185232  1.0000
  C   C38       1.0  0.5279295402491898  0.6673314692081886  0.04908649602522863  1.0000
  C   C39       1.0  0.5449734072099871  0.5680701769966163  0.14425861236323723  1.0000
  C   C40       1.0  0.6117455948115348  0.5142978042865298  0.14829914184963333  1.0000
  C   C41       1.0  0.4591766309363114  0.7226460875191467  0.04505570889599153  1.0000
  C   C42       1.0  0.401597039545987  0.7689712442009371  0.04167989645280423  1.0000
  C   C43       1.0  0.3341719367566195  0.823217587804951  0.03772685371027906  1.0000
  C   C44       1.0  0.2766016502929438  0.869535495998224  0.0343516932512995  1.0000
  H   H22       1.0  0.860244578424396  0.39976803835298247  0.5150863044688183  1.0000
  H   H23       1.0  0.741848418162916  0.4969378476247839  0.2700844490746741  1.0000
  H   H24       1.0  0.7408928383936825  0.49429987572395473  0.8530961485021207  1.0000
  H   H25       1.0  0.9192963292600214  0.35246731020623634  0.07208139353495957  1.0000
  H   H26       1.0  0.9608745589587078  0.31824703759931205  0.7468419525212422  1.0000
  H   H27       1.0  0.682810873187274  0.6966778570298044  0.8910783820430557  1.0000
  H   H28       1.0  0.5653389819363295  0.7897127366253454  0.8839697616935402  1.0000
  H   H29       1.0  0.5066086863898412  0.5320067209527957  0.21514713173271005  1.0000
  H   H30       1.0  0.6235093806107755  0.43648123176299847  0.22178163006590723  1.0000
  H   H31       1.0  0.22605018555121528  0.9102063811965917  0.031388031098286584  1.0000
  Zn  Zn1       1.0  0.7582638775670805  0.4207550854992448  0.5670845090084979  1.0000
  Zn  Zn2       1.0  0.9105709976102094  0.42075139521209093  0.5670801218300834  1.0000
  C   C45       1.0  0.834395192133708  0.41568444951039796  0.8042805328852574  1.0000
  C   C46       1.0  0.8344413458856306  0.42582366995916465  0.3298842248866254  1.0000
  C   C47       1.0  0.834369461186744  0.6579611245508898  0.5618370781347393  1.0000
  C   C48       1.0  0.8344670251710532  0.18354543453131167  0.5723277493403267  1.0000
  O   O2        1.0  0.8922344824758185  0.42757481878083947  0.3782681828656673  1.0000
  O   O3        1.0  0.8921996357483022  0.41392951988496285  0.7558928715818287  1.0000
  O   O4        1.0  0.8921780783720779  0.6095709996033474  0.5601180661651306  1.0000
  O   O5        1.0  0.8922559878883427  0.23193334831154133  0.5740428909059254  1.0000
  O   O6        1.0  0.7765788353140024  0.6095731324024642  0.5601217399273215  1.0000
  O   O7        1.0  0.7766003923768235  0.41393321307411024  0.7558964756355018  1.0000
  O   O8        1.0  0.7766352393248331  0.42757846601969485  0.37827022552383016  1.0000
  O   O9        1.0  0.7766567447261128  0.23193698630397996  0.5740450309351939  1.0000
