data_image0
_chemical_formula_structural       NC12NC2H8C12SCH12C12BrH9Zn2C4O8
_chemical_formula_sum              "N2 C43 H29 S1 Br1 Zn2 O8"
_cell_length_a       19.240039667572717
_cell_length_b       10.299776766347529
_cell_length_c       10.299148005577397
_cell_angle_alpha    85.55397783742741
_cell_angle_beta     89.9732799682917
_cell_angle_gamma    89.97991714870845

_space_group_name_H-M_alt    "P 1"
_space_group_IT_number       1

loop_
  _space_group_symop_operation_xyz
  'x, y, z'

loop_
  _atom_site_type_symbol
  _atom_site_label
  _atom_site_symmetry_multiplicity
  _atom_site_fract_x
  _atom_site_fract_y
  _atom_site_fract_z
  _atom_site_occupancy
  N   N1        1.0  0.6545680116207292  0.4214675586455736  0.567460511373518  1.0000
  C   C1        1.0  0.5944196428081421  0.4214676426378716  0.567460429437302  1.0000
  C   C2        1.0  0.5196016056792438  0.42146775994233066  0.5674602921324896  1.0000
  C   C3        1.0  0.4831141754239945  0.3569880545938078  0.6708737309275961  1.0000
  C   C4        1.0  0.4104434265281978  0.35687716187525353  0.6709602710454028  1.0000
  C   C5        1.0  0.3732693707813759  0.4214678525397533  0.5674600644447854  1.0000
  C   C6        1.0  0.4104709933381191  0.4860587301601851  0.4639600524054617  1.0000
  C   C7        1.0  0.4831416810196585  0.4859476019267872  0.46404671501620043  1.0000
  C   C8        1.0  0.2960642803803269  0.42146777389336854  0.5674599690198381  1.0000
  C   C9        1.0  0.2588872732849002  0.30820207757351303  0.6093259924275496  1.0000
  C   C10       1.0  0.1862165876371691  0.3083089900131344  0.6092346688460357  1.0000
  C   C11       1.0  0.14973199346616506  0.4214676447129613  0.56746002992541  1.0000
  C   C12       1.0  0.0749139562704866  0.4214675309349156  0.5674602785917913  1.0000
  N   N2        1.0  0.0147656393740229  0.4214674900812849  0.5674604870190894  1.0000
  C   C13       1.0  0.1861949101507472  0.5346263752473359  0.5256853381159419  1.0000
  C   C14       1.0  0.2588656091118172  0.5347334678297846  0.5255938519425563  1.0000
  H   H1        1.0  0.5108182527875917  0.30706636497669093  0.7516160314937299  1.0000
  H   H2        1.0  0.3833389029539148  0.3077533852057579  0.7528181820721402  1.0000
  H   H3        1.0  0.3833889861318898  0.535182533889272  0.38210209052938326  1.0000
  H   H4        1.0  0.5108673750691144  0.5358691912420486  0.38330469025322866  1.0000
  H   H5        1.0  0.28598949820511976  0.21904307683724733  0.6404897989819938  1.0000
  H   H6        1.0  0.1585102688199989  0.22004900821174567  0.6414315477689958  1.0000
  H   H7        1.0  0.1584714055210997  0.6228863325099983  0.49348847374266613  1.0000
  H   H8        1.0  0.2859498630051257  0.6238925477483825  0.49443000061910647  1.0000
  C   C15       1.0  0.8347356961837897  0.04010239841346319  0.5674588876919977  1.0000
  C   C16       1.0  0.8388782597960467  0.02852122629675935  0.7039788754916545  1.0000
  C   C17       1.0  0.8409104122606597  0.9055143324455612  0.7731599987924958  1.0000
  C   C18       1.0  0.838745357321556  0.7932334477694841  0.7039940665209672  1.0000
  C   C19       1.0  0.8346046501411527  0.8028226724818001  0.5674733293054539  1.0000
  C   C20       1.0  0.8326226072166596  0.9266958874876167  0.49996994483146584  1.0000
  C   C21       1.0  0.8452851177643883  0.8943266652131275  0.9175827422119376  1.0000
  C   C22       1.0  0.8054890527639279  0.8008557172271256  0.9916287435133464  1.0000
  C   C23       1.0  0.8096270371698568  0.7905612694419544  0.12754411527492737  1.0000
  C   C24       1.0  0.8533873488579858  0.8734589445106258  0.1912202387186479  1.0000
  C   C25       1.0  0.8933489328913821  0.966355910517291  0.11854736351466388  1.0000
  C   C26       1.0  0.889312864927909  0.9770002485333853  0.9826215762682846  1.0000
  S   S1        1.0  0.8587735955827928  0.8597892140054246  0.36561836007726234  1.0000
  C   C27       1.0  0.7889277105893351  0.9758482690805997  0.3851479579022453  1.0000
  H   H9        1.0  0.8331845348237379  0.3719688326596988  0.5154385751816071  1.0000
  H   H10       1.0  0.8395755136869699  0.11534477823149714  0.7569395708065993  1.0000
  H   H11       1.0  0.841254871129665  0.6982122197046786  0.7567586164128735  1.0000
  H   H12       1.0  0.8294272707291896  0.9348617810619526  0.3946505790525001  1.0000
  H   H13       1.0  0.8329921523164737  0.47902283191866135  0.5154576827772839  1.0000
  H   H14       1.0  0.7705134225412402  0.7368983400543098  0.9445125178021578  1.0000
  H   H15       1.0  0.778539261583525  0.7184910798565136  0.18326810455616271  1.0000
  H   H16       1.0  0.9275844563396274  0.030368937790346218  0.16725259479327614  1.0000
  H   H17       1.0  0.921277493625535  0.04870128665540996  0.9283106926306064  1.0000
  H   H18       1.0  0.8028533394140874  0.07218491206849209  0.33626811613288976  1.0000
  H   H19       1.0  0.7808480038763836  0.9865127172141789  0.4904319358124304  1.0000
  H   H20       1.0  0.7400315519595358  0.940321751435971  0.343023997383088  1.0000
  C   C28       1.0  0.8347648868192672  0.4215145789746726  0.1860779039425149  1.0000
  C   C29       1.0  0.7693793775063166  0.4822938514269255  0.1806420278682488  1.0000
  C   C30       1.0  0.7361296729016256  0.5130569769826587  0.06074765563949103  1.0000
  C   C31       1.0  0.7691474250866588  0.48222104711304237  0.9453649916160458  1.0000
  C   C32       1.0  0.834575424620966  0.4214105081309938  0.9488542554263648  1.0000
  C   C33       1.0  0.8669811406640453  0.3914297497141517  0.0696344693023856  1.0000
  C   C34       1.0  0.6669601917515424  0.5773560439401764  0.056042071062440746  1.0000
  C   C35       1.0  0.6523435556385216  0.6786728867352956  0.13612199871197217  1.0000
  C   C36       1.0  0.5872098601269983  0.7390813054298315  0.13149827743114262  1.0000
  C   C37       1.0  0.5359524144477065  0.699137967579474  0.04713288351913447  1.0000
  C   C38       1.0  0.5498708482043578  0.5986079832658946  0.9672005054930035  1.0000
  C   C39       1.0  0.6149454922248706  0.5379776011657595  0.9714316841284005  1.0000
  Br  Br1       1.0  0.4470206695699067  0.7818078849187324  0.041084220110264136  1.0000
  H   H21       1.0  0.8599291547472705  0.3981889362662474  0.5156402653655399  1.0000
  H   H22       1.0  0.7437288767068087  0.5042398931168455  0.26998195711502926  1.0000
  H   H23       1.0  0.7441825434545785  0.5073157809456672  0.8525489945411131  1.0000
  H   H24       1.0  0.9174156213331728  0.3445531183259243  0.0731112544327841  1.0000
  H   H25       1.0  0.9582612829168046  0.3073690364836832  0.7480911748078318  1.0000
  H   H26       1.0  0.6915543711059924  0.7122896852280531  0.20103020744236266  1.0000
  H   H27       1.0  0.5767008078084688  0.8171469284587298  0.1933042565998091  1.0000
  H   H28       1.0  0.510248515294607  0.5671431514234269  0.9019853364494508  1.0000
  H   H29       1.0  0.6242916700198036  0.45922269331326704  0.9098267861567675  1.0000
  Zn  Zn1       1.0  0.7585132742006435  0.4214640706697912  0.5674679930842028  1.0000
  Zn  Zn2       1.0  0.9108203947530189  0.4214603832356745  0.5674636045437456  1.0000
  C   C40       1.0  0.8346105842753871  0.41625654536694956  0.8046731225914943  1.0000
  C   C41       1.0  0.8347247475540512  0.42666954708418636  0.33025860249240435  1.0000
  C   C42       1.0  0.8346271100297181  0.6586530173522596  0.5622951481761227  1.0000
  C   C43       1.0  0.8347081700788739  0.1842715148035825  0.5726366461219063  1.0000
  O   O1        1.0  0.8925110359179785  0.4283925364257035  0.37864529649735057  1.0000
  O   O2        1.0  0.8924218765250499  0.41452977768648736  0.7562827239024306  1.0000
  O   O3        1.0  0.8924344417768674  0.6102679941710083  0.5605607947456157  1.0000
  O   O4        1.0  0.8924984187166474  0.23265432924585827  0.5743671282762477  1.0000
  O   O5        1.0  0.7768351982620711  0.6102701246622801  0.5605644693463672  1.0000
  O   O6        1.0  0.776822632756156  0.41453346847572536  0.7562863292837174  1.0000
  O   O7        1.0  0.7769117925909106  0.4283961821724853  0.3786473403981647  1.0000
  O   O8        1.0  0.7768991753641492  0.23265796569063757  0.5743692695496454  1.0000
