data_image0
_chemical_formula_structural       NC8NC6H8C12NH11C13NH9Zn2C4O8
_chemical_formula_sum              "N4 C43 H28 Zn2 O8"
_cell_length_a       17.457602349358154
_cell_length_b       10.299770795358612
_cell_length_c       10.298528502251457
_cell_angle_alpha    85.53666946162151
_cell_angle_beta     92.8736263554175
_cell_angle_gamma    91.70596819880058

_space_group_name_H-M_alt    "P 1"
_space_group_IT_number       1

loop_
  _space_group_symop_operation_xyz
  'x, y, z'

loop_
  _atom_site_type_symbol
  _atom_site_label
  _atom_site_symmetry_multiplicity
  _atom_site_fract_x
  _atom_site_fract_y
  _atom_site_fract_z
  _atom_site_occupancy
  N   N1        1.0  0.7227291435981701  0.4532940179832712  0.6262270567497896  1.0000
  C   C1        1.0  0.6616431430627058  0.4073723126072937  0.61561341979476  1.0000
  C   C2        1.0  0.5856495761318976  0.35025142230859574  0.6024195981462594  1.0000
  C   C3        1.0  0.5271261237288607  0.39038822409550034  0.6773236189705378  1.0000
  C   C4        1.0  0.4525710080832833  0.335385392760849  0.6647441546390265  1.0000
  C   C5        1.0  0.3904569416316686  0.377763864163976  0.7440703630374712  1.0000
  C   C6        1.0  0.315915241181525  0.39625096693594863  0.6882985411827285  1.0000
  C   C7        1.0  0.2573917493174518  0.43620380690085336  0.7633105427783524  1.0000
  C   C8        1.0  0.1814120674226547  0.45529750558374427  0.7053229392136089  1.0000
  N   N2        1.0  0.1203373185192844  0.4706424595707912  0.6587010574876697  1.0000
  C   C9        1.0  0.272917824960692  0.4579125154415373  0.8946029290804167  1.0000
  C   C10       1.0  0.3466748812087329  0.43981426987904415  0.950762368426812  1.0000
  C   C11       1.0  0.40518678786822304  0.40004133105628514  0.8762081317540276  1.0000
  C   C12       1.0  0.43782790822146844  0.23956881961600862  0.5758276217031049  1.0000
  C   C13       1.0  0.4963396818236662  0.19971056408116317  0.5013236333035669  1.0000
  C   C14       1.0  0.5701100365477276  0.2548255868756013  0.5144531075493941  1.0000
  H   H1        1.0  0.5394819627907389  0.4655603098258787  0.7439570432608522  1.0000
  H   H2        1.0  0.30357043262603195  0.381314859602234  0.5862624724630887  1.0000
  H   H3        1.0  0.22806079787977  0.48877560353790206  0.9534437966806715  1.0000
  H   H4        1.0  0.358506273367534  0.4563081642917455  0.05242501454276316  1.0000
  H   H5        1.0  0.4616683491742253  0.3850340572371749  0.9223214361762557  1.0000
  H   H6        1.0  0.3813352942333098  0.1942367950868069  0.5651778195967934  1.0000
  H   H7        1.0  0.4844978903858517  0.1256553425641378  0.43349165575797355  1.0000
  H   H8        1.0  0.6149669343681765  0.22309262868301816  0.4561234930789373  1.0000
  C   C15       1.0  0.9214673732152746  0.08059679723928626  0.6424982762906557  1.0000
  C   C16       1.0  0.899203322257595  0.08884577572496766  0.5092530684227308  1.0000
  C   C17       1.0  0.8879923237142766  0.9758925229570987  0.4417073190270451  1.0000
  C   C18       1.0  0.8993437502803271  0.8535703129928794  0.50919597623839  1.0000
  C   C19       1.0  0.9216064128316339  0.8433299819259633  0.6424416213266464  1.0000
  C   C20       1.0  0.9325439261570336  0.9573928183047258  0.7083465186754088  1.0000
  C   C21       1.0  0.8644385859075753  0.9856728832435738  0.30074165022974597  1.0000
  C   C22       1.0  0.8085753023787512  0.07442887650774566  0.25098629930708194  1.0000
  C   C23       1.0  0.7864394209793522  0.08350636201672623  0.11831103760450379  1.0000
  C   C24       1.0  0.8197479147654628  0.004229734937596152  0.03327651434381851  1.0000
  C   C25       1.0  0.875427120493616  0.9156640974986522  0.08212616089367075  1.0000
  C   C26       1.0  0.8976244619836149  0.9063332781339596  0.2147764654873634  1.0000
  N   N3        1.0  0.7970730878551022  0.01364478520308432  0.8975723566614677  1.0000
  H   H9        1.0  0.9299183781701492  0.40490438327517997  0.6932853473350278  1.0000
  H   H10       1.0  0.8915458039897235  0.18343460893321173  0.45726899312215474  1.0000
  H   H11       1.0  0.8897603670025129  0.7661405471576561  0.45799482975932726  1.0000
  H   H12       1.0  0.9497190498007452  0.950261043402213  0.8111392460829701  1.0000
  H   H13       1.0  0.9301228756003782  0.5119769607386191  0.693202413160305  1.0000
  H   H14       1.0  0.7812817987729427  0.1356263595943914  0.31496865090619264  1.0000
  H   H15       1.0  0.7431856856817617  0.1521115883837727  0.08186267568031624  1.0000
  H   H16       1.0  0.9017718253269934  0.8540798984706104  0.01737695844960041  1.0000
  H   H17       1.0  0.9414663936566396  0.8382644820142844  0.24983314488208497  1.0000
  H   H18       1.0  0.8215763115310585  0.9549413155961738  0.833425733247763  1.0000
  H   H19       1.0  0.7556151276967871  0.07938869691895145  0.8602473659878633  1.0000
  C   C27       1.0  0.9215478248014768  0.4620903359656474  0.2610539793155071  1.0000
  C   C28       1.0  0.8417913579957483  0.4784723190344955  0.2520481349757522  1.0000
  C   C29       1.0  0.8013860022801836  0.48663331452872693  0.13033896722353955  1.0000
  C   C30       1.0  0.8417684074521666  0.478206458748613  0.016786580510098847  1.0000
  C   C31       1.0  0.9215259683355289  0.46183640303926343  0.02388593620591628  1.0000
  C   C32       1.0  0.9609049638528787  0.45388040583829103  0.14644474620578962  1.0000
  C   C33       1.0  0.717067374075308  0.5039466425659422  0.12182565053625671  1.0000
  C   C34       1.0  0.6832096311332717  0.590400249886458  0.19996858846926657  1.0000
  C   C35       1.0  0.6038405843295377  0.606650247204604  0.1918355355452277  1.0000
  C   C36       1.0  0.5572732070949157  0.5367600005322766  0.10568921395492037  1.0000
  C   C37       1.0  0.590373775469855  0.4505096901496519  0.02758842123094607  1.0000
  C   C38       1.0  0.669734615534976  0.43416497030454826  0.03548420205786784  1.0000
  C   C39       1.0  0.4755626997290514  0.55354008472817  0.09743688799324035  1.0000
  N   N4        1.0  0.4098729616894757  0.5670302639016558  0.09080260940405438  1.0000
  H   H20       1.0  0.07219256762034543  0.4303236869983047  0.4854536963783407  1.0000
  H   H21       1.0  0.810808050002725  0.4831282715200471  0.34003271164218907  1.0000
  H   H22       1.0  0.8110742974868272  0.4862144130376407  0.9225748918822938  1.0000
  H   H23       1.0  0.02237481536251651  0.4412592076480881  0.1526508451017572  1.0000
  H   H24       1.0  0.07231277456797369  0.4317187320453484  0.829919169295942  1.0000
  H   H25       1.0  0.7182151518499071  0.6466957863763043  0.2661257498598315  1.0000
  H   H26       1.0  0.5788418004416299  0.6739496842673187  0.2524947505579047  1.0000
  H   H27       1.0  0.5548382490029301  0.3956411872129173  0.960816114568857  1.0000
  H   H28       1.0  0.6939799124435005  0.36570247144487733  0.9753103279870792  1.0000
  Zn  Zn1       1.0  0.8374702732535985  0.4582969182555454  0.6356058515383773  1.0000
  Zn  Zn2       1.0  0.005596172368137031  0.4656289078648461  0.6493328973293353  1.0000
  C   C40       1.0  0.9215274425998902  0.45671063824931846  0.879694630631976  1.0000
  C   C41       1.0  0.9215408392465031  0.46721690652477377  0.40524439549522384  1.0000
  C   C42       1.0  0.9215763351963939  0.6991587179603755  0.6372762364167897  1.0000
  C   C43       1.0  0.9214918889939541  0.22476726397529023  0.6476628543893064  1.0000
  O   O1        1.0  0.9853413963160562  0.4717142165009536  0.4588453591199122  1.0000
  O   O2        1.0  0.9853305526218844  0.4577771591310045  0.8365118033209322  1.0000
  O   O3        1.0  0.9853691738795501  0.6535570117138392  0.640757164516149  1.0000
  O   O4        1.0  0.9853027176928937  0.27593437073890836  0.6545998958532069  1.0000
  O   O5        1.0  0.8577636705557241  0.6479914528808508  0.6303388483233068  1.0000
  O   O6        1.0  0.8577250495809862  0.45221316063580996  0.8260934177579955  1.0000
  O   O7        1.0  0.8577358933626797  0.46615017327146324  0.448425411971064  1.0000
  O   O8        1.0  0.8576972147318964  0.2703703181879962  0.6441800460846487  1.0000
