data_image0
_chemical_formula_structural       NC9NC5H8C12ClH9C12NH11Zn2C4O8
_chemical_formula_sum              "N3 C42 H28 Cl1 Zn2 O8"
_cell_length_a       17.807436237873137
_cell_length_b       10.299768534541528
_cell_length_c       10.299774167527174
_cell_angle_alpha    85.57901690489705
_cell_angle_beta     89.38598095942662
_cell_angle_gamma    88.408414792471

_space_group_name_H-M_alt    "P 1"
_space_group_IT_number       1

loop_
  _space_group_symop_operation_xyz
  'x, y, z'

loop_
  _atom_site_type_symbol
  _atom_site_label
  _atom_site_symmetry_multiplicity
  _atom_site_fract_x
  _atom_site_fract_y
  _atom_site_fract_z
  _atom_site_occupancy
  N   N1        1.0  0.7077663323980473  0.3872994559082803  0.5572148754943784  1.0000
  C   C1        1.0  0.6471730165323067  0.35210714692367495  0.5461907836682005  1.0000
  C   C2        1.0  0.5718015913662905  0.30833179012155987  0.5324780104205735  1.0000
  C   C3        1.0  0.5537040197615795  0.23688694153296108  0.4274782634974379  1.0000
  C   C4        1.0  0.4805222401438402  0.19427292473784918  0.4140814175181238  1.0000
  C   C5        1.0  0.4243892457534102  0.22272622466370717  0.5056518613598822  1.0000
  C   C6        1.0  0.3466158947411309  0.17755343863154893  0.49149655649205215  1.0000
  C   C7        1.0  0.2844529627476931  0.2593157030621356  0.5174358599692876  1.0000
  C   C8        1.0  0.2111288396612304  0.21649865623534792  0.5040526908771015  1.0000
  C   C9        1.0  0.1479162928564581  0.3009523278489623  0.5303559305951915  1.0000
  N   N2        1.0  0.0971063924830694  0.3688472373089202  0.5515030087660333  1.0000
  C   C10       1.0  0.1993840575483512  0.09166136256930124  0.4647048649616954  1.0000
  C   C11       1.0  0.2606896177157209  0.009885243622014706  0.4387571718869616  1.0000
  C   C12       1.0  0.3338942492730413  0.052307697004900344  0.4519378039309838  1.0000
  C   C13       1.0  0.4431782987743044  0.29466549503268613  0.6108708376868635  1.0000
  C   C14       1.0  0.5164129249157244  0.337089074941876  0.6241120359632757  1.0000
  H   H1        1.0  0.5960996151529455  0.21438085443246546  0.3557680937039871  1.0000
  H   H2        1.0  0.4676053303822272  0.14056707492406262  0.3311634530925691  1.0000
  H   H3        1.0  0.2929665641800667  0.3567872324986088  0.5463134370474094  1.0000
  H   H4        1.0  0.1429134322304545  0.05762284208034196  0.4541098154318084  1.0000
  H   H5        1.0  0.2514779049600127  0.9132334406809266  0.4086792482732968  1.0000
  H   H6        1.0  0.3805241690058033  0.9865583110874777  0.4328890226717568  1.0000
  H   H7        1.0  0.4014993961601909  0.31663292818249134  0.6838754422218245  1.0000
  H   H8        1.0  0.5298584811483669  0.3920151766451838  0.7059884389086126  1.0000
  C   C15       1.0  0.9023690948766391  0.996711154302424  0.5543578289267561  1.0000
  C   C16       1.0  0.9073262089356422  0.006002136553913351  0.41782252019528765  1.0000
  C   C17       1.0  0.909910240871527  0.8935671631988502  0.34864532236707024  1.0000
  C   C18       1.0  0.9074696914752451  0.7707076234768818  0.41783590446503194  1.0000
  C   C19       1.0  0.9025108100998537  0.7594251959291022  0.5543711770771629  1.0000
  C   C20       1.0  0.8999888350642784  0.8729825104568774  0.6218675327354102  1.0000
  C   C21       1.0  0.9151554531811782  0.9044498683548844  0.20420233321469428  1.0000
  C   C22       1.0  0.8724214335100435  0.9999935554575533  0.1303689210817116  1.0000
  C   C23       1.0  0.8774253125399858  0.010037702791339198  0.99442207720453  1.0000
  C   C24       1.0  0.9250907766251278  0.9250632375558223  0.9306179289049381  1.0000
  C   C25       1.0  0.9678125867932965  0.8298319330105106  0.002940369859516956  1.0000
  C   C26       1.0  0.9629421186891786  0.8193892158926384  0.13889989910942102  1.0000
  Cl  Cl1       1.0  0.9312851796777203  0.9379151228506459  0.7600499777110539  1.0000
  H   H9        1.0  0.9004416439016141  0.32062640891093275  0.6063818152102636  1.0000
  H   H10       1.0  0.9102261624421418  0.10086169441450066  0.3650498370193058  1.0000
  H   H11       1.0  0.9084091113112681  0.6838138801610807  0.3648784380189476  1.0000
  H   H12       1.0  0.8961638889179292  0.8650467926824454  0.7271982494776821  1.0000
  H   H13       1.0  0.9006511558555231  0.4276709008409969  0.6064019693655165  1.0000
  H   H14       1.0  0.8344338333012224  0.06578346705841565  0.17766751434990846  1.0000
  H   H15       1.0  0.8440737695388499  0.08371591125875799  0.9388022102326485  1.0000
  H   H16       1.0  0.004962476048256059  0.764034615895788  0.9539646667971211  1.0000
  H   H17       1.0  0.9972470700242105  0.7459586955314382  0.19301154334536164  1.0000
  C   C27       1.0  0.902465487899458  0.377952466965501  0.1730120579442742  1.0000
  C   C28       1.0  0.8288799486895813  0.33213850139038903  0.17691136137389285  1.0000
  C   C29       1.0  0.7915672912598054  0.3090412646543874  0.06173973791986476  1.0000
  C   C30       1.0  0.8288283796644901  0.3323722444727053  0.9416074115731572  1.0000
  C   C31       1.0  0.9024143963374863  0.378183960941221  0.935716956731893  1.0000
  C   C32       1.0  0.9388207681146137  0.4007180395057799  0.05194451685225099  1.0000
  C   C33       1.0  0.713718055665652  0.2605733110638284  0.06691832361527861  1.0000
  C   C34       1.0  0.692586369972629  0.16312180325602466  0.1625250794977806  1.0000
  C   C35       1.0  0.6193111904853121  0.11755945380258503  0.16726551208016027  1.0000
  C   C36       1.0  0.5660085630907143  0.16861090965796288  0.07674387361982582  1.0000
  C   C37       1.0  0.5866444290457347  0.26569575879832996  0.9813037484504492  1.0000
  C   C38       1.0  0.659897068935632  0.31136043745504716  0.9762973684874159  1.0000
  N   N3        1.0  0.4910650490765793  0.12195158710699228  0.08172895787709278  1.0000
  H   H18       1.0  0.9305177139885498  0.3953554147026368  0.49898365708335324  1.0000
  H   H19       1.0  0.8000341113597701  0.3160026175780968  0.2696198738094475  1.0000
  H   H20       1.0  0.8006894281964201  0.31303047966442765  0.8526893904264159  1.0000
  H   H21       1.0  0.995588786615901  0.43606051013446057  0.04816839425380781  1.0000
  H   H22       1.0  0.9304427382940899  0.3956959150918422  0.6060149862712372  1.0000
  H   H23       1.0  0.7329905120721641  0.12093907465849574  0.23258133172136364  1.0000
  H   H24       1.0  0.6041422593758292  0.042232376825135365  0.24130485403153634  1.0000
  H   H25       1.0  0.5459263569733138  0.306228069831767  0.9109820148500809  1.0000
  H   H26       1.0  0.6741879182802976  0.3875956170601287  0.9026029438795513  1.0000
  H   H27       1.0  0.4509389120283877  0.15940941859295799  0.014653810154320546  1.0000
  H   H28       1.0  0.4751528146035843  0.049604983026977356  0.15253212927743465  1.0000
  Zn  Zn1       1.0  0.8201214611906535  0.38197108126601953  0.5555740645472789  1.0000
  Zn  Zn2       1.0  0.9847512428114841  0.37416502920806316  0.5531544956787471  1.0000
  C   C39       1.0  0.9024214259798223  0.37296667057109634  0.7915493629306922  1.0000
  C   C40       1.0  0.9024530760703153  0.38317099328984083  0.3171792983634456  1.0000
  C   C41       1.0  0.902480496291334  0.6152546551600204  0.5491937993125668  1.0000
  C   C42       1.0  0.9023939492876402  0.14088145111115935  0.5595349320154452  1.0000
  O   O1        1.0  0.9649250536442184  0.38195435668250766  0.3646449273567123  1.0000
  O   O2        1.0  0.9648996432252964  0.36825771446791755  0.7422469633041056  1.0000
  O   O3        1.0  0.96494650095015  0.5639083665170117  0.5465431433785009  1.0000
  O   O4        1.0  0.9648781397506195  0.18630371655759514  0.5603486507376467  1.0000
  O   O5        1.0  0.8399945080714544  0.5698323965817214  0.5483799103072287  1.0000
  O   O6        1.0  0.8399476506377004  0.3741833047876191  0.7440836610178085  1.0000
  O   O7        1.0  0.8399730612027427  0.3878799012708687  0.366480063735537  1.0000
  O   O8        1.0  0.8399261472978252  0.19222925188700835  0.5621838844799911  1.0000
