data_image0
_chemical_formula_structural       NC12NC2H8C12OCH12C12NCOCH13Zn2C4O8
_chemical_formula_sum              "N3 C45 H33 O10 Zn2"
_cell_length_a       19.240039667572717
_cell_length_b       10.29979075500242
_cell_length_c       10.299158637457994
_cell_angle_alpha    85.5763692806703
_cell_angle_beta     89.9815795743678
_cell_angle_gamma    89.9807799165636

_space_group_name_H-M_alt    "P 1"
_space_group_IT_number       1

loop_
  _space_group_symop_operation_xyz
  'x, y, z'

loop_
  _atom_site_type_symbol
  _atom_site_label
  _atom_site_symmetry_multiplicity
  _atom_site_fract_x
  _atom_site_fract_y
  _atom_site_fract_z
  _atom_site_occupancy
  N   N1        1.0  0.6544685325204134  0.42076357618932625  0.5673661727184645  1.0000
  C   C1        1.0  0.5943201637021582  0.4207636601413771  0.567366090776567  1.0000
  C   C2        1.0  0.5195021265635722  0.42076377737823223  0.5673659534647257  1.0000
  C   C3        1.0  0.4830221856409366  0.35633515223342305  0.6707821481114999  1.0000
  C   C4        1.0  0.41035144255257966  0.35622430187173193  0.670868696588544  1.0000
  C   C5        1.0  0.3731698916488159  0.4207638698628533  0.5673657257762026  1.0000
  C   C6        1.0  0.4103640190651977  0.4853036249081144  0.4638629494975657  1.0000
  C   C7        1.0  0.48303471256176234  0.4851925390909966  0.4639496204877258  1.0000
  C   C8        1.0  0.29596480123974017  0.42076379116839013  0.5673656303633998  1.0000
  C   C9        1.0  0.25879012205138385  0.30751817883443366  0.6092420362409774  1.0000
  C   C10       1.0  0.1861194301935433  0.30762504650687794  0.6091507049130209  1.0000
  C   C11       1.0  0.1496325143292525  0.4207636620174442  0.5673656912802914  1.0000
  C   C12       1.0  0.0748144771519161  0.42076354836250696  0.5673659399489115  1.0000
  N   N2        1.0  0.0146661602712667  0.42076350761243564  0.5673661483722905  1.0000
  C   C13       1.0  0.1860931093170635  0.5339023533367269  0.525580624752753  1.0000
  C   C14       1.0  0.2587638020568854  0.5340094010722256  0.5254891308202181  1.0000
  H   H1        1.0  0.5107321138753979  0.30645334748509523  0.7515265554767152  1.0000
  H   H2        1.0  0.383252862707531  0.30714097131941  0.7527285853580912  1.0000
  H   H3        1.0  0.38327606812601417  0.5343869824948788  0.38200300987781577  1.0000
  H   H4        1.0  0.5107545557609072  0.5350742436741895  0.3832054889254024  1.0000
  H   H5        1.0  0.2858940406384284  0.21837409490025284  0.640414086558502  1.0000
  H   H6        1.0  0.1584148923250609  0.21938050232605621  0.6413556910654048  1.0000
  H   H7        1.0  0.15836782373965716  0.6221468729859025  0.49337565315208654  1.0000
  H   H8        1.0  0.2858463622805409  0.6231535641669756  0.4943170357270441  1.0000
  C   C15       1.0  0.8346331363262764  0.03939581010775739  0.5674050947973128  1.0000
  C   C16       1.0  0.8144918602322506  0.028275104492942127  0.6988447832592433  1.0000
  C   C17       1.0  0.8042309738454985  0.9055038616581959  0.7654131213328021  1.0000
  C   C18       1.0  0.8143670055735418  0.7929927885783282  0.6987789973832277  1.0000
  C   C19       1.0  0.8345082509741234  0.802121279102738  0.5673383763950783  1.0000
  C   C20       1.0  0.8445301544624305  0.9257641903781925  0.5023880749687737  1.0000
  C   C21       1.0  0.7829268787876202  0.8947928889879279  0.9044701877845711  1.0000
  C   C22       1.0  0.732206993285494  0.8039422271354364  0.949536306375087  1.0000
  C   C23       1.0  0.7122187559345643  0.7941349703915433  0.08027696413272756  1.0000
  C   C24       1.0  0.7425004929407427  0.8745104083854455  0.16762620318002597  1.0000
  C   C25       1.0  0.7934050882395756  0.9659708011540975  0.1244318133089316  1.0000
  C   C26       1.0  0.8131779514213611  0.975416688542058  0.9931644494210445  1.0000
  O   O1        1.0  0.8255172189539767  0.048699659861611844  0.20830126783436576  1.0000
  C   C27       1.0  0.8105934436987867  0.049723371397830674  0.34363903560766995  1.0000
  H   H9        1.0  0.8423382382982579  0.37108476090133746  0.5173422235705833  1.0000
  H   H10       1.0  0.8058159273634841  0.11531861042670544  0.7492741655058357  1.0000
  H   H11       1.0  0.8074295490346117  0.6981101492159858  0.7501475040300705  1.0000
  H   H12       1.0  0.8600688329010435  0.9335749484392541  0.40098790862331213  1.0000
  H   H13       1.0  0.842148404620081  0.4781481813936728  0.5172378696200768  1.0000
  H   H14       1.0  0.7073590409135407  0.7416906972559886  0.883325969505617  1.0000
  H   H15       1.0  0.6729599029492326  0.7241763837475903  0.11395618264526741  1.0000
  H   H16       1.0  0.7260123334567684  0.8647951427875237  0.26829403063285084  1.0000
  H   H17       1.0  0.8529973301007203  0.04494957941026989  0.9609981069889899  1.0000
  H   H18       1.0  0.822590777251111  0.9532115335350138  0.39426223509363156  1.0000
  H   H19       1.0  0.8433837199796088  0.12437673199769983  0.38585386227323315  1.0000
  H   H20       1.0  0.7551074995176272  0.07463894716685515  0.3580747081191834  1.0000
  C   C28       1.0  0.8346358669817783  0.4206205917354364  0.1859986788286967  1.0000
  C   C29       1.0  0.8362283325046231  0.5573234294162919  0.17467318486844552  1.0000
  C   C30       1.0  0.8369811622207617  0.6267735163670578  0.05177335821301643  1.0000
  C   C31       1.0  0.8360952238233433  0.5576832980770059  0.9393616748492541  1.0000
  C   C32       1.0  0.8345055003680935  0.42089655176626684  0.9487448699921175  1.0000
  C   C33       1.0  0.833788649391086  0.35320626828765  0.07245118877048462  1.0000
  C   C34       1.0  0.8386666282440558  0.7713883439091955  0.04076591389832207  1.0000
  C   C35       1.0  0.8813142849215393  0.8392220316314536  0.12332735960423813  1.0000
  C   C36       1.0  0.882906061617279  0.9753122113434791  0.11283791670658383  1.0000
  C   C37       1.0  0.8423225031916678  0.046297365441224425  0.018682162267222857  1.0000
  C   C38       1.0  0.7988470918487988  0.9788240647442545  0.9379037645718213  1.0000
  C   C39       1.0  0.7972838450521522  0.8427617943906243  0.9481322181678529  1.0000
  N   N3        1.0  0.842034148862578  0.18634290677717846  0.007434542089047147  1.0000
  C   C40       1.0  0.9015688228420058  0.2653305442142604  0.030659193621223046  1.0000
  O   O2        1.0  0.9615010817387821  0.21591802080782418  0.03917963645327194  1.0000
  C   C41       1.0  0.8933925339018731  0.4091452504785611  0.03524918326925941  1.0000
  H   H21       1.0  0.8340451117650153  0.36803697116103784  0.5178307217529525  1.0000
  H   H22       1.0  0.8359158584180548  0.6101405135675877  0.261619422948536  1.0000
  H   H23       1.0  0.8375933328763915  0.6106967365829425  0.8443854319789579  1.0000
  H   H24       1.0  0.8325627227619385  0.2477641757379847  0.08047190972412466  1.0000
  H   H25       1.0  0.8319269223605378  0.162703346364802  0.7591629449316466  1.0000
  H   H26       1.0  0.9138520873530512  0.7869951459175513  0.19552445962486154  1.0000
  H   H27       1.0  0.9149696628022493  0.02465163381645663  0.179865114988907  1.0000
  H   H28       1.0  0.7663289355365146  0.0319259550743487  0.8662758786309732  1.0000
  H   H29       1.0  0.7629432707724609  0.793375592382662  0.8847892662379375  1.0000
  H   H30       1.0  0.796972762958617  0.23379776383749595  0.9724836677325688  1.0000
  H   H31       1.0  0.8445177367739578  0.430859870802073  0.08666509532596334  1.0000
  H   H32       1.0  0.8915162507185013  0.45581244766490947  0.9345263089001499  1.0000
  H   H33       1.0  0.9377271068446607  0.449912759088674  0.08790037288515373  1.0000
  Zn  Zn1       1.0  0.7584137956516701  0.42076009191711194  0.567373654503396  1.0000
  Zn  Zn2       1.0  0.9107209158343315  0.42075640227143274  0.5673692665289447  1.0000
  C   C42       1.0  0.834529437084864  0.41567070681791374  0.8045699345171646  1.0000
  C   C43       1.0  0.8346069373000221  0.42584742599099235  0.33017311379186753  1.0000
  C   C44       1.0  0.8345291467924681  0.6579480816816745  0.5621757973770121  1.0000
  C   C45       1.0  0.8346071758643289  0.18356849085576288  0.5725673203092929  1.0000
  O   O3        1.0  0.8923969875164797  0.4275945333895954  0.3785577064970529  1.0000
  O   O4        1.0  0.8923369671645183  0.41391981920888044  0.7561816376764228  1.0000
  O   O5        1.0  0.8923359533505395  0.6095618639343658  0.560446656861425  1.0000
  O   O6        1.0  0.8923979493734774  0.23195249792033534  0.5742925899370046  1.0000
  O   O7        1.0  0.7767367101375799  0.6095639962708796  0.5604503310900018  1.0000
  O   O8        1.0  0.7767377237047036  0.413923511819533  0.7561852425223932  1.0000
  O   O9        1.0  0.776797744377178  0.42759818017955364  0.3785597499292379  1.0000
  O   O10       1.0  0.7767987062162126  0.23195613545673854  0.5742947307389015  1.0000
