data_image0
_chemical_formula_structural       NC8NC6H8C12NCOCH13C12BrH9Zn2C4O8
_chemical_formula_sum              "N3 C44 H30 O9 Br1 Zn2"
_cell_length_a       17.457602349358154
_cell_length_b       10.299155265289647
_cell_length_c       10.299148005577397
_cell_angle_alpha    85.5359577284707
_cell_angle_beta     92.84953389996222
_cell_angle_gamma    91.66712233072684

_space_group_name_H-M_alt    "P 1"
_space_group_IT_number       1

loop_
  _space_group_symop_operation_xyz
  'x, y, z'

loop_
  _atom_site_type_symbol
  _atom_site_label
  _atom_site_symmetry_multiplicity
  _atom_site_fract_x
  _atom_site_fract_y
  _atom_site_fract_z
  _atom_site_occupancy
  N   N1        1.0  0.7224751874124581  0.45312517755962123  0.6260082073026065  1.0000
  C   C1        1.0  0.6614104800626512  0.4071988431632729  0.6154066344687705  1.0000
  C   C2        1.0  0.5854433971870124  0.35007219645556154  0.6022278183029437  1.0000
  C   C3        1.0  0.5268852151038634  0.3902251486589974  0.6771150398816124  1.0000
  C   C4        1.0  0.45235557074453697  0.33521679744337884  0.6645500126994948  1.0000
  C   C5        1.0  0.39020477629668127  0.3776123653101624  0.7438584608478382  1.0000
  C   C6        1.0  0.3156692513332234  0.39609025680271226  0.688087505026437  1.0000
  C   C7        1.0  0.2571110781250011  0.43605925639883614  0.7630827413612915  1.0000
  C   C8        1.0  0.1811378691043419  0.45514337040407193  0.7050960690167516  1.0000
  N   N2        1.0  0.1200683269505928  0.4704806179671046  0.658474937512908  1.0000
  C   C9        1.0  0.272596073159068  0.4577934437854978  0.8943573894197248  1.0000
  C   C10       1.0  0.3463467004841566  0.43970450361685076  0.9505158321982736  1.0000
  C   C11       1.0  0.4048931028504046  0.3999155000598895  0.8759782738581248  1.0000
  C   C12       1.0  0.4376732992812918  0.23937825030547732  0.5756650156684091  1.0000
  C   C13       1.0  0.49621959096555585  0.19950393434124414  0.5011777213466277  1.0000
  C   C14       1.0  0.569964293661785  0.25462458498874296  0.5142926790196838  1.0000
  H   H1        1.0  0.5391940993664727  0.4654138974616908  0.7437240208116969  1.0000
  H   H2        1.0  0.3033555818006631  0.38113446073398527  0.5860647561155736  1.0000
  H   H3        1.0  0.2277120353348529  0.48866918007897486  0.9531852207563647  1.0000
  H   H4        1.0  0.3581464114459718  0.45621810851060807  0.052164819164019494  1.0000
  H   H5        1.0  0.4613694449113326  0.3849158585050856  0.9220907952565502  1.0000
  H   H6        1.0  0.38120174740984203  0.1940416243890477  0.5650271392043471  1.0000
  H   H7        1.0  0.4844245942340304  0.12543189365839202  0.43337003258454865  1.0000
  H   H8        1.0  0.6148484306212323  0.22287902229316003  0.45597626144827275  1.0000
  C   C15       1.0  0.9213610776981304  0.08040927698127409  0.6423675777149884  1.0000
  C   C16       1.0  0.9082929919597333  0.08957004716817618  0.5063691237663139  1.0000
  C   C17       1.0  0.9015929283892354  0.9770738526590784  0.4372912487847027  1.0000
  C   C18       1.0  0.9081096398974372  0.8543023450432424  0.5060463527247419  1.0000
  C   C19       1.0  0.9211897934200908  0.8431868490005727  0.6421273863922716  1.0000
  C   C20       1.0  0.9277383991456868  0.9567543778989733  0.7094505059207221  1.0000
  C   C21       1.0  0.8877694186811523  0.9877385520282882  0.2934213835662325  1.0000
  C   C22       1.0  0.9266989156169766  0.08356755230330459  0.21517898647440514  1.0000
  C   C23       1.0  0.9136963948499369  0.09347313534351764  0.0797883728589126  1.0000
  C   C24       1.0  0.8619814626974753  0.00688624768574897  0.01981232313183945  1.0000
  C   C25       1.0  0.8221148764081847  0.9128326436407271  0.09791003665730935  1.0000
  C   C26       1.0  0.8351453493734796  0.9026722699345548  0.23326559563055183  1.0000
  N   N3        1.0  0.8465109649540423  0.016483653881179672  0.8809817032305736  1.0000
  C   C27       1.0  0.9025551567324478  0.05588920454568447  0.7873359639338546  1.0000
  O   O1        1.0  0.9729278530409148  0.06148894737920152  0.8209421558180634  1.0000
  C   C28       1.0  0.8781185392628911  0.08130119738121744  0.6467943097615318  1.0000
  H   H9        1.0  0.9264114372364947  0.4043628806622299  0.6946746504834096  1.0000
  H   H10       1.0  0.9022374111208897  0.18436274915677475  0.4540626364919378  1.0000
  H   H11       1.0  0.9039971676178274  0.7673358761678247  0.45307968773867957  1.0000
  H   H12       1.0  0.937820669551695  0.9489737321568313  0.8143487209228155  1.0000
  H   H13       1.0  0.9463373198574919  0.6149436989474727  0.8988799103033243  1.0000
  H   H14       1.0  0.967654127698777  0.1503944222806477  0.2586174614722576  1.0000
  H   H15       1.0  0.9431442244799498  0.17022793161868854  0.0226098787332083  1.0000
  H   H16       1.0  0.7810862772914986  0.8467068203202197  0.05359849355218049  1.0000
  H   H17       1.0  0.8032321266809447  0.8294260125805187  0.29107575565502275  1.0000
  H   H18       1.0  0.7924845148099191  0.9852639177253286  0.8454951423059458  1.0000
  H   H19       1.0  0.8227406037151269  0.13233058051883662  0.6378184058134018  1.0000
  H   H20       1.0  0.8710318149721901  0.9873926408579315  0.6009894908638729  1.0000
  H   H21       1.0  0.9218077192342204  0.14331231715776171  0.5949640742592353  1.0000
  C   C29       1.0  0.9213799800377261  0.46185465357279143  0.26086781701167516  1.0000
  C   C30       1.0  0.8492040684754848  0.5194885124601618  0.2495190035150301  1.0000
  C   C31       1.0  0.8125013275328256  0.5486521267637701  0.1266178424281179  1.0000
  C   C32       1.0  0.8489480374530606  0.5194045258817097  0.01422108316556736  1.0000
  C   C33       1.0  0.9211708516348442  0.46174144517097626  0.02362712425091673  1.0000
  C   C34       1.0  0.9569419543677528  0.4333195971927941  0.14733780416449238  1.0000
  C   C35       1.0  0.7361484717973928  0.6096237498651855  0.11565712781243054  1.0000
  C   C36       1.0  0.7200108083317966  0.710244761643255  0.19438731944782806  1.0000
  C   C37       1.0  0.6481128666615852  0.7675198690437333  0.18387347628980777  1.0000
  C   C38       1.0  0.5915353020670278  0.7251034572154686  0.09490065383141122  1.0000
  C   C39       1.0  0.6069022487976056  0.6252357279173559  0.016254828159872448  1.0000
  C   C40       1.0  0.678735016041427  0.5677357933248877  0.02637087665873583  1.0000
  Br  Br1       1.0  0.4933678360935795  0.8034952538778544  0.08080972059811953  1.0000
  H   H22       1.0  0.9491575999597796  0.43973956025806227  0.5927058106378271  1.0000
  H   H23       1.0  0.8208897834858282  0.5402004615430098  0.33653991259845295  1.0000
  H   H24       1.0  0.8213904422024654  0.543298464827314  0.9191468626549693  1.0000
  H   H25       1.0  0.01261414601366595  0.38886915056412086  0.1553754748770111  1.0000
  H   H26       1.0  0.05770167532739112  0.35365004188663995  0.8340488974327496  1.0000
  H   H27       1.0  0.7632912905443184  0.7457536623128571  0.26281913503852117  1.0000
  H   H28       1.0  0.6365100455215194  0.8450856394342534  0.24470736190962783  1.0000
  H   H29       1.0  0.5631674505308585  0.5918591450541788  0.9474782747079944  1.0000
  H   H30       1.0  0.6890542578722875  0.48942464971180133  0.9656334747431732  1.0000
  Zn  Zn1       1.0  0.8372119777573365  0.45813009872066757  0.635384904098035  1.0000
  Zn  Zn2       1.0  0.005331521832261155  0.4654650467142454  0.64910887689777  1.0000
  C   C41       1.0  0.9212098415165714  0.45658874694261486  0.8794508011362419  1.0000
  C   C42       1.0  0.9213354935302352  0.4670081172971172  0.40504325667897545  1.0000
  C   C43       1.0  0.921219618520306  0.6990062181921306  0.636997158575993  1.0000
  C   C44       1.0  0.9213256594905159  0.22458908313018955  0.6474969642881034  1.0000
  O   O2        1.0  0.9851210555385371  0.47151557522710696  0.4586380292287444  1.0000
  O   O3        1.0  0.9850231237622287  0.4576473650897699  0.8362718328422856  1.0000
  O   O4        1.0  0.9850301583850326  0.6534025011867517  0.6404887304401978  1.0000
  O   O5        1.0  0.9851139635725309  0.27576044593248517  0.6544210295674302  1.0000
  O   O6        1.0  0.8574294786461187  0.6478346970007851  0.630072746738225  1.0000
  O   O7        1.0  0.8574224436883519  0.4520811213195719  0.825855779401284  1.0000
  O   O8        1.0  0.8575203759539289  0.4659492864319872  0.448220414361431  1.0000
  O   O9        1.0  0.8575132839601772  0.27019414783336226  0.6440035120733691  1.0000
