data_image0
_chemical_formula_structural       NC12NC2H8C16H10C12NCOH11Zn2C4O8
_chemical_formula_sum              "N3 C47 H29 O9 Zn2"
_cell_length_a       19.240039667572717
_cell_length_b       10.29914801576943
_cell_length_c       10.299148425239203
_cell_angle_alpha    85.5134079146002
_cell_angle_beta     89.98519547309932
_cell_angle_gamma    90.01219802926651

_space_group_name_H-M_alt    "P 1"
_space_group_IT_number       1

loop_
  _space_group_symop_operation_xyz
  'x, y, z'

loop_
  _atom_site_type_symbol
  _atom_site_label
  _atom_site_symmetry_multiplicity
  _atom_site_fract_x
  _atom_site_fract_y
  _atom_site_fract_z
  _atom_site_occupancy
  N   N1        1.0  0.654837404978298  0.42199279949421054  0.5668071877432233  1.0000
  C   C1        1.0  0.5946890361819306  0.4219928835168063  0.5668071057684612  1.0000
  C   C2        1.0  0.5198709990731395  0.4219930008698054  0.5668069684093306  1.0000
  C   C3        1.0  0.4833756257749789  0.35747900942897326  0.6702508552552968  1.0000
  C   C4        1.0  0.4107048530567362  0.35736808259838626  0.6703374458076872  1.0000
  C   C5        1.0  0.3735387641778666  0.4219930935380163  0.5668067406762267  1.0000
  C   C6        1.0  0.4107483536806142  0.4866182913984203  0.46327623002822826  1.0000
  C   C7        1.0  0.4834190174822912  0.48650712899722737  0.46336294317936866  1.0000
  C   C8        1.0  0.29633367374247227  0.4219930149101174  0.5668066452837339  1.0000
  C   C9        1.0  0.2591271565960406  0.30870514023586804  0.6087231990088968  1.0000
  C   C10       1.0  0.1864564930376625  0.30881208771057667  0.6086318266362718  1.0000
  C   C11       1.0  0.1500013867961183  0.4219928857008348  0.5668067062472137  1.0000
  C   C12       1.0  0.0751833495937898  0.42199277184427375  0.5668069549687214  1.0000
  N   N2        1.0  0.0150350327081974  0.4219927309300233  0.566807163418332  1.0000
  C   C13       1.0  0.1864937914271514  0.5351737595472554  0.5249815329349565  1.0000
  C   C14       1.0  0.25916451251382405  0.5352808872261963  0.524889997888065  1.0000
  H   H1        1.0  0.511073628815606  0.3075305903953145  0.7510167437269917  1.0000
  H   H2        1.0  0.38359462002413947  0.30821734882324536  0.7522186185907933  1.0000
  H   H3        1.0  0.38367205593520287  0.5357690522495688  0.3813950063828455  1.0000
  H   H4        1.0  0.5111507858551526  0.536455447644413  0.3825973305606287  1.0000
  H   H5        1.0  0.2862059527815044  0.21952916911767417  0.6399267434784208  1.0000
  H   H6        1.0  0.1587271316658209  0.2205349399291865  0.6408680712647419  1.0000
  H   H7        1.0  0.15879332934639206  0.6234508827836225  0.4927453028672344  1.0000
  H   H8        1.0  0.2862721951607933  0.6244569375464464  0.49368640861388213  1.0000
  C   C15       1.0  0.834890041515965  0.04059133312240104  0.5669727196085264  1.0000
  C   C16       1.0  0.8190391010790904  0.050245960143952884  0.4334893911467832  1.0000
  C   C17       1.0  0.8110534347792043  0.9380113692746789  0.3656458948089958  1.0000
  C   C18       1.0  0.8191319356744615  0.814994314230632  0.43308477248248933  1.0000
  C   C19       1.0  0.8349890596974804  0.8033842096168351  0.566652859775441  1.0000
  C   C20       1.0  0.8427717194693006  0.9166992411778279  0.6327744097581045  1.0000
  C   C21       1.0  0.794285222983602  0.9492704059701899  0.22443663142704917  1.0000
  C   C22       1.0  0.8271800228739549  0.8683209398630741  0.13921296384181425  1.0000
  C   C23       1.0  0.8113740786155242  0.8790427335324434  0.006312248372127183  1.0000
  C   C24       1.0  0.7625110968688216  0.9706150569774206  0.9568308188657988  1.0000
  C   C25       1.0  0.7294897415522256  0.05154537545760318  0.040770455637344494  1.0000
  C   C26       1.0  0.7452461287207017  0.04106483873753408  0.1736921191608669  1.0000
  C   C27       1.0  0.7462645128347808  0.9815294543870641  0.8199970825240985  1.0000
  C   C28       1.0  0.7326581737787421  0.9906701575331001  0.7054008078636351  1.0000
  C   C29       1.0  0.7167253114483354  0.0013737977886831843  0.5712097387946655  1.0000
  C   C30       1.0  0.7031212560316988  0.010513116016672264  0.4566319731939945  1.0000
  H   H9        1.0  0.8409512465419872  0.3643523439328029  0.6183302205444947  1.0000
  H   H10       1.0  0.8138030730681532  0.14532299142448113  0.38157567396176995  1.0000
  H   H11       1.0  0.8121018831482225  0.7281225556159445  0.3816656717855329  1.0000
  H   H12       1.0  0.8549959237066341  0.9085364884590169  0.7357343830399339  1.0000
  H   H13       1.0  0.8644881146242674  0.574164107845124  0.818933872885349  1.0000
  H   H14       1.0  0.8657841965057701  0.7979012695470301  0.17506516278298467  1.0000
  H   H15       1.0  0.8373857047075365  0.816146644098899  0.9421328947901939  1.0000
  H   H16       1.0  0.6914385690987751  0.12252997038224112  0.0035482679662039995  1.0000
  H   H17       1.0  0.7184244016870526  0.10357145674387525  0.23706862929329953  1.0000
  H   H18       1.0  0.6911758002035447  0.01853820943507367  0.3560230337566854  1.0000
  C   C31       1.0  0.8349918506314797  0.4221436306775117  0.1854164976818078  1.0000
  C   C32       1.0  0.9055129766443275  0.45770555378799216  0.18143214156729037  1.0000
  C   C33       1.0  0.9411582357866006  0.47552197125454887  0.06227994241356183  1.0000
  C   C34       1.0  0.9053664146205652  0.45736537439836744  0.9461751292568792  1.0000
  C   C35       1.0  0.8348872490334391  0.42183192737889486  0.9482090172685376  1.0000
  C   C36       1.0  0.8001134466474886  0.4044204127154245  0.06833543166013056  1.0000
  C   C37       1.0  0.015719123968667592  0.5131179513551716  0.059157644177856294  1.0000
  C   C38       1.0  0.06241446956838037  0.4557421168635847  0.975583656509468  1.0000
  C   C39       1.0  0.13254261605376305  0.4912584855201998  0.9727946344621667  1.0000
  C   C40       1.0  0.15761721795904138  0.5835392994001034  0.05426491729362093  1.0000
  C   C41       1.0  0.11085313651088602  0.6427615065627221  0.1362697340139727  1.0000
  C   C42       1.0  0.04069359452003063  0.6073518155448356  0.13915555257217482  1.0000
  N   N3        1.0  0.22980272727700068  0.6197493413026816  0.04771432120830443  1.0000
  C   C43       1.0  0.26978574176985415  0.6564254920573225  0.15642903232757543  1.0000
  O   O1        1.0  0.2462670804344771  0.6422617456405  0.27079515190491854  1.0000
  H   H19       1.0  0.7019971794037265  0.3542583035069624  0.40028996403413575  1.0000
  H   H20       1.0  0.933089867702664  0.46990200464394905  0.27135342665158  1.0000
  H   H21       1.0  0.9323349688614366  0.472758361575325  0.8539357720965408  1.0000
  H   H22       1.0  0.7457519169069649  0.37700904117125256  0.07061931737565041  1.0000
  H   H23       1.0  0.8077811028782741  0.4081285088232418  0.6215181825988365  1.0000
  H   H24       1.0  0.044881987949664914  0.38222609119824313  0.9134416448180507  1.0000
  H   H25       1.0  0.1676547240068107  0.4457166649811921  0.9078588139829744  1.0000
  H   H26       1.0  0.12799149111390085  0.7184422541870743  0.1960042293218922  1.0000
  H   H27       1.0  0.005663843683378689  0.6555601161801885  0.2021976807591368  1.0000
  H   H28       1.0  0.25653264390233255  0.6108092600423147  0.9605349918707442  1.0000
  H   H29       1.0  0.3219769988803245  0.6934684059631493  0.1405896178753263  1.0000
  Zn  Zn1       1.0  0.7587826673386145  0.4219893091499627  0.5668146711408726  1.0000
  Zn  Zn2       1.0  0.9110897862901913  0.42198562255928795  0.5668102841238805  1.0000
  C   C44       1.0  0.8349048047871084  0.41671672455785  0.8040270974137322  1.0000
  C   C45       1.0  0.8349693122259638  0.42725984581837184  0.3295979845914767  1.0000
  C   C46       1.0  0.8349674811571194  0.6592022445721966  0.5615377549592746  1.0000
  C   C47       1.0  0.8349065836721093  0.18477276534134957  0.5720873969454183  1.0000
  O   O2        1.0  0.8927615052824976  0.4289698290903248  0.37798494623862977  1.0000
  O   O3        1.0  0.892710190792048  0.41500296359560496  0.7556364326602265  1.0000
  O   O4        1.0  0.8927600233999247  0.6108130871221458  0.5598245724320292  1.0000
  O   O5        1.0  0.8927116207170777  0.23315971489584952  0.5737967090827729  1.0000
  O   O6        1.0  0.7771607809367844  0.6108152168160756  0.5598282461766453  1.0000
  O   O7        1.0  0.7771109485378083  0.41500665375488355  0.7556400365000235  1.0000
  O   O8        1.0  0.7771622632827195  0.4289734746278697  0.3779869885846878  1.0000
  O   O9        1.0  0.7771123786998995  0.2331633511040032  0.5737988488075503  1.0000
