data_image0
_chemical_formula_structural       NC11NC3H8C16H10C12ClH9Zn2C4O8
_chemical_formula_sum              "N2 C46 H27 Cl1 Zn2 O8"
_cell_length_a       17.807433833752565
_cell_length_b       10.29914801576943
_cell_length_c       10.299771906710086
_cell_angle_alpha    85.52082016499398
_cell_angle_beta     88.53397753802528
_cell_angle_gamma    90.69784511463686

_space_group_name_H-M_alt    "P 1"
_space_group_IT_number       1

loop_
  _space_group_symop_operation_xyz
  'x, y, z'

loop_
  _atom_site_type_symbol
  _atom_site_label
  _atom_site_symmetry_multiplicity
  _atom_site_fract_x
  _atom_site_fract_y
  _atom_site_fract_z
  _atom_site_occupancy
  N   N1        1.0  0.7074755307774735  0.4390089436850546  0.5340762825981304  1.0000
  C   C1        1.0  0.6566575115404182  0.4042606680068441  0.6006522794806435  1.0000
  C   C2        1.0  0.5934347695786896  0.3610366781501957  0.6834643242202112  1.0000
  C   C3        1.0  0.6051646405326203  0.29744677414603804  0.8062077090353583  1.0000
  C   C4        1.0  0.5438493103528153  0.25590334074790366  0.8867351552424687  1.0000
  C   C5        1.0  0.4706497785655117  0.27763633714387437  0.8451601349953937  1.0000
  C   C6        1.0  0.4579430922201319  0.3413809342172771  0.7219564940251229  1.0000
  C   C7        1.0  0.3801752636363042  0.364444939803249  0.6776003028088473  1.0000
  C   C8        1.0  0.3613769963890571  0.3476073846791299  0.5480281980778592  1.0000
  C   C9        1.0  0.2881475124499153  0.3693016620488494  0.5064091227121545  1.0000
  C   C10       1.0  0.23277318872875521  0.4081522780673197  0.5935417549553279  1.0000
  C   C11       1.0  0.15740694648017012  0.4305054565033961  0.5505611276423041  1.0000
  N   N2        1.0  0.09681786121874102  0.4484757513262132  0.5160078314180923  1.0000
  C   C12       1.0  0.2508798715807903  0.42520057628721797  0.722582644190481  1.0000
  C   C13       1.0  0.32405661317392337  0.403471294729973  0.7644571606946182  1.0000
  C   C14       1.0  0.5201157352043028  0.38291979771703044  0.6414454653620285  1.0000
  H   H1        1.0  0.6616311556382767  0.2800215078914001  0.8395800896466961  1.0000
  H   H2        1.0  0.5530494631126508  0.20642043036679225  0.9814907212486876  1.0000
  H   H3        1.0  0.424011689829083  0.24305967401989603  0.9086128090937473  1.0000
  H   H4        1.0  0.40304437028029566  0.31598202366778727  0.4793254179290609  1.0000
  H   H5        1.0  0.2746945706101024  0.3554476425137987  0.40638132884978706  1.0000
  H   H6        1.0  0.2084954934586749  0.4556029506647543  0.7907711650607281  1.0000
  H   H7        1.0  0.3369813223126981  0.4188709050451396  0.864301565170148  1.0000
  H   H8        1.0  0.5116142735718116  0.43376511050645505  0.5469236515937528  1.0000
  C   C15       1.0  0.902096804846983  0.06233971093476409  0.5252098978794328  1.0000
  C   C16       1.0  0.8849310242071688  0.0715596187963623  0.39253262968189384  1.0000
  C   C17       1.0  0.8762828005980882  0.9591059366904083  0.3250952733399912  1.0000
  C   C18       1.0  0.8850312724392968  0.8363103578746299  0.39212338734628815  1.0000
  C   C19       1.0  0.9022037575031396  0.8251351464451309  0.5248850972461307  1.0000
  C   C20       1.0  0.9106321321337085  0.9386637000150465  0.5906108316419985  1.0000
  C   C21       1.0  0.8581236603192061  0.969905097450913  0.1847387159006506  1.0000
  C   C22       1.0  0.893659458993044  0.8898086167519869  0.09787194302137014  1.0000
  C   C23       1.0  0.8765424562567683  0.9000969529506989  0.9657749829581714  1.0000
  C   C24       1.0  0.8237138535910984  0.9903783246038279  0.9187487002411054  1.0000
  C   C25       1.0  0.7880409488714323  0.07045215720653286  0.004337895853397278  1.0000
  C   C26       1.0  0.8051043897732406  0.06040377832248245  0.13645828816515237  1.0000
  C   C27       1.0  0.8061196060936571  0.0008471496214839114  0.7827411451638184  1.0000
  C   C28       1.0  0.7913846135315583  0.009614690759247368  0.668836788368032  1.0000
  C   C29       1.0  0.7741301112313199  0.019881362685450377  0.5354559469615219  1.0000
  C   C30       1.0  0.7593975915625563  0.028647581437022618  0.4215699831558495  1.0000
  H   H9        1.0  0.9086608648594494  0.38626699578812596  0.5762591454486097  1.0000
  H   H10       1.0  0.879258774187155  0.1664919881470226  0.3408858184347734  1.0000
  H   H11       1.0  0.8774199576742407  0.7492468532409395  0.34106114494377193  1.0000
  H   H12       1.0  0.9238703420811433  0.9308362040272032  0.6929491718616576  1.0000
  H   H13       1.0  0.9341507027478224  0.5967245940908813  0.7756656924405338  1.0000
  H   H14       1.0  0.9353958854122261  0.8204084223658723  0.13178472000486186  1.0000
  H   H15       1.0  0.9046432341308576  0.8378757992771985  0.9002960776006166  1.0000
  H   H16       1.0  0.7469019371734155  0.14043162442660484  0.9690275024233181  1.0000
  H   H17       1.0  0.7761277690374244  0.12221406021449388  0.20117505259590818  1.0000
  H   H18       1.0  0.7464612531700513  0.036345063419999324  0.3215685014227603  1.0000
  C   C31       1.0  0.9021145429769222  0.44384289254493603  0.14367983002582996  1.0000
  C   C32       1.0  0.9702659411673512  0.5143889297206399  0.13416049851733614  1.0000
  C   C33       1.0  0.00483542866652531  0.5500279015917311  0.012204984852101974  1.0000
  C   C34       1.0  0.97033838081626  0.5141755101547894  0.8988874507148044  1.0000
  C   C35       1.0  0.9021860170607895  0.44363200961449056  0.9064151699988026  1.0000
  C   C36       1.0  0.8684560939930461  0.4088599222766307  0.029261494096602947  1.0000
  C   C37       1.0  0.07693442393672267  0.624658342625118  0.0031880507805031044  1.0000
  C   C38       1.0  0.08882232807961965  0.7279614966402521  0.0823952647950077  1.0000
  C   C39       1.0  0.1567174286999613  0.798105648814893  0.07371941730461584  1.0000
  C   C40       1.0  0.21349507678703916  0.7660124637117713  0.9861104644996392  1.0000
  C   C41       1.0  0.20232449693355958  0.6635862930248064  0.9069983958219501  1.0000
  C   C42       1.0  0.13449670599873276  0.5932434381930076  0.9152955723991787  1.0000
  Cl  Cl1       1.0  0.298634717039685  0.854140356697199  0.9754636340633356  1.0000
  H   H19       1.0  0.8761256352783487  0.41701814854422214  0.474757005713895  1.0000
  H   H20       1.0  0.9971482178402794  0.5402442762953394  0.22188318987460431  1.0000
  H   H21       1.0  0.9962314694357127  0.5429486392886662  0.8045644431988705  1.0000
  H   H22       1.0  0.8158799709767245  0.3544380108460148  0.035837038386276054  1.0000
  H   H23       1.0  0.8762311423440116  0.41670611488430165  0.5818330565195708  1.0000
  H   H24       1.0  0.04527424607445241  0.755558259128231  0.14977815428758956  1.0000
  H   H25       1.0  0.1650354218532546  0.8775887617484008  0.13493377069064927  1.0000
  H   H26       1.0  0.24621571997207425  0.638145208017971  0.8392551063875313  1.0000
  H   H27       1.0  0.1274255764393626  0.5132503175758409  0.8542431165005011  1.0000
  Zn  Zn1       1.0  0.81983131709856  0.44173738285957165  0.5288696038614684  1.0000
  Zn  Zn2       1.0  0.9844620596399708  0.4457366886913001  0.5212251006559463  1.0000
  C   C43       1.0  0.9021701124593368  0.43849766770348664  0.7622441131447788  1.0000
  C   C44       1.0  0.90212506228352  0.4489780862492505  0.28785063466307736  1.0000
  C   C45       1.0  0.9021791954977171  0.6809519199503797  0.5197714939479443  1.0000
  C   C46       1.0  0.9021159228558556  0.20652227217765518  0.5303233263713447  1.0000
  O   O1        1.0  0.964605100678519  0.4522135536439915  0.33333462700197813  1.0000
  O   O2        1.0  0.9646409981847612  0.4382966011914293  0.7109577463270926  1.0000
  O   O3        1.0  0.9646474907664597  0.6340814553003675  0.5151594293246506  1.0000
  O   O4        1.0  0.964598551911677  0.25642870748833335  0.5291328492346692  1.0000
  O   O5        1.0  0.8396947686464608  0.6310453626991877  0.5209618578846069  1.0000
  O   O6        1.0  0.8396882762736533  0.4352620690516007  0.7167601049774788  1.0000
  O   O7        1.0  0.8396523786646951  0.44917897667716233  0.33913542427379495  1.0000
  O   O8        1.0  0.8396458299026036  0.25339412120487315  0.5349337438780992  1.0000
