data_image0
_chemical_formula_structural       NC12NC2H8C13OH12C12ClH9Zn2C4O8
_chemical_formula_sum              "N2 C43 H29 O9 Cl1 Zn2"
_cell_length_a       17.80743265337812
_cell_length_b       10.299150109392551
_cell_length_c       10.299771906710086
_cell_angle_alpha    85.52403423523229
_cell_angle_beta     91.54320236892109
_cell_angle_gamma    89.41750150667457

_space_group_name_H-M_alt    "P 1"
_space_group_IT_number       1

loop_
  _space_group_symop_operation_xyz
  'x, y, z'

loop_
  _atom_site_type_symbol
  _atom_site_label
  _atom_site_symmetry_multiplicity
  _atom_site_fract_x
  _atom_site_fract_y
  _atom_site_fract_z
  _atom_site_occupancy
  N   N1        1.0  0.7070192131352274  0.40715733094414497  0.6008553832746952  1.0000
  C   C1        1.0  0.6561869622011867  0.43673602774074105  0.5321470364167435  1.0000
  C   C2        1.0  0.5929466285281073  0.4735297785808317  0.4466825015870486  1.0000
  C   C3        1.0  0.6046504695293211  0.5275870957508231  0.320045199102303  1.0000
  C   C4        1.0  0.5433180114636588  0.562876522375289  0.23697714637355638  1.0000
  C   C5        1.0  0.4701272936464745  0.5443722856956497  0.2798864088181827  1.0000
  C   C6        1.0  0.45744674877464486  0.4901960370557039  0.4069918905574246  1.0000
  C   C7        1.0  0.5196365206600801  0.4549098687844586  0.4900434306281758  1.0000
  C   C8        1.0  0.3796883208435646  0.4705768551590739  0.45276180588332937  1.0000
  C   C9        1.0  0.3609104375466635  0.4977335145034143  0.5797954984114084  1.0000
  C   C10       1.0  0.2876897701279552  0.47927084445759616  0.6227453089492445  1.0000
  C   C11       1.0  0.2323041513788018  0.4333970106869316  0.5394994755525071  1.0000
  C   C12       1.0  0.15694712837118244  0.4143811153357926  0.5838503917757387  1.0000
  N   N2        1.0  0.0963654183714194  0.3990936143999706  0.6195054773825952  1.0000
  C   C13       1.0  0.25039062984495575  0.40607128784972035  0.4130088059230672  1.0000
  C   C14       1.0  0.3235584127087979  0.42454880897563485  0.3698031057058466  1.0000
  H   H1        1.0  0.6611097542676881  0.5424207820602862  0.2856033915898528  1.0000
  H   H2        1.0  0.5524979383270873  0.605001750474865  0.1391844101043891  1.0000
  H   H3        1.0  0.4234755042780678  0.5740268164716276  0.21428595128570915  1.0000
  H   H4        1.0  0.5111552289818941  0.4113992453306361  0.5877122040618667  1.0000
  H   H5        1.0  0.4025865856013371  0.5348994760090511  0.6453550525987062  1.0000
  H   H6        1.0  0.2742524677612001  0.5010936328700801  0.720745657684329  1.0000
  H   H7        1.0  0.20799740340380882  0.3701726126194207  0.3478617617295858  1.0000
  H   H8        1.0  0.3364676463176814  0.40119026622839193  0.27210662333081603  1.0000
  C   C15       1.0  0.9017667327160986  0.02172425621725904  0.6103281008318744  1.0000
  C   C16       1.0  0.9003957236326746  0.00990870153956891  0.7470727880950605  1.0000
  C   C17       1.0  0.8996351995240186  0.886784795547075  0.816138420956126  1.0000
  C   C18       1.0  0.9002508434451422  0.7746564630138328  0.7467024541910354  1.0000
  C   C19       1.0  0.9016250932193243  0.7845165192720978  0.6100443208979998  1.0000
  C   C20       1.0  0.9023770730912701  0.908510722233008  0.542655862741944  1.0000
  C   C21       1.0  0.898178268605349  0.8752671908297934  0.9607083590607419  1.0000
  C   C22       1.0  0.851988922253504  0.7833237979674266  0.02651707291751626  1.0000
  C   C23       1.0  0.8505930619014225  0.7725676682301795  0.16255604794406053  1.0000
  C   C24       1.0  0.8958540641864293  0.8525858953756204  0.23526919471940433  1.0000
  C   C25       1.0  0.9413247154217322  0.9454976208319124  0.17006862455408178  1.0000
  C   C26       1.0  0.942738014758408  0.9564291865083316  0.03403019615888958  1.0000
  C   C27       1.0  0.8927744475502367  0.8434147575636889  0.38120755499759607  1.0000
  O   O1        1.0  0.8366271530382661  0.9277413277227852  0.4187585945691883  1.0000
  H   H9        1.0  0.903866492903113  0.25132961395626396  0.35219271592966805  1.0000
  H   H10       1.0  0.8988746851003006  0.09669684384331934  0.8000083633151462  1.0000
  H   H11       1.0  0.9006844315369714  0.6795081997232605  0.7995565956913919  1.0000
  H   H12       1.0  0.9034349472385236  0.9168323312568127  0.4372472535687042  1.0000
  H   H13       1.0  0.9021031122255639  0.4608346219802733  0.5574783878257992  1.0000
  H   H14       1.0  0.8160558000094192  0.7210759899374931  0.9726872892760601  1.0000
  H   H15       1.0  0.8140522860805897  0.7019787653648885  0.21118113588248122  1.0000
  H   H16       1.0  0.975874077757473  0.009326819828182398  0.22457832852608428  1.0000
  H   H17       1.0  0.9793040376486422  0.027462742144655827  0.9862129586655386  1.0000
  H   H18       1.0  0.9480392879106484  0.8700865416547918  0.42402469066755477  1.0000
  H   H19       1.0  0.8805691011456813  0.7416341779649459  0.41843538730984664  1.0000
  H   H20       1.0  0.8369144684103336  0.9180273006721061  0.5153987772973079  1.0000
  C   C28       1.0  0.9016601355190866  0.40322747838796014  0.2288151793411548  1.0000
  C   C29       1.0  0.9697897625235635  0.47070508733740013  0.22572594401324708  1.0000
  C   C30       1.0  0.00434825400479677  0.504787612594148  0.10703206157081424  1.0000
  C   C31       1.0  0.969862273025268  0.4704884056359646  0.9904597192065983  1.0000
  C   C32       1.0  0.9017316796117434  0.40301337680302174  0.9915572513522042  1.0000
  C   C33       1.0  0.8680124850707415  0.3697599357761452  0.11122115718778969  1.0000
  C   C34       1.0  0.07642421763557916  0.5761718899635255  0.1048176800684717  1.0000
  C   C35       1.0  0.08827866715291077  0.6789400067059923  0.1851502106895  1.0000
  C   C36       1.0  0.15615212297577696  0.7460272698192696  0.18288027212005642  1.0000
  C   C37       1.0  0.21294124732810005  0.7113775449341599  0.10062461475364848  1.0000
  C   C38       1.0  0.20180384912860028  0.6094541152207693  0.020454914593313944  1.0000
  C   C39       1.0  0.13399776895579163  0.5421651183287473  0.022352522044832623  1.0000
  Cl  Cl1       1.0  0.2980536905220388  0.7956721361421191  0.09801072393430488  1.0000
  H   H21       1.0  0.8756795048567008  0.37757285138651464  0.5574403002395334  1.0000
  H   H22       1.0  0.9966640940950194  0.4953500899677754  0.31598490285138436  1.0000
  H   H23       1.0  0.9957464478946885  0.49809573640449556  0.8985798089817996  1.0000
  H   H24       1.0  0.8154531571526428  0.31770519603109193  0.11283613526161695  1.0000
  H   H25       1.0  0.8757851155066386  0.37725606648126875  0.6645262885695304  1.0000
  H   H26       1.0  0.04472081122738181  0.708497624921836  0.24842727877837656  1.0000
  H   H27       1.0  0.1644443607591728  0.8251360318171517  0.24488230415063583  1.0000
  H   H28       1.0  0.24570414967595866  0.5820367289672501  0.9568498950045492  1.0000
  H   H29       1.0  0.1269525833118108  0.462490206271454  0.9606299562624101  1.0000
  Zn  Zn1       1.0  0.8193761223103828  0.4048268468603178  0.6062448858338816  1.0000
  Zn  Zn2       1.0  0.9840085096633306  0.40141350115535834  0.6141265718746398  1.0000
  C   C40       1.0  0.9017174480580704  0.39787973971765367  0.8473844863185866  1.0000
  C   C41       1.0  0.9016689814038563  0.4083622097466846  0.37298718431514355  1.0000
  C   C42       1.0  0.9016475130301833  0.6403341163468439  0.6049225575077486  1.0000
  C   C43       1.0  0.9017388605504636  0.165906273828339  0.6154491802560971  1.0000
  O   O2        1.0  0.9641490842272799  0.4087844593705172  0.42436368709681926  1.0000
  O   O3        1.0  0.9641895180482616  0.39486585998284873  0.8019896273884908  1.0000
  O   O4        1.0  0.9641322025338387  0.5906508524477951  0.606199863591427  1.0000
  O   O5        1.0  0.9642063435529608  0.21299947738865854  0.6201533508257355  1.0000
  O   O6        1.0  0.8391782322397979  0.5932408717932409  0.6002181041863215  1.0000
  O   O7        1.0  0.8392355474545458  0.39745743978367254  0.7960077981568063  1.0000
  O   O8        1.0  0.8391951135454557  0.41137599434886685  0.41838029647506025  1.0000
  O   O9        1.0  0.8392523728789237  0.21559100305014378  0.6141700575756601  1.0000
