data_image0
_chemical_formula_structural       NC8NC6H8C12SCH12C12ClH9Zn2C4O8
_chemical_formula_sum              "N2 C43 H29 S1 Cl1 Zn2 O8"
_cell_length_a       17.457602349358154
_cell_length_b       10.299776766347529
_cell_length_c       10.299771906710086
_cell_angle_alpha    85.54586025256013
_cell_angle_beta     92.8856013609098
_cell_angle_gamma    91.66964631390691

_space_group_name_H-M_alt    "P 1"
_space_group_IT_number       1

loop_
  _space_group_symop_operation_xyz
  'x, y, z'

loop_
  _atom_site_type_symbol
  _atom_site_label
  _atom_site_symmetry_multiplicity
  _atom_site_fract_x
  _atom_site_fract_y
  _atom_site_fract_z
  _atom_site_occupancy
  N   N1        1.0  0.7220177737850239  0.4531773706306801  0.626497381902001  1.0000
  C   C1        1.0  0.6609475352525598  0.4072562031659124  0.615881397486753  1.0000
  C   C2        1.0  0.5849735753154492  0.35013598244100685  0.6026846549468512  1.0000
  C   C3        1.0  0.5264445053299481  0.39027613825716734  0.6775832025060584  1.0000
  C   C4        1.0  0.45190828520092985  0.3352739589595801  0.665000911243294  1.0000
  C   C5        1.0  0.3897883171014739  0.37765598562877023  0.7443213133158899  1.0000
  C   C6        1.0  0.31523280642573626  0.39613937298493296  0.6885573213721328  1.0000
  C   C7        1.0  0.2567037788316909  0.4360955779036868  0.7635638230421995  1.0000
  C   C8        1.0  0.1807097856088359  0.4551854167798417  0.7055843505396946  1.0000
  N   N2        1.0  0.1196235327896233  0.47052726765175557  0.6589690056752227  1.0000
  C   C9        1.0  0.272238101817277  0.4578113903301264  0.8948428400540569  1.0000
  C   C10       1.0  0.3460088718364936  0.43971687297829853  0.9509944352273829  1.0000
  C   C11       1.0  0.4045263042176799  0.3999405913459433  0.8764456599555976  1.0000
  C   C12       1.0  0.4371897720823361  0.23945461736374551  0.5760871364139803  1.0000
  C   C13       1.0  0.49570710938837337  0.19959302409572932  0.5015885970315537  1.0000
  C   C14       1.0  0.5694585952415079  0.25470742407760194  0.5147208438513968  1.0000
  H   H1        1.0  0.5387806665315766  0.46545021383838203  0.7442148213011766  1.0000
  H   H2        1.0  0.3028808684825287  0.3811976960171293  0.5865317930281302  1.0000
  H   H3        1.0  0.2273769097182582  0.48867712996537427  0.9536793564051156  1.0000
  H   H4        1.0  0.3578467675089306  0.4562162760378987  0.05264670470087118  1.0000
  H   H5        1.0  0.4610191806060788  0.38493638250333295  0.9225525120419051  1.0000
  H   H6        1.0  0.3807126962575446  0.1941231137893047  0.5654350367653225  1.0000
  H   H7        1.0  0.4838844313661709  0.12553571476256709  0.4337586491014567  1.0000
  H   H8        1.0  0.6143200452048292  0.222971866042051  0.4563954544891411  1.0000
  C   C15       1.0  0.92089665842056  0.08049048311472129  0.6427378069497223  1.0000
  C   C16       1.0  0.9255199524234045  0.06909162441979388  0.7796285948712474  1.0000
  C   C17       1.0  0.9277887471123158  0.946173886289269  0.8489915728547022  1.0000
  C   C18       1.0  0.9253732530667599  0.8337974423623339  0.779631804497773  1.0000
  C   C19       1.0  0.9207520080170679  0.8432044431675767  0.642740434531571  1.0000
  C   C20       1.0  0.9185391476607527  0.9669907044384262  0.5750596801591676  1.0000
  C   C21       1.0  0.9326712156670691  0.9351787171509376  0.993805890474357  1.0000
  C   C22       1.0  0.8887695496958853  0.839781539846678  0.0642628540086192  1.0000
  C   C23       1.0  0.8933875652374713  0.829669261196865  0.20054862481646907  1.0000
  C   C24       1.0  0.941716134039541  0.9146667382078714  0.2681684876073236  1.0000
  C   C25       1.0  0.9858010169210224  0.009497732967044925  0.19909954499066507  1.0000
  C   C26       1.0  0.9812954984360962  0.01996481224790725  0.06281254662900959  1.0000
  S   S1        1.0  0.9477262865087779  0.9012344475078523  0.4430487912778869  1.0000
  C   C27       1.0  0.8706338265939139  0.013926719228011475  0.4562814298068174  1.0000
  H   H9        1.0  0.9191651566933706  0.41228876474259946  0.5905786677601199  1.0000
  H   H10       1.0  0.9263092125675174  0.15594207952197325  0.8326511191729054  1.0000
  H   H11       1.0  0.9281629116668197  0.7388904347002847  0.8326215617312733  1.0000
  H   H12       1.0  0.9149729974689359  0.9750159738490304  0.46945430069148464  1.0000
  H   H13       1.0  0.9189528014918297  0.5193334949577074  0.5905804317744887  1.0000
  H   H14       1.0  0.8501441164007899  0.7741454097557963  0.013994503168906158  1.0000
  H   H15       1.0  0.8590918041273194  0.7560946126915677  0.25346898103805593  1.0000
  H   H16       1.0  0.023610067991869377  0.07515366339505736  0.2508901502024612  1.0000
  H   H17       1.0  0.016559700475575534  0.09321236704398772  0.01138431659341721  1.0000
  H   H18       1.0  0.8859876091372624  0.11094029557358831  0.40865792717678084  1.0000
  H   H19       1.0  0.861753958028774  0.02418870249530758  0.5608349812078323  1.0000
  H   H20       1.0  0.8166440041815919  0.9760502982247625  0.40975031686157404  1.0000
  C   C28       1.0  0.920787784537012  0.46195218809215843  0.2613668589216618  1.0000
  C   C29       1.0  0.9903627022225512  0.533870540506495  0.2607225065026064  1.0000
  C   C30       1.0  0.025654311853457346  0.5702056289766837  0.14326872603213658  1.0000
  C   C31       1.0  0.990436750961696  0.5336586112318571  0.025458773565203652  1.0000
  C   C32       1.0  0.9208608463657248  0.46174277562227073  0.024111389473105094  1.0000
  C   C33       1.0  0.8864263383821308  0.4262914776239115  0.1425653113056471  1.0000
  C   C34       1.0  0.0992592831003023  0.6462878753541601  0.1436408439705179  1.0000
  C   C35       1.0  0.11136520729455945  0.749820428631023  0.2244335585654349  1.0000
  C   C36       1.0  0.1806785194307483  0.8213317501437936  0.22459925780940204  1.0000
  C   C37       1.0  0.23867236256601898  0.7903918197206923  0.1443467930864195  1.0000
  C   C38       1.0  0.22729870109268635  0.6877506792662211  0.06374269226486962  1.0000
  C   C39       1.0  0.15805419391329267  0.6160420398929718  0.06320697715832901  1.0000
  Cl  Cl1       1.0  0.325590367105415  0.8802341082066856  0.14478722504619523  1.0000
  H   H21       1.0  0.8942560050536585  0.43460411583996406  0.5890596749046764  1.0000
  H   H22       1.0  0.017807141515020275  0.5602674121694315  0.3519451174621293  1.0000
  H   H23       1.0  0.016870028372390822  0.5629529146403258  0.9345084894234215  1.0000
  H   H24       1.0  0.8327520255420944  0.3708108787923372  0.14229415896893904  1.0000
  H   H25       1.0  0.8943638561274733  0.4342942528934992  0.6961492921565289  1.0000
  H   H26       1.0  0.0668833192662861  0.7765323254247478  0.28617529571738354  1.0000
  H   H27       1.0  0.18914666452814566  0.9009745845164181  0.2869259497571801  1.0000
  H   H28       1.0  0.27213029823411716  0.6632011720941007  0.001685980616863425  1.0000
  H   H29       1.0  0.15085955578637056  0.5359145024875756  0.0012038146641513148  1.0000
  Zn  Zn1       1.0  0.836758208487891  0.4581806914344153  0.6358754896194805  1.0000
  Zn  Zn2       1.0  0.004883086875152376  0.4655132963022599  0.6496015305418363  1.0000
  C   C40       1.0  0.9208463131121638  0.4566086746809157  0.8799361577395843  1.0000
  C   C41       1.0  0.9207968178707189  0.46708703168233834  0.4055411397828308  1.0000
  C   C42       1.0  0.9207748847380022  0.6990365232051337  0.6375643786828167  1.0000
  C   C43       1.0  0.9208681891782051  0.2246576203628179  0.6479129833897705  1.0000
  O   O1        1.0  0.9846023657725179  0.4715873517934235  0.4591363064649927  1.0000
  O   O2        1.0  0.9846436579114368  0.4576726523975807  0.8367583646658752  1.0000
  O   O3        1.0  0.9845851186369133  0.6534361681167453  0.6410413680412927  1.0000
  O   O4        1.0  0.9846608476663179  0.27582384288892836  0.6548532010303194  1.0000
  O   O5        1.0  0.8569803903239548  0.6478701423469047  0.6306238144401424  1.0000
  O   O6        1.0  0.8570389292923828  0.45210818692219945  0.8263407418236979  1.0000
  O   O7        1.0  0.8569976370634887  0.46602284149387785  0.44871712221248683  1.0000
  O   O8        1.0  0.8570561189652415  0.2702593232738697  0.644434114146214  1.0000
