data_image0
_chemical_formula_structural       NC10NC3NH7C16H10C12ClH9Zn2C4O8
_chemical_formula_sum              "N3 C45 H26 Cl1 Zn2 O8"
_cell_length_a       19.210446455230148
_cell_length_b       10.29914801576943
_cell_length_c       10.299771906710086
_cell_angle_alpha    85.52082016499398
_cell_angle_beta     89.99986541556282
_cell_angle_gamma    89.9607823085547

_space_group_name_H-M_alt    "P 1"
_space_group_IT_number       1

loop_
  _space_group_symop_operation_xyz
  'x, y, z'

loop_
  _atom_site_type_symbol
  _atom_site_label
  _atom_site_symmetry_multiplicity
  _atom_site_fract_x
  _atom_site_fract_y
  _atom_site_fract_z
  _atom_site_occupancy
  N   N1        1.0  0.655525031287179  0.4207182948318644  0.5667953825593619  1.0000
  C   C1        1.0  0.5952966096779622  0.4229258919889427  0.5670257089395396  1.0000
  C   C2        1.0  0.5204923284536995  0.42566290827585607  0.5673110538117976  1.0000
  C   C3        1.0  0.48488841852302206  0.541896820627429  0.5823795557508118  1.0000
  C   C4        1.0  0.4122229401253239  0.5420483842270296  0.5823269022139155  1.0000
  C   C5        1.0  0.3753256155940829  0.4263718976187336  0.5673972729778518  1.0000
  C   C6        1.0  0.2980034097597274  0.42501537423726066  0.567247186025728  1.0000
  C   C7        1.0  0.2602470169651513  0.5286123432813916  0.5038471293701849  1.0000
  C   C8        1.0  0.1874685874387065  0.5272100489771976  0.50373857702584  1.0000
  C   C9        1.0  0.1514451456587929  0.4224683286445834  0.5669789889462586  1.0000
  C   C10       1.0  0.0765155529810867  0.4211661988560671  0.5668426450002462  1.0000
  N   N2        1.0  0.016277642276029  0.42011924228367614  0.5667330593598519  1.0000
  C   C11       1.0  0.1884778838633374  0.31899706837857633  0.630353990487744  1.0000
  C   C12       1.0  0.2612581555294065  0.3201250604881041  0.6305128904965438  1.0000
  C   C13       1.0  0.4135394994833466  0.31195827871762627  0.5526162574971385  1.0000
  N   N3        1.0  0.4843095728529945  0.31440337125093953  0.5527809102463908  1.0000
  H   H1        1.0  0.5129946355363187  0.6313329032713562  0.5943946705847964  1.0000
  H   H2        1.0  0.3849595172800817  0.6320659456521351  0.5957365183750682  1.0000
  H   H3        1.0  0.2869721483128526  0.6098868733650142  0.4528264843818113  1.0000
  H   H4        1.0  0.1593201374346452  0.6076564103567272  0.4540486279636604  1.0000
  H   H5        1.0  0.1611129491327875  0.23758727431153992  0.6799448136408508  1.0000
  H   H6        1.0  0.2887618972816553  0.23979745346735926  0.6816405156686607  1.0000
  H   H7        1.0  0.3872686857180492  0.22107775128818719  0.5391607154669857  1.0000
  C   C14       1.0  0.8358551080509138  0.03901744016886366  0.56692977969649  1.0000
  C   C15       1.0  0.819949824544335  0.048681141847088716  0.4334586340173525  1.0000
  C   C16       1.0  0.8119366469780509  0.9364510457371957  0.36562131742178305  1.0000
  C   C17       1.0  0.8200427114678303  0.8134292891675751  0.433054027929624  1.0000
  C   C18       1.0  0.8359542070871678  0.8018101105892839  0.566609925375104  1.0000
  C   C19       1.0  0.8437636793629539  0.91512076200702  0.632725452520051  1.0000
  C   C20       1.0  0.7951109470328088  0.9477196820397761  0.2244249419249309  1.0000
  C   C21       1.0  0.8280373233159335  0.8667044800749047  0.1392016171911059  1.0000
  C   C22       1.0  0.8121772359120498  0.8774353490155256  0.006313035511044118  1.0000
  C   C23       1.0  0.7632278801976347  0.9690825197369288  0.9568435526319452  1.0000
  C   C24       1.0  0.7301744656763359  0.05007861826321047  0.04078295926263453  1.0000
  C   C25       1.0  0.7459849243345069  0.039589091392856046  0.1736924960808217  1.0000
  C   C26       1.0  0.7469255925007584  0.980006215896853  0.8200223044761441  1.0000
  C   C27       1.0  0.7332726023405598  0.9891547067114369  0.705436488501074  1.0000
  C   C28       1.0  0.7172851120767217  0.999867466210963  0.5712576664422544  1.0000
  C   C29       1.0  0.703634413223304  0.009014570706651348  0.45669035782287093  1.0000
  H   H8        1.0  0.841937163836383  0.36277502174413856  0.6182825997941246  1.0000
  H   H9        1.0  0.8146940924234629  0.14376015815415988  0.38154949438241315  1.0000
  H   H10       1.0  0.8129903016918811  0.726562562909422  0.3816397798989273  1.0000
  H   H11       1.0  0.8560297968644903  0.9069510132640503  0.735676029199821  1.0000
  H   H12       1.0  0.8655552623463321  0.5725736210372342  0.818867992580119  1.0000
  H   H13       1.0  0.8667090102422407  0.7962252571050293  0.17504460695034285  1.0000
  H   H14       1.0  0.8382145509763081  0.8144876946529741  0.9421337258571603  1.0000
  H   H15       1.0  0.6920563248258245  0.12112166886447584  0.003569982099977498  1.0000
  H   H16       1.0  0.7191360802570752  0.10214851749095533  0.23706915910997606  1.0000
  H   H17       1.0  0.6916480006046664  0.017046501038284534  0.35609060048789276  1.0000
  C   C30       1.0  0.8358715436556485  0.42052016318804286  0.18540053219019503  1.0000
  C   C31       1.0  0.899018529646741  0.4893042549127362  0.17903304454468194  1.0000
  C   C32       1.0  0.9310495517650251  0.524049487948524  0.058676289377641355  1.0000
  C   C33       1.0  0.899085649993738  0.489088962535567  0.9437633469076494  1.0000
  C   C34       1.0  0.8359377693398241  0.4203074324094205  0.9481391776735251  1.0000
  C   C35       1.0  0.8046846617588481  0.386407378310645  0.06942557117793058  1.0000
  C   C36       1.0  0.9978542595947523  0.5968159247191693  0.052993766364411776  1.0000
  C   C37       1.0  0.008869225337309938  0.6998117359771068  0.13275076833208144  1.0000
  C   C38       1.0  0.07177873389583955  0.7682005688646847  0.12721491153738662  1.0000
  C   C39       1.0  0.12438715343763218  0.734639488437  0.042231793072268875  1.0000
  C   C40       1.0  0.11403683828270261  0.6325021152344681  0.9626031110235851  1.0000
  C   C41       1.0  0.05118969680513019  0.5639128395054176  0.9677634098217238  1.0000
  Cl  Cl1       1.0  0.20327492115881673  0.8205662321308951  0.03552247323372115  1.0000
  H   H18       1.0  0.811791022434646  0.3943673208491014  0.5152757812647157  1.0000
  H   H19       1.0  0.923926819036943  0.5144646031990019  0.26799897875542467  1.0000
  H   H20       1.0  0.9230773882079704  0.5171926672567824  0.8506378345954198  1.0000
  H   H21       1.0  0.7559692459092598  0.3333447384905919  0.07356959190288781  1.0000
  H   H22       1.0  0.8118887820312836  0.3940525594726656  0.6223567115271043  1.0000
  H   H23       1.0  0.9685189141575544  0.7285343645078461  0.1981196601862132  1.0000
  H   H24       1.0  0.07948593009535565  0.8474686333826482  0.18881395278557211  1.0000
  H   H25       1.0  0.15470509337265104  0.6059262928220126  0.8968896887033542  1.0000
  H   H26       1.0  0.044637805999029556  0.48410253163885364  0.9063839306058745  1.0000
  Zn  Zn1       1.0  0.7596304414947752  0.42054195476692846  0.5667848979579555  1.0000
  Zn  Zn2       1.0  0.9121722156769759  0.42028499593469637  0.5667541841876449  1.0000
  C   C42       1.0  0.8359230326260988  0.41517350168646083  0.8039673852686278  1.0000
  C   C43       1.0  0.8358812905210686  0.4256550849325018  0.32957182332093793  1.0000
  C   C44       1.0  0.8359314486896365  0.6576275191059173  0.5614951861412198  1.0000
  C   C45       1.0  0.8358728222089575  0.18319950714619826  0.572044092351905  1.0000
  O   O1        1.0  0.8937733692459632  0.4272752308173091  0.37794537230582104  1.0000
  O   O2        1.0  0.8938066307693361  0.41335735029210996  0.7555701518072155  1.0000
  O   O3        1.0  0.8938126465955177  0.6091420365457272  0.5597721350715958  1.0000
  O   O4        1.0  0.8937673013603583  0.23149055396954843  0.5737432916732574  1.0000
  O   O5        1.0  0.7780353037563715  0.60933639682118  0.5597957904759927  1.0000
  O   O6        1.0  0.7780292881237416  0.4135532710235128  0.7555937373117025  1.0000
  O   O7        1.0  0.7779960265051955  0.42747110672436706  0.37796739642698807  1.0000
  O   O8        1.0  0.7779899586239922  0.23168642055985278  0.5737654131662573  1.0000
