data_image0
_chemical_formula_structural       NC10NC3NCH9C12OCH12C16H10Zn2C4O8
_chemical_formula_sum              "N3 C47 H31 O9 Zn2"
_cell_length_a       19.437513618241372
_cell_length_b       10.29979075500242
_cell_length_c       10.299151387937775
_cell_angle_alpha    85.5809823184421
_cell_angle_beta     90.33614197722554
_cell_angle_gamma    89.50469088654314

_space_group_name_H-M_alt    "P 1"
_space_group_IT_number       1

loop_
  _space_group_symop_operation_xyz
  'x, y, z'

loop_
  _atom_site_type_symbol
  _atom_site_label
  _atom_site_symmetry_multiplicity
  _atom_site_fract_x
  _atom_site_fract_y
  _atom_site_fract_z
  _atom_site_occupancy
  N   N1        1.0  0.6477650757773517  0.40985489498580563  0.5756220388559972  1.0000
  C   C1        1.0  0.588829190917087  0.4268636644813555  0.572646014885682  1.0000
  C   C2        1.0  0.5153855324171847  0.44811457379987685  0.5689519889161403  1.0000
  C   C3        1.0  0.4736401657657988  0.34692109082838973  0.5572926364711037  1.0000
  C   C4        1.0  0.3977490441638704  0.35698305439172895  0.5500712565531833  1.0000
  C   C5        1.0  0.3581575928457821  0.43785554710961994  0.6158140802729828  1.0000
  C   C6        1.0  0.2819772829009425  0.4292441991906799  0.6073699377683768  1.0000
  C   C7        1.0  0.24886069892118073  0.30790232968859077  0.6120133226217117  1.0000
  C   C8        1.0  0.1771274844130918  0.3015279495069747  0.604845230546289  1.0000
  C   C9        1.0  0.1375402816495495  0.41602289280803517  0.5933959869578476  1.0000
  C   C10       1.0  0.0636926584764818  0.40931027306390977  0.5860598026859569  1.0000
  N   N2        1.0  0.004324267351932101  0.4039139170203343  0.5801619689391564  1.0000
  C   C11       1.0  0.1699402748147298  0.5370544697490625  0.5894978816073067  1.0000
  C   C12       1.0  0.24165784969119733  0.5436828618132195  0.5967279954287583  1.0000
  C   C13       1.0  0.3868214201314387  0.5301726729324912  0.7057344481176384  1.0000
  N   N3        1.0  0.44379772646431365  0.59337715076454  0.6853301684701951  1.0000
  C   C14       1.0  0.4876461928102357  0.5840748715571236  0.5722221000312462  1.0000
  H   H1        1.0  0.4960397539121922  0.25186135551480837  0.5451713628535226  1.0000
  H   H2        1.0  0.3730489966919133  0.2874502838061659  0.4917528505556483  1.0000
  H   H3        1.0  0.2783245233864485  0.2179953738968956  0.6230342043226438  1.0000
  H   H4        1.0  0.1525484814197695  0.20730402938083947  0.6087324040232858  1.0000
  H   H5        1.0  0.1397911426931299  0.6263073638301222  0.5807891579041717  1.0000
  H   H6        1.0  0.2657552670501224  0.6383195718712122  0.592825362160313  1.0000
  H   H7        1.0  0.3568103464712098  0.5505886871534926  0.7901014795694268  1.0000
  H   H8        1.0  0.530387455226305  0.6543887114506457  0.5779855374503218  1.0000
  H   H9        1.0  0.45797969846521513  0.6121504475860147  0.48157612747783785  1.0000
  C   C15       1.0  0.8261097932646453  0.025515554328441326  0.5779318025705154  1.0000
  C   C16       1.0  0.8061804561671589  0.014737519493468909  0.7091170036729173  1.0000
  C   C17       1.0  0.7960275158115079  0.8921408175126281  0.7755556961151837  1.0000
  C   C18       1.0  0.8060568584496864  0.7794572576531397  0.7090496444071406  1.0000
  C   C19       1.0  0.8259861651035596  0.788243077829694  0.5778635103960601  1.0000
  C   C20       1.0  0.835902641061747  0.9117155188087808  0.5130398347480041  1.0000
  C   C21       1.0  0.774947597521804  0.8817923013854062  0.9143435827180577  1.0000
  C   C22       1.0  0.7247429564122505  0.7917817859576216  0.9587702015254165  1.0000
  C   C23       1.0  0.704965067039244  0.7823146201550859  0.08925830416890357  1.0000
  C   C24       1.0  0.7349465604306602  0.8621975567188715  0.17698880916943416  1.0000
  C   C25       1.0  0.7853341663898178  0.9528149055701326  0.13443623836262164  1.0000
  C   C26       1.0  0.8048988231349622  0.9619242123864301  0.003418717446747821  1.0000
  O   O1        1.0  0.81712733953063  0.03502079580908246  0.21871004605499467  1.0000
  C   C27       1.0  0.8023630516503879  0.03630143274265851  0.353859070784846  1.0000
  H   H10       1.0  0.8337338315647702  0.35707343294839733  0.527966285161892  1.0000
  H   H11       1.0  0.7975954172468249  0.10192813936338907  0.7594367937618349  1.0000
  H   H12       1.0  0.7991927957017207  0.6846931331368644  0.7603304666668087  1.0000
  H   H13       1.0  0.8512778121157791  0.9192619120185449  0.41183600139036014  1.0000
  H   H14       1.0  0.8335459087072912  0.4641399761869949  0.5278595389914049  1.0000
  H   H15       1.0  0.7001417245018663  0.729934817753496  0.8922469876020913  1.0000
  H   H16       1.0  0.666104952390032  0.7130062385340294  0.12244253458878407  1.0000
  H   H17       1.0  0.7186314519969187  0.8527622580920633  0.27744833958932813  1.0000
  H   H18       1.0  0.8443138991479966  0.030797773574551268  0.9717544209670552  1.0000
  H   H19       1.0  0.8142424657037349  0.9395957459689217  0.4046332484574212  1.0000
  H   H20       1.0  0.8348248306770725  0.11041732266069415  0.39648699508379304  1.0000
  H   H21       1.0  0.7474385172934591  0.062133325588567434  0.3675953156823525  1.0000
  C   C28       1.0  0.8260878696657427  0.4067099182614444  0.1965272243016274  1.0000
  C   C29       1.0  0.7596967886214345  0.4617689515893395  0.1907687028754772  1.0000
  C   C30       1.0  0.7259940752605698  0.4898596438529541  0.07069252031513162  1.0000
  C   C31       1.0  0.7595770421276556  0.462148539423773  0.9554548109538947  1.0000
  C   C32       1.0  0.826008057970278  0.40704869651658804  0.9592681552093083  1.0000
  C   C33       1.0  0.8588551813291393  0.3796705268669651  0.08022572857654153  1.0000
  C   C34       1.0  0.6557603520371207  0.5481057439645869  0.06564610960074257  1.0000
  C   C35       1.0  0.6382689112706619  0.6482090864697649  0.9701098920203637  1.0000
  C   C36       1.0  0.5721535981880689  0.7029912926348734  0.9654883412515836  1.0000
  C   C37       1.0  0.5226623924325732  0.6584930561831384  0.05609015223206626  1.0000
  C   C38       1.0  0.5395301893352986  0.5589584413843676  0.15145628748715279  1.0000
  C   C39       1.0  0.6056257782011407  0.5040889714042853  0.15632715972135647  1.0000
  C   C40       1.0  0.45460615031503965  0.7149373200681131  0.05120438009467465  1.0000
  C   C41       1.0  0.39761000786809036  0.7622085389822957  0.047112529760029886  1.0000
  C   C42       1.0  0.3308681177271791  0.8175627116177748  0.04232101410617917  1.0000
  C   C43       1.0  0.2738811859302268  0.8648265291400572  0.038229931518096505  1.0000
  H   H22       1.0  0.8516101035484669  0.38546953461125133  0.5262224616567899  1.0000
  H   H23       1.0  0.7344137165393841  0.48458450317516877  0.27974867811281046  1.0000
  H   H24       1.0  0.7334676855311582  0.4819624994243916  0.8627477802099257  1.0000
  H   H25       1.0  0.9100634963955275  0.3371985394997521  0.08395193960501612  1.0000
  H   H26       1.0  0.9512203872912985  0.30229517561202446  0.7592293884713746  1.0000
  H   H27       1.0  0.6759803840164184  0.6852825764164958  0.9000403544864839  1.0000
  H   H28       1.0  0.5596987670444905  0.7802476953604458  0.89147058898123  1.0000
  H   H29       1.0  0.501551581418536  0.5235305923785649  0.22185368851046472  1.0000
  H   H30       1.0  0.6172676731711108  0.42608448053355796  0.22994161041875016  1.0000
  H   H31       1.0  0.22384195474745563  0.9063280008321437  0.03463763061334135  1.0000
  Zn  Zn1       1.0  0.7506603616519822  0.40813697119824743  0.5769396739069865  1.0000
  Zn  Zn2       1.0  0.9014289883004136  0.4056211760028854  0.5788550047584275  1.0000
  C   C44       1.0  0.826022454788825  0.4018110476425758  0.8150942139274153  1.0000
  C   C45       1.0  0.8260685412733054  0.41194871076172856  0.34070061297370136  1.0000
  C   C46       1.0  0.8260065165101902  0.644069124646383  0.5727012191629264  1.0000
  C   C47       1.0  0.8260844283508495  0.16968907434516445  0.5830936764631403  1.0000
  O   O2        1.0  0.8832779634825132  0.41274650047708206  0.38981337783545644  1.0000
  O   O3        1.0  0.883242931855166  0.39910284769728444  0.7674347671042812  1.0000
  O   O4        1.0  0.8832292900545086  0.5947293221195034  0.5717006989419431  1.0000
  O   O5        1.0  0.8832915538447331  0.2171200361602963  0.5855473479683293  1.0000
  O   O6        1.0  0.7687977446577302  0.5966381119007649  0.5702473300366453  1.0000
  O   O7        1.0  0.7688113862095463  0.4010131977512319  0.7659813288135933  1.0000
  O   O8        1.0  0.7688464180533514  0.4146568045807075  0.38835837814240515  1.0000
  O   O9        1.0  0.7688600084040765  0.21903033101841674  0.5840924456443037  1.0000
