data_image0
_chemical_formula_structural       NC10NC3NCH9C12ClH9C12ClH9Zn2C4O8
_chemical_formula_sum              "N3 C42 H27 Cl2 Zn2 O8"
_cell_length_a       19.437513618241372
_cell_length_b       10.299768534541528
_cell_length_c       10.299771906710086
_cell_angle_alpha    85.54593327708469
_cell_angle_beta     90.35636607497939
_cell_angle_gamma    89.54057453160664

_space_group_name_H-M_alt    "P 1"
_space_group_IT_number       1

loop_
  _space_group_symop_operation_xyz
  'x, y, z'

loop_
  _atom_site_type_symbol
  _atom_site_label
  _atom_site_symmetry_multiplicity
  _atom_site_fract_x
  _atom_site_fract_y
  _atom_site_fract_z
  _atom_site_occupancy
  N   N1        1.0  0.6479624933325595  0.41087015606447297  0.5757828005554413  1.0000
  C   C1        1.0  0.5890316938531122  0.4278808813366173  0.5728086865367064  1.0000
  C   C2        1.0  0.5155943936873716  0.4491342166563266  0.5691170468274602  1.0000
  C   C3        1.0  0.4738131835877202  0.3479503705499729  0.5574463921375454  1.0000
  C   C4        1.0  0.39792403120243314  0.35801744704564453  0.5502261534413129  1.0000
  C   C5        1.0  0.3583719628298653  0.4388413628052412  0.6159778925730186  1.0000
  C   C6        1.0  0.2821871846179358  0.4302362333135603  0.6075328037491534  1.0000
  C   C7        1.0  0.2490311645727722  0.30889242769377057  0.6121625973134084  1.0000
  C   C8        1.0  0.1772944679263478  0.3025233152232176  0.6049938066494325  1.0000
  C   C9        1.0  0.1377431310025298  0.41702520550348954  0.5935574021176799  1.0000
  C   C10       1.0  0.0638918813133004  0.4103179792194256  0.5862204817476242  1.0000
  N   N2        1.0  0.004520574753112  0.4049259591787149  0.5803220562430094  1.0000
  C   C11       1.0  0.1701825989512102  0.5380581823171522  0.5896728517776348  1.0000
  C   C12       1.0  0.24190375217189944  0.5446812587518444  0.5969036924900579  1.0000
  C   C13       1.0  0.3870835767572422  0.5310922623077128  0.7059084065971335  1.0000
  N   N3        1.0  0.4440770019550448  0.5943107777885133  0.6855112437275537  1.0000
  C   C14       1.0  0.4879008534763201  0.5850905458390763  0.5724023690180913  1.0000
  H   H1        1.0  0.49617887851654136  0.25290053456021666  0.5453145037772484  1.0000
  H   H2        1.0  0.3731897815926616  0.28852774160008754  0.4919000858526079  1.0000
  H   H3        1.0  0.2784672118203615  0.2189785459474547  0.6231733929502825  1.0000
  H   H4        1.0  0.152684895761596  0.2082976877386622  0.6088704256864066  1.0000
  H   H5        1.0  0.140061466705632  0.627316335073355  0.5809741361279597  1.0000
  H   H6        1.0  0.2660318729228583  0.6393196825109757  0.5930116598968096  1.0000
  H   H7        1.0  0.3570953415493811  0.5514469191108504  0.7902775479602766  1.0000
  H   H8        1.0  0.5306665766415636  0.6553993833035772  0.5781736646075446  1.0000
  H   H9        1.0  0.45822643869616686  0.6132314573529327  0.48175972719803517  1.0000
  C   C15       1.0  0.8261799414463356  0.026533664105135912  0.5780495408470838  1.0000
  C   C16       1.0  0.8306995917710178  0.03606325703443458  0.4416383496765519  1.0000
  C   C17       1.0  0.8330558773680466  0.9237515055410539  0.372525945138408  1.0000
  C   C18       1.0  0.8308309955359492  0.8007733444699118  0.4416555124915511  1.0000
  C   C19       1.0  0.8263097266916217  0.7892522495035986  0.5780666210073375  1.0000
  C   C20       1.0  0.8240100256738513  0.9026893127569385  0.645499738505483  1.0000
  C   C21       1.0  0.8378382054110359  0.9348866729926856  0.22821428831854607  1.0000
  C   C22       1.0  0.7986913807882945  0.029100788620769702  0.15325221976647008  1.0000
  C   C23       1.0  0.8032539452257039  0.03938470638910463  0.017430752380366288  1.0000
  C   C24       1.0  0.8468967496262932  0.9559782398652356  0.9548786504753255  1.0000
  C   C25       1.0  0.8860321704017461  0.8620769933461145  0.02832935550066029  1.0000
  C   C26       1.0  0.8815917860084364  0.8513987832378962  0.164167021584811  1.0000
  Cl  Cl1       1.0  0.8525445054115142  0.9691282657659905  0.7844657985941561  1.0000
  H   H10       1.0  0.8244224307780195  0.3503567598463966  0.6300252171687091  1.0000
  H   H11       1.0  0.8333476133766142  0.13104664347909223  0.38893954748797244  1.0000
  H   H12       1.0  0.8316835265791366  0.7139405698179423  0.3887202972107551  1.0000
  H   H13       1.0  0.8205226267226171  0.8945694933857611  0.7507346842304681  1.0000
  H   H14       1.0  0.8246143055002627  0.457407969049668  0.6300508887514518  1.0000
  H   H15       1.0  0.7639091680483145  0.09364312863928914  0.1995528121217216  1.0000
  H   H16       1.0  0.7727023046617498  0.11202409288190718  0.9609301253365579  1.0000
  H   H17       1.0  0.9200469578239858  0.7975013179644365  0.9803295176293356  1.0000
  H   H18       1.0  0.9130163392127945  0.7790385830053758  0.2191844585403997  1.0000
  C   C27       1.0  0.8262121025290807  0.40799984042644866  0.1966884213562603  1.0000
  C   C28       1.0  0.8886277461340459  0.47584173487660664  0.19115673237147446  1.0000
  C   C29       1.0  0.9202877920881478  0.5101090564356536  0.07122386837937755  1.0000
  C   C30       1.0  0.8886940770883756  0.47562546846093356  0.9558877961823704  1.0000
  C   C31       1.0  0.8262775493297355  0.4077861486218255  0.9594278180023976  1.0000
  C   C32       1.0  0.7953864083361972  0.37435239917727214  0.0803006156663868  1.0000
  C   C33       1.0  0.9863187952244857  0.5818787203399844  0.06642555593685917  1.0000
  C   C34       1.0  0.9972099866548061  0.6847015214150736  0.14636840195474465  1.0000
  C   C35       1.0  0.05939089749473547  0.7521517133547058  0.14166514050881496  1.0000
  C   C36       1.0  0.11138623699733263  0.7178143250906108  0.05733834013619776  1.0000
  C   C37       1.0  0.10115200405479086  0.6158400322240192  0.9775326703762897  1.0000
  C   C38       1.0  0.039032726789067995  0.5481884924207212  0.9818610811754147  1.0000
  Cl  Cl2       1.0  0.1893603589430668  0.8025640083321777  0.051673158790913165  1.0000
  H   H19       1.0  0.8024104752144211  0.3822062889767126  0.5262449803531868  1.0000
  H   H20       1.0  0.9132474757222478  0.5006306216374488  0.2804514790919248  1.0000
  H   H21       1.0  0.9124080350706611  0.5033710121541253  0.8630807000747573  1.0000
  H   H22       1.0  0.7472351944366407  0.32201662734337066  0.08379985129618883  1.0000
  H   H23       1.0  0.8025070850248955  0.38189010904385956  0.6333270191264089  1.0000
  H   H24       1.0  0.9573300282162782  0.7140192892269421  0.2112352144631895  1.0000
  H   H25       1.0  0.06701178898954074  0.8312980369617007  0.20339738706663457  1.0000
  H   H26       1.0  0.14134629922541553  0.588664155253867  0.9123263281133256  1.0000
  H   H27       1.0  0.03255368529059899  0.4684828588491685  0.9203628954304661  1.0000
  Zn  Zn1       1.0  0.7508574591114029  0.40915129796717675  0.5771002405846639  1.0000
  Zn  Zn2       1.0  0.90162561428427  0.4066341448662827  0.5790152858681856  1.0000
  C   C39       1.0  0.8262627697688903  0.4026529247898454  0.8152535779124992  1.0000
  C   C40       1.0  0.8262219503000993  0.4131341291204442  0.3408620969560856  1.0000
  C   C41       1.0  0.8262812033392296  0.6450837459831491  0.5728882022369715  1.0000
  C   C42       1.0  0.826203465023583  0.17070174848294473  0.5832275411818777  1.0000
  O   O1        1.0  0.8834409834912459  0.4138963311519739  0.3899748491077175  1.0000
  O   O2        1.0  0.883473277617525  0.3999792821917876  0.7675939269511429  1.0000
  O   O3        1.0  0.8834873917791878  0.5957452487603656  0.5718821615511556  1.0000
  O   O4        1.0  0.8834268178758491  0.21813037475972408  0.5856865164795748  1.0000
  O   O5        1.0  0.7690562040700516  0.5976550689341322  0.5704290093129329  1.0000
  O   O6        1.0  0.7690420901647939  0.40189066267014617  0.7661407055023144  1.0000
  O   O7        1.0  0.7690097959425779  0.41580766681166326  0.38852006625462554  1.0000
  O   O8        1.0  0.7689956303311429  0.22004170110348165  0.5842318309942713  1.0000
