data_image0
_chemical_formula_structural       NC11NC3H8C12OCH12C16H10Zn2C4O8
_chemical_formula_sum              "N2 C47 H30 O9 Zn2"
_cell_length_a       17.807433833752565
_cell_length_b       10.29979075500242
_cell_length_c       10.299151387937775
_cell_angle_alpha    85.5809823184421
_cell_angle_beta     88.51281441211556
_cell_angle_gamma    90.66694566819858

_space_group_name_H-M_alt    "P 1"
_space_group_IT_number       1

loop_
  _space_group_symop_operation_xyz
  'x, y, z'

loop_
  _atom_site_type_symbol
  _atom_site_label
  _atom_site_symmetry_multiplicity
  _atom_site_fract_x
  _atom_site_fract_y
  _atom_site_fract_z
  _atom_site_occupancy
  N   N1        1.0  0.7073239042003057  0.4378213263710866  0.5345544877119452  1.0000
  C   C1        1.0  0.6565030596654491  0.4031240582010136  0.6011193760476217  1.0000
  C   C2        1.0  0.5932768038916237  0.3599635153258629  0.6839176026285418  1.0000
  C   C3        1.0  0.6050013155420146  0.2964676063673515  0.8066406714081358  1.0000
  C   C4        1.0  0.5436824136059268  0.2549858228782642  0.8871548498718802  1.0000
  C   C5        1.0  0.4704846354899016  0.27668696316635755  0.8455867782710802  1.0000
  C   C6        1.0  0.45778335512003687  0.3403372207521631  0.722403500483016  1.0000
  C   C7        1.0  0.38001743649385866  0.3633672509628689  0.6780546801665999  1.0000
  C   C8        1.0  0.36125147010223124  0.3464385071161611  0.5484749148129655  1.0000
  C   C9        1.0  0.2880237612863434  0.36810090053102806  0.5068627740513076  1.0000
  C   C10       1.0  0.2326189813654293  0.4070102032369194  0.5940101004813105  1.0000
  C   C11       1.0  0.157254588438123  0.4293304595103682  0.5510366170186487  1.0000
  N   N2        1.0  0.09666698990712481  0.44727428731374363  0.51648906391849  1.0000
  C   C12       1.0  0.2506934070117356  0.4241492895519523  0.7230587159169592  1.0000
  C   C13       1.0  0.3238683314432872  0.40245207824760754  0.7649262892781847  1.0000
  C   C14       1.0  0.5199595678948428  0.38181444653853513  0.6419057382101983  1.0000
  H   H1        1.0  0.6614664166664762  0.2790679091947652  0.8400074812098917  1.0000
  H   H2        1.0  0.5528785536976751  0.20557551247356232  0.9818945961491081  1.0000
  H   H3        1.0  0.4238443168217241  0.2421590541892631  0.9090283593501332  1.0000
  H   H4        1.0  0.4029431731015323  0.31476696748620525  0.4797602045561351  1.0000
  H   H5        1.0  0.2745960267572651  0.35417656650836804  0.40682876967699055  1.0000
  H   H6        1.0  0.2082851948469978  0.4545975912758127  0.7912587357029108  1.0000
  H   H7        1.0  0.3367673809877966  0.4179217237897024  0.8647774374703243  1.0000
  H   H8        1.0  0.5114616379870781  0.43258719638106813  0.5474002197440326  1.0000
  C   C15       1.0  0.9020665456050304  0.061181791540009245  0.5255574041131976  1.0000
  C   C16       1.0  0.880304803499682  0.04954333298147984  0.6580061019694741  1.0000
  C   C17       1.0  0.8692183499688957  0.9265082907436027  0.7250884790018952  1.0000
  C   C18       1.0  0.8801698415770005  0.8142577349672591  0.6579465786549912  1.0000
  C   C19       1.0  0.9019315504395944  0.8239039775530067  0.5254969498201258  1.0000
  C   C20       1.0  0.9127597978288754  0.9478045497402102  0.4600445811492284  1.0000
  C   C21       1.0  0.8462002363618853  0.9152496760165929  0.8652128078657786  1.0000
  C   C22       1.0  0.7913795242140905  0.8230716392090427  0.912822342429997  1.0000
  C   C23       1.0  0.7697831547102723  0.8127505882453903  0.04456434021806699  1.0000
  C   C24       1.0  0.8025212996834683  0.8939279375663829  0.1303940534666661  1.0000
  C   C25       1.0  0.8575417994033206  0.9867207070715506  0.08464696714468656  1.0000
  C   C26       1.0  0.8789053305827491  0.9966746930020824  0.9523890697844157  1.0000
  O   O1        1.0  0.8922581992121382  0.07029922703138469  0.166905124699662  1.0000
  C   C27       1.0  0.8761364073207526  0.07094243465702843  0.3029901880804078  1.0000
  H   H9        1.0  0.9103915769132488  0.3930688282945618  0.47510853155851485  1.0000
  H   H10       1.0  0.87093041226756  0.13636330474009606  0.7088701735241865  1.0000
  H   H11       1.0  0.8726746618534865  0.7191972632920468  0.7096625744960998  1.0000
  H   H12       1.0  0.929548640612094  0.9560147463601901  0.357865979859163  1.0000
  H   H13       1.0  0.9101863754687576  0.5001272582033487  0.4750136994782581  1.0000
  H   H14       1.0  0.7645163294330076  0.7601625441784755  0.8478588179488267  1.0000
  H   H15       1.0  0.7273500427084146  0.7417644707126577  0.0802122566338388  1.0000
  H   H16       1.0  0.784706096878722  0.8837882549312083  0.23188794275380709  1.0000
  H   H17       1.0  0.9219444299297384  0.06724994985130661  0.9182259034049072  1.0000
  H   H18       1.0  0.8891080753560229  0.9747496264413428  0.3530112247417735  1.0000
  H   H19       1.0  0.9115828880543544  0.1464598205027421  0.343560073407733  1.0000
  H   H20       1.0  0.8161618308416095  0.09440303074906686  0.3202085844678808  1.0000
  C   C28       1.0  0.9020426062385073  0.44237520894957805  0.1441542157749396  1.0000
  C   C29       1.0  0.8295471902237049  0.4945678919877603  0.1426048115399614  1.0000
  C   C30       1.0  0.7927456773172816  0.5212035125657437  0.024665341742309055  1.0000
  C   C31       1.0  0.8294164336258869  0.49494230991997545  0.9072985114065775  1.0000
  C   C32       1.0  0.9019554562482595  0.44271054143651223  0.9069002066511302  1.0000
  C   C33       1.0  0.9378227118394277  0.41675050446487827  0.025775310665015372  1.0000
  C   C34       1.0  0.7160543069816432  0.5764173612101231  0.024071667256490903  1.0000
  C   C35       1.0  0.6969546138433974  0.6757655330580408  0.9296443866428001  1.0000
  C   C36       1.0  0.6247603213047251  0.7276932948636383  0.9292144696976963  1.0000
  C   C37       1.0  0.5707186414000953  0.6810583386940723  0.022953965464759474  1.0000
  C   C38       1.0  0.5891373496735784  0.5822519695237565  0.11725070204755905  1.0000
  C   C39       1.0  0.6613101044503035  0.5302360923352711  0.11793119095044968  1.0000
  C   C40       1.0  0.4964049609010237  0.7345643610827202  0.022382879790635135  1.0000
  C   C41       1.0  0.4341683021068563  0.7793748442046011  0.021904518485395874  1.0000
  C   C42       1.0  0.3612898218159499  0.8318475208148284  0.02134436091074332  1.0000
  C   C43       1.0  0.2990632205459682  0.8766510002028804  0.020866183407586947  1.0000
  H   H21       1.0  0.9299114846157149  0.4222367152119024  0.47223137323588715  1.0000
  H   H22       1.0  0.8019394634042364  0.516291879166936  0.23318770409197476  1.0000
  H   H23       1.0  0.8009064494748732  0.5136290317333647  0.8162467834528653  1.0000
  H   H24       1.0  0.9937393808522024  0.3764893708210484  0.02625497417706879  1.0000
  H   H25       1.0  0.038680446435597426  0.3433629032315455  0.6989231241092972  1.0000
  H   H26       1.0  0.738133471940465  0.7144671677665384  0.8571839856715164  1.0000
  H   H27       1.0  0.6111603293939858  0.8044119761318227  0.8559863392116998  1.0000
  H   H28       1.0  0.5476667946339445  0.5451844425357193  0.19005590256689953  1.0000
  H   H29       1.0  0.6740224146849472  0.4527342254389559  0.1908075590698053  1.0000
  H   H30       1.0  0.2444231269581734  0.9159920918779281  0.02044631146303999  1.0000
  Zn  Zn1       1.0  0.8196799080205336  0.44054577538176654  0.5293486815137027  1.0000
  Zn  Zn2       1.0  0.9843109719967912  0.44453922344431906  0.5217054570843225  1.0000
  C   C44       1.0  0.9019711767838107  0.43747351412678825  0.7627253526277136  1.0000
  C   C45       1.0  0.9020215006949827  0.44761316697115805  0.288328829844575  1.0000
  C   C46       1.0  0.9019537730584608  0.6797309030157335  0.5203333683315214  1.0000
  C   C47       1.0  0.902038848511552  0.20535421645891438  0.5307208861118069  1.0000
  O   O2        1.0  0.9644910492817131  0.45088090056066266  0.3338145839884723  1.0000
  O   O3        1.0  0.9644527966676832  0.43723573533501225  0.7114381942216585  1.0000
  O   O4        1.0  0.9644379005702212  0.6328616207898785  0.5157049909335889  1.0000
  O   O5        1.0  0.9645058892112252  0.2552550229904409  0.5295476925082137  1.0000
  O   O6        1.0  0.8394849346255978  0.6298299744742875  0.5215064486912373  1.0000
  O   O7        1.0  0.8394998304513387  0.43420564928136396  0.7172395826096936  1.0000
  O   O8        1.0  0.8395380833017286  0.44785076856603756  0.3396144109604211  1.0000
  O   O9        1.0  0.8395529232186891  0.25222488174981517  0.5353476168499165  1.0000
