data_image0
_chemical_formula_structural       NC8NC6H8C12NH11C12ClH9Zn2C4O8
_chemical_formula_sum              "N3 C42 H28 Cl1 Zn2 O8"
_cell_length_a       17.457602349358154
_cell_length_b       10.299770795358612
_cell_length_c       10.299771906710086
_cell_angle_alpha    85.53968522419491
_cell_angle_beta     92.8856013609098
_cell_angle_gamma    91.70596819880058

_space_group_name_H-M_alt    "P 1"
_space_group_IT_number       1

loop_
  _space_group_symop_operation_xyz
  'x, y, z'

loop_
  _atom_site_type_symbol
  _atom_site_label
  _atom_site_symmetry_multiplicity
  _atom_site_fract_x
  _atom_site_fract_y
  _atom_site_fract_z
  _atom_site_occupancy
  N   N1        1.0  0.7225583257356343  0.4532139647850273  0.6263845832973907  1.0000
  C   C1        1.0  0.6614710054778774  0.40729164092577896  0.6157721633772397  1.0000
  C   C2        1.0  0.5854757979990994  0.35016998178997083  0.6025798546258916  1.0000
  C   C3        1.0  0.5269616593220284  0.39031114842221437  0.6774752864239701  1.0000
  C   C4        1.0  0.4524049795189827  0.33530758405059613  0.6648972645430449  1.0000
  C   C5        1.0  0.3903007766575836  0.3776906779910336  0.7442143768359031  1.0000
  C   C6        1.0  0.315752141419966  0.39617453079893217  0.688448950173753  1.0000
  C   C7        1.0  0.2572379767084184  0.43613174190148696  0.7634523503613362  1.0000
  C   C8        1.0  0.181251084511116  0.45522206150114064  0.7054713960664287  1.0000
  N   N2        1.0  0.1201705385433741  0.4705642987140959  0.6588548603360616  1.0000
  C   C9        1.0  0.2727803775274495  0.45784810117912866  0.8947296817473445  1.0000
  C   C10       1.0  0.3465444167601514  0.4397531281681535  0.9508826814541773  1.0000
  C   C11       1.0  0.4050470531865843  0.3999758448828561  0.8763369936988612  1.0000
  C   C12       1.0  0.4376508235855113  0.23948582951615727  0.5759909274073296  1.0000
  C   C13       1.0  0.4961533332026297  0.19962323244686675  0.5014954821634361  1.0000
  C   C14       1.0  0.5699253204735671  0.2547390203287305  0.5146234508906407  1.0000
  H   H1        1.0  0.5393257837262309  0.46548711704950896  0.7441010700533337  1.0000
  H   H2        1.0  0.3033946454817101  0.3812324775673328  0.5864245816333278  1.0000
  H   H3        1.0  0.22793066684570581  0.4887146180805675  0.9535638022364583  1.0000
  H   H4        1.0  0.35838844986955104  0.45625294671846683  0.052533670210197725  1.0000
  H   H5        1.0  0.4615343483193696  0.3849712582017617  0.9224450104425979  1.0000
  H   H6        1.0  0.3811568853782078  0.19415318439625073  0.5653423464828489  1.0000
  H   H7        1.0  0.4843031073918186  0.1255640581902182  0.43367128271340993  1.0000
  H   H8        1.0  0.614774965465144  0.2230026631230766  0.4563005249074157  1.0000
  C   C15       1.0  0.9212985785509364  0.0805176922058537  0.6426539370648392  1.0000
  C   C16       1.0  0.8990179595994608  0.08875890615876236  0.5094240080373391  1.0000
  C   C17       1.0  0.8877985622733653  0.9758017173305032  0.44188600391627064  1.0000
  C   C18       1.0  0.8991583805232285  0.8534834400997691  0.5093669223995929  1.0000
  C   C19       1.0  0.9214376111226964  0.8432508735911038  0.6425972885972902  1.0000
  C   C20       1.0  0.9323833192038243  0.9573175504136884  0.7084946288231662  1.0000
  C   C21       1.0  0.8642272964942628  0.9855738631935649  0.30093649924219523  1.0000
  C   C22       1.0  0.8083578262788135  0.07432695708852832  0.25118685362090143  1.0000
  C   C23       1.0  0.786205447753942  0.0833967112769296  0.1185268054046793  1.0000
  C   C24       1.0  0.8195033681657724  0.004115129022651098  0.03350203280544184  1.0000
  C   C25       1.0  0.8751886479633343  0.9155523381752482  0.08234607790840998  1.0000
  C   C26       1.0  0.8974024834755855  0.9062292486768213  0.21498117187750587  1.0000
  N   N3        1.0  0.7968116675105424  0.013522271466187563  0.8978134359241392  1.0000
  H   H9        1.0  0.9297558984787203  0.4048282377318779  0.6934351845034952  1.0000
  H   H10       1.0  0.8913539775206134  0.1833447101244332  0.4574458935994752  1.0000
  H   H11       1.0  0.889568630785481  0.7660506906452004  0.4581716470070716  1.0000
  H   H12       1.0  0.9495712243148563  0.9501917655014613  0.8112755692876621  1.0000
  H   H13       1.0  0.929960385596737  0.5119008103625341  0.6933522598385933  1.0000
  H   H14       1.0  0.7810722783752873  0.13552816858742878  0.3151618685498554  1.0000
  H   H15       1.0  0.7429471803891656  0.15199981370642357  0.08208262290813861  1.0000
  H   H16       1.0  0.901525301742557  0.8539643660486277  0.017604300067051826  1.0000
  H   H17       1.0  0.9412487741710169  0.8381624953978636  0.2500338314247683  1.0000
  H   H18       1.0  0.821306915058308  0.9548150638744911  0.8336741680171618  1.0000
  H   H19       1.0  0.7553490662831501  0.07926400816114398  0.8604927251986503  1.0000
  C   C27       1.0  0.9213316005383788  0.4619890032154188  0.26125337919774316  1.0000
  C   C28       1.0  0.9909332703647564  0.533909166689672  0.26060344432883653  1.0000
  C   C29       1.0  0.02623839589767485  0.5702451701561049  0.14314684345436013  1.0000
  C   C30       1.0  0.9910072402705907  0.5336972320781963  0.025339727841817705  1.0000
  C   C31       1.0  0.9214045844699806  0.46177958547207143  0.023997926004212022  1.0000
  C   C32       1.0  0.886956889336165  0.4263273947332269  0.14245459963913287  1.0000
  C   C33       1.0  0.09987166816786197  0.6463293324493693  0.14351305573290896  1.0000
  C   C34       1.0  0.11201610433234088  0.7498644929002156  0.22429773391893515  1.0000
  C   C35       1.0  0.18135601720228456  0.8213776152229844  0.2244578823076222  1.0000
  C   C36       1.0  0.23933835132284065  0.7904369056654064  0.14420781920542525  1.0000
  C   C37       1.0  0.227926509466434  0.6877931804846571  0.06361168559947727  1.0000
  C   C38       1.0  0.15865532815511907  0.6160827353325196  0.06308153666443261  1.0000
  Cl  Cl1       1.0  0.32628977533687853  0.8802814565748576  0.14464127742271038  1.0000
  H   H20       1.0  0.8947896481373208  0.43464024227951836  0.5889483179941546  1.0000
  H   H21       1.0  0.018387528747967563  0.5603067030830238  0.3518240063091016  1.0000
  H   H22       1.0  0.01745141455675947  0.562992273180688  0.9343871698161905  1.0000
  H   H23       1.0  0.8332619388599214  0.37084539877998113  0.14218775382016857  1.0000
  H   H24       1.0  0.894897383948523  0.43433037153003307  0.6960379592982027  1.0000
  H   H25       1.0  0.06754415257764879  0.7765770623573707  0.2860373976387305  1.0000
  H   H26       1.0  0.1898537877881752  0.9010224551747152  0.28677839221543344  1.0000
  H   H27       1.0  0.27274897469853454  0.6632430551027624  0.0015568795345115571  1.0000
  H   H28       1.0  0.15143088424019213  0.5359531801421435  0.001084593833864611  1.0000
  Zn  Zn1       1.0  0.8373006215704423  0.45821741158321916  0.6357623026468597  1.0000
  Zn  Zn2       1.0  0.005428227535179575  0.4655502011019397  0.6494877743974035  1.0000
  C   C39       1.0  0.92138814143697  0.4566453552429319  0.8798230927901245  1.0000
  C   C40       1.0  0.9213425439277847  0.46712397611208445  0.4054272614818337  1.0000
  C   C41       1.0  0.9214068912124621  0.6990793086255698  0.6374324959870963  1.0000
  C   C42       1.0  0.9213237365042897  0.22468845989478914  0.647817922956341  1.0000
  O   O1        1.0  0.9851497658556619  0.47162440955097895  0.4590220788399286  1.0000
  O   O2        1.0  0.9851858820139656  0.45770935975286076  0.8366452171282854  1.0000
  O   O3        1.0  0.9852001627216543  0.6534778052214523  0.6409130249385555  1.0000
  O   O4        1.0  0.9851354277697845  0.275855970897229  0.6547541689698744  1.0000
  O   O5        1.0  0.8575933639621364  0.6479116392870241  0.6304959033837279  1.0000
  O   O6        1.0  0.8575790835287498  0.45214475415218414  0.826228026211318  1.0000
  O   O7        1.0  0.8575429672637971  0.46605975912500885  0.44860332651611246  1.0000
  O   O8        1.0  0.857528629182407  0.27029131115551164  0.6443355140151814  1.0000
