data_image0
_chemical_formula_structural       NC10NC3NCH9C12ClH9C13F3H9Zn2C4O8
_chemical_formula_sum              "N3 C43 H27 Cl1 F3 Zn2 O8"
_cell_length_a       19.437513618241372
_cell_length_b       10.299768534541528
_cell_length_c       10.2985328690268
_cell_angle_alpha    85.58012551441328
_cell_angle_beta     90.35299087610198
_cell_angle_gamma    89.54057453160664

_space_group_name_H-M_alt    "P 1"
_space_group_IT_number       1

loop_
  _space_group_symop_operation_xyz
  'x, y, z'

loop_
  _atom_site_type_symbol
  _atom_site_label
  _atom_site_symmetry_multiplicity
  _atom_site_fract_x
  _atom_site_fract_y
  _atom_site_fract_z
  _atom_site_occupancy
  N   N1        1.0  0.6480107920985553  0.41001691569691734  0.5756780309735756  1.0000
  C   C1        1.0  0.5890800934787498  0.42702585919438607  0.5727036981703169  1.0000
  C   C2        1.0  0.5156429185057414  0.44827698287388795  0.5690117868932587  1.0000
  C   C3        1.0  0.47386210418716884  0.347086144945149  0.5573402736758577  1.0000
  C   C4        1.0  0.3979731966582277  0.35714889583716825  0.5501195038377531  1.0000
  C   C5        1.0  0.3584188984797965  0.43801220308711186  0.6158760798596601  1.0000
  C   C6        1.0  0.2822344066619432  0.4294020141910826  0.6074303697903656  1.0000
  C   C7        1.0  0.2490782296089046  0.30806098225410206  0.6120605039357736  1.0000
  C   C8        1.0  0.1773417760740946  0.3016875750021186  0.6048911859145933  1.0000
  C   C9        1.0  0.1377908269873471  0.41618261379793253  0.5934539400874816  1.0000
  C   C10       1.0  0.0639398261114308  0.40947099200689463  0.5861164799921086  1.0000
  N   N2        1.0  0.0045687195815983  0.40407543825324477  0.5802176205820659  1.0000
  C   C11       1.0  0.1702304266708414  0.5372132633997342  0.5895691039885544  1.0000
  C   C12       1.0  0.2419513346756439  0.5438406717896851  0.5968004766227641  1.0000
  C   C13       1.0  0.3871274626386028  0.5303169794454945  0.7058132094353593  1.0000
  N   N3        1.0  0.4441215795551944  0.5935232751028365  0.6854145460908345  1.0000
  C   C14       1.0  0.48794926688120066  0.5842352802743465  0.572297350761797  1.0000
  H   H1        1.0  0.49622821053865607  0.2520290408105561  0.545207492858377  1.0000
  H   H2        1.0  0.3732409250312324  0.2876242475785582  0.4917891456129604  1.0000
  H   H3        1.0  0.2785139034528852  0.21815369701239207  0.6230721095589724  1.0000
  H   H4        1.0  0.1527320724434991  0.2074642699778264  0.6087680901269998  1.0000
  H   H5        1.0  0.1401095894204592  0.6264662048052099  0.5808697484359191  1.0000
  H   H6        1.0  0.2660795874151587  0.63847676385438  0.5929081577202175  1.0000
  H   H7        1.0  0.3571363662622222  0.5507221813180323  0.7901885572392524  1.0000
  H   H8        1.0  0.5307147943273814  0.6545475752889822  0.5780690709046301  1.0000
  H   H9        1.0  0.4582779260196519  0.6123218883006083  0.48164804100395275  1.0000
  C   C15       1.0  0.8262281633415005  0.025681781728707387  0.5779449380132624  1.0000
  C   C16       1.0  0.8307524397107244  0.03512965149461578  0.44152371203661667  1.0000
  C   C17       1.0  0.8331110690821826  0.92277649515549  0.3724062233878971  1.0000
  C   C18       1.0  0.8308838428936217  0.7998397492122372  0.4415408761141628  1.0000
  C   C19       1.0  0.8263579480075556  0.7884003773597964  0.5779620194299826  1.0000
  C   C20       1.0  0.8240559601641777  0.901877839407633  0.6454000975054381  1.0000
  C   C21       1.0  0.8378982910942562  0.9338252063200079  0.22808395058056585  1.0000
  C   C22       1.0  0.798754008622676  0.02799441260213742  0.15311636759952418  1.0000
  C   C23       1.0  0.8033211791056192  0.0381969605072241  0.017284908789112707  1.0000
  C   C24       1.0  0.8469661048043737  0.954753019377346  0.9547282053685411  1.0000
  C   C25       1.0  0.8860990346827813  0.8608957767549461  0.02818431364252172  1.0000
  C   C26       1.0  0.8816540436945997  0.8502989462145234  0.16403197234260358  1.0000
  Cl  Cl1       1.0  0.8526196397154606  0.9678009519145101  0.7843028174196691  1.0000
  H   H10       1.0  0.8244688900480531  0.34953601579998206  0.6299244378176245  1.0000
  H   H11       1.0  0.8334022484644581  0.13008146638869356  0.38882103317004724  1.0000
  H   H12       1.0  0.8317381691023056  0.7129752613759581  0.3886017667641384  1.0000
  H   H13       1.0  0.8205649924328305  0.8938210656897485  0.7506427846207571  1.0000
  H   H14       1.0  0.824660763899709  0.45658724038295195  0.6299501112888442  1.0000
  H   H15       1.0  0.7639702257138506  0.09256449104036912  0.19942036596174062  1.0000
  H   H16       1.0  0.7727714546191882  0.11080249779794915  0.9607801253939607  1.0000
  H   H17       1.0  0.9201154498995303  0.796291344945299  0.9801809447627625  1.0000
  H   H18       1.0  0.9130767311201183  0.7779717066133927  0.21905345654173614  1.0000
  C   C27       1.0  0.8262732573332691  0.4069194867874255  0.19655576448331868  1.0000
  C   C28       1.0  0.895254374758117  0.3648790476414756  0.1996462999823143  1.0000
  C   C29       1.0  0.9302076438831872  0.3436955071990875  0.08404144474426145  1.0000
  C   C30       1.0  0.8952950349682032  0.3651339843886314  0.9643461463251835  1.0000
  C   C31       1.0  0.8263128434821909  0.407162736712779  0.959351247689971  1.0000
  C   C32       1.0  0.7922424857181898  0.4277819192286316  0.07595903012622918  1.0000
  C   C33       1.0  0.003137113745657061  0.29926092479894284  0.08824331507392147  1.0000
  C   C34       1.0  0.05065223291250409  0.35306907814359145  0.9973077132300587  1.0000
  C   C35       1.0  0.11928865874862304  0.3113522983510888  0.0012837250161732428  1.0000
  C   C36       1.0  0.14165871659499363  0.21358440196582218  0.09503806701030726  1.0000
  C   C37       1.0  0.09454215769686392  0.16158863459172768  0.1875561070765015  1.0000
  C   C38       1.0  0.025910216015137433  0.20333839431167  0.18369107403313478  1.0000
  C   C39       1.0  0.21624532302279031  0.1720553673515428  0.10227039884426126  1.0000
  F   F1        1.0  0.2515422275013681  0.25078098702900165  0.1822060835732755  1.0000
  F   F2        1.0  0.24554735377344183  0.18274014954269924  0.9797864841046242  1.0000
  F   F3        1.0  0.22259507009772173  0.04382969499518774  0.15223473331450355  1.0000
  H   H19       1.0  0.6960558731410182  0.4871766124797632  0.3979794182893761  1.0000
  H   H20       1.0  0.9221947811570431  0.3502707191472658  0.29206801708613184  1.0000
  H   H21       1.0  0.9217146461163789  0.3473123867066117  0.8750514849082913  1.0000
  H   H22       1.0  0.7390771491478202  0.46017807158566226  0.07284396619102806  1.0000
  H   H23       1.0  0.6958353229641441  0.4858406771484334  0.7426423116660037  1.0000
  H   H24       1.0  0.0349871054646389  0.42909363137549295  0.9243805182995541  1.0000
  H   H25       1.0  0.1549653893270917  0.35598364389070136  0.9312535883687056  1.0000
  H   H26       1.0  0.11075782070800777  0.08844641476822779  0.2629332480724049  1.0000
  H   H27       1.0  0.9904814496899191  0.15965693421670224  0.2547440640938772  1.0000
  Zn  Zn1       1.0  0.7509057131997133  0.4082988468703974  0.5769955679175398  1.0000
  Zn  Zn2       1.0  0.9016738034286069  0.40578284106216533  0.5789107540773921  1.0000
  C   C40       1.0  0.8263029474821119  0.40194314999353176  0.8151664245012731  1.0000
  C   C41       1.0  0.8262782158144916  0.41214014910477603  0.3407400459203116  1.0000
  C   C42       1.0  0.8263296002682908  0.6442287714783184  0.5727832197199896  1.0000
  C   C43       1.0  0.8262515113198107  0.16985296821686124  0.5831233192569023  1.0000
  O   O1        1.0  0.8834955834694234  0.41293177430484596  0.389856410949607  1.0000
  O   O2        1.0  0.8835150715886673  0.3992409547715341  0.7675032675566262  1.0000
  O   O3        1.0  0.8835358228256041  0.5948896715423215  0.5717771050268787  1.0000
  O   O4        1.0  0.8834747807820768  0.21728306765165928  0.5855824754440129  1.0000
  O   O5        1.0  0.7691046843964935  0.5967986211409049  0.5703238458905284  1.0000
  O   O6        1.0  0.7690839334183085  0.4011514646332457  0.7660499392045783  1.0000
  O   O7        1.0  0.7690644452560791  0.41484223841245993  0.38840152107843373  1.0000
  O   O8        1.0  0.7690436425693923  0.21919352250167345  0.5841276829477913  1.0000
