data_image0
_chemical_formula_structural       NC11NC3H8C16H10C12OCH12Zn2C4O8
_chemical_formula_sum              "N2 C47 H30 O9 Zn2"
_cell_length_a       17.807433833752565
_cell_length_b       10.29914801576943
_cell_length_c       10.299794127170987
_cell_angle_alpha    85.55374609457252
_cell_angle_beta     88.5176554422573
_cell_angle_gamma    90.69784511463686

_space_group_name_H-M_alt    "P 1"
_space_group_IT_number       1

loop_
  _space_group_symop_operation_xyz
  'x, y, z'

loop_
  _atom_site_type_symbol
  _atom_site_label
  _atom_site_symmetry_multiplicity
  _atom_site_fract_x
  _atom_site_fract_y
  _atom_site_fract_z
  _atom_site_occupancy
  N   N1        1.0  0.7077102595161362  0.4381697206550148  0.5341343008295201  1.0000
  C   C1        1.0  0.6568815799018815  0.40345955890399465  0.6007076627716563  1.0000
  C   C2        1.0  0.5936455777912261  0.36028297790927044  0.6835164299816257  1.0000
  C   C3        1.0  0.6053557946529589  0.2967633429607939  0.8062549568672521  1.0000
  C   C4        1.0  0.5440275701419881  0.2552660105204412  0.8867792159644519  1.0000
  C   C5        1.0  0.4708346954896682  0.27697520573627443  0.8452058411707635  1.0000
  C   C6        1.0  0.458147736934282  0.3406492702630928  0.7220070763460007  1.0000
  C   C7        1.0  0.3803870108160823  0.36368788248326256  0.6776526406561103  1.0000
  C   C8        1.0  0.3616094910991113  0.3467761489465493  0.5480856641212664  1.0000
  C   C9        1.0  0.2883866713492101  0.3684465999151263  0.5064682359525579  1.0000
  C   C10       1.0  0.2329983956518182  0.4073470982779359  0.5935974196662077  1.0000
  C   C11       1.0  0.15763903560884604  0.4296756708413745  0.5506184934375933  1.0000
  N   N2        1.0  0.097055483139842  0.44762618433340995  0.5160665647614411  1.0000
  C   C12       1.0  0.25108441603362613  0.42446927079618746  0.7226332017296293  1.0000
  C   C13       1.0  0.3242544525354065  0.4027639618769485  0.764506060926937  1.0000
  C   C14       1.0  0.520333271620785  0.382142042203903  0.6414992341430441  1.0000
  H   H1        1.0  0.6618169660584526  0.2793571819774905  0.8396260166687295  1.0000
  H   H2        1.0  0.5532125503152655  0.20583734651809626  0.9815310317411818  1.0000
  H   H3        1.0  0.4241864464932075  0.242434868476179  0.9086560039434015  1.0000
  H   H4        1.0  0.4032878659153882  0.3151114564511439  0.47938560308653133  1.0000
  H   H5        1.0  0.274949746303181  0.35453531571667085  0.4064444009835635  1.0000
  H   H6        1.0  0.20868911933143372  0.4549106822507689  0.7908190238391322  1.0000
  H   H7        1.0  0.3371631742453357  0.4182207318673843  0.864346513767267  1.0000
  H   H8        1.0  0.5118469451456411  0.4329332424348  0.546981161352827  1.0000
  C   C15       1.0  0.9023329533016083  0.06149541201014608  0.5252682670240068  1.0000
  C   C16       1.0  0.8851884174015058  0.07063936379182523  0.3925962499185647  1.0000
  C   C17       1.0  0.8765509920934588  0.9581470746411423  0.3251615626078661  1.0000
  C   C18       1.0  0.8852887311629214  0.8353898685839642  0.392187023779925  1.0000
  C   C19       1.0  0.9024399579659576  0.8242906615762045  0.5249434792456431  1.0000
  C   C20       1.0  0.9108578083662754  0.9378568423086504  0.590666612352766  1.0000
  C   C21       1.0  0.8584143261884472  0.9688658830244926  0.18481056019102104  1.0000
  C   C22       1.0  0.8939640342682026  0.8887196721823946  0.09794722531909983  1.0000
  C   C23       1.0  0.8768681833507079  0.898932384520351  0.9658554933806007  1.0000
  C   C24       1.0  0.8240471106948843  0.9891868342136231  0.918831071866625  1.0000
  C   C25       1.0  0.788360501139359  0.06930966556246143  0.004416880035425619  1.0000
  C   C26       1.0  0.8054027864703347  0.05933692395383661  0.1365320432950805  1.0000
  C   C27       1.0  0.8064746411941238  0.9995777966036908  0.7828288996873072  1.0000
  C   C28       1.0  0.7917578873887089  0.00828012891898311  0.6689290509905783  1.0000
  C   C29       1.0  0.7745247424867399  0.018470441978386987  0.5355534885221376  1.0000
  C   C30       1.0  0.7598104586295115  0.027171462437244998  0.4216720320875669  1.0000
  H   H9        1.0  0.908888839133284  0.3854519219205266  0.5763154941694595  1.0000
  H   H10       1.0  0.8795244372462304  0.1655421659877201  0.3409514827455047  1.0000
  H   H11       1.0  0.8776855926594336  0.7482971314538752  0.3411268023154428  1.0000
  H   H12       1.0  0.9240796315473105  0.9300879337431598  0.6930009022324026  1.0000
  H   H13       1.0  0.9343467473607198  0.5960236779823727  0.7757141490623289  1.0000
  H   H14       1.0  0.9356950304570997  0.8193388924377919  0.13185866010495984  1.0000
  H   H15       1.0  0.9049794459319351  0.8366737449908636  0.9003791795428078  1.0000
  H   H16       1.0  0.7472271434627713  0.13926891802305152  0.9691078841177481  1.0000
  H   H17       1.0  0.7764158030640022  0.12118425538566724  0.20124624637003796  1.0000
  H   H18       1.0  0.7468901328176019  0.034811694820183314  0.32167450820647003  1.0000
  C   C31       1.0  0.9024117833359392  0.4427801724188636  0.14375329934205494  1.0000
  C   C32       1.0  0.8287882113070333  0.39186525441102527  0.14999708941946954  1.0000
  C   C33       1.0  0.791461920253676  0.3661683588959841  0.03601491439469595  1.0000
  C   C34       1.0  0.8287371681934453  0.39209050019952496  0.9146944714977105  1.0000
  C   C35       1.0  0.9023611609415908  0.4430059358959273  0.9064583998488547  1.0000
  C   C36       1.0  0.9387869673353169  0.468062804887903  0.021526714349808573  1.0000
  C   C37       1.0  0.713574501475492  0.3122962163781746  0.04367509069854947  1.0000
  C   C38       1.0  0.6597993510271022  0.3596612361517413  0.9550018290882147  1.0000
  C   C39       1.0  0.5865972637334742  0.3089492157015057  0.9624705976452423  1.0000
  C   C40       1.0  0.5661063229180839  0.21050951485761926  0.058149261554302445  1.0000
  C   C41       1.0  0.6191401154691326  0.16172177581046432  0.14772009765152605  1.0000
  C   C42       1.0  0.6924444151052334  0.2130758778012567  0.13979494195008968  1.0000
  O   O1        1.0  0.6014430299721321  0.06271091157076203  0.2454043351830082  1.0000
  C   C43       1.0  0.529422641568416  0.00168320882798767  0.2648085471656403  1.0000
  H   H19       1.0  0.9304755062083596  0.46212286649891166  0.46883126702309186  1.0000
  H   H20       1.0  0.7999235257056657  0.3737339108599014  0.24362090487500088  1.0000
  H   H21       1.0  0.8005722820895065  0.3708102772528854  0.8266785880360676  1.0000
  H   H22       1.0  0.9955847745248945  0.5073406911992213  0.01594148708899179  1.0000
  H   H23       1.0  0.930399941829938  0.46246782895488847  0.5758634053203999  1.0000
  H   H24       1.0  0.6740976397082724  0.43708099713504334  0.8809872848582727  1.0000
  H   H25       1.0  0.5455275485740271  0.34635027947270114  0.8940224845012712  1.0000
  H   H26       1.0  0.5090272865562713  0.17308598498072958  0.06164161311337257  1.0000
  H   H27       1.0  0.7331827222646508  0.17391660028499323  0.20808540190008085  1.0000
  H   H28       1.0  0.5139313816190296  0.952847202554714  0.1766872166295539  1.0000
  H   H29       1.0  0.5313426393738114  0.9272478522884189  0.34842257119037456  1.0000
  H   H30       1.0  0.48664439129623466  0.07490868977583887  0.2870396172967056  1.0000
  Zn  Zn1       1.0  0.8200668795484983  0.44089517907094633  0.5289278281624428  1.0000
  Zn  Zn2       1.0  0.9846988461540087  0.4448901085200112  0.5212836275105603  1.0000
  C   C44       1.0  0.9023683061815918  0.4377890679083638  0.7622931009649467  1.0000
  C   C45       1.0  0.9023992175183094  0.4479979021092424  0.287918397996785  1.0000
  C   C46       1.0  0.9024162147682518  0.6801045076073953  0.5198300783333081  1.0000
  C   C47       1.0  0.9023512525307545  0.20568090062702105  0.5303814931369866  1.0000
  O   O2        1.0  0.9648719728602925  0.4512594085218504  0.3334005901732622  1.0000
  O   O3        1.0  0.9648474040561554  0.437558640591478  0.7110087639556757  1.0000
  O   O4        1.0  0.9648852485366168  0.6332314026079553  0.5152181962460012  1.0000
  O   O5        1.0  0.9648340722098624  0.2555866544043983  0.5291910631169361  1.0000
  O   O6        1.0  0.8399315973118351  0.6301986318246982  0.521020395157826  1.0000
  O   O7        1.0  0.8398937530514587  0.4345274302295492  0.7168108929606964  1.0000
  O   O8        1.0  0.8399183220028934  0.44822815243905145  0.33920115786151017  1.0000
  O   O9        1.0  0.8398804213416223  0.25255538906071284  0.5349917281729439  1.0000
