data_image0
_chemical_formula_structural       NC11NC3H8C12OCH12C13F3H9Zn2C4O8
_chemical_formula_sum              "N2 C44 H29 O9 F3 Zn2"
_cell_length_a       17.807433833752565
_cell_length_b       10.29979075500242
_cell_length_c       10.2985328690268
_cell_angle_alpha    85.57397699723032
_cell_angle_beta     88.52982223362811
_cell_angle_gamma    90.66694566819858

_space_group_name_H-M_alt    "P 1"
_space_group_IT_number       1

loop_
  _space_group_symop_operation_xyz
  'x, y, z'

loop_
  _atom_site_type_symbol
  _atom_site_label
  _atom_site_symmetry_multiplicity
  _atom_site_fract_x
  _atom_site_fract_y
  _atom_site_fract_z
  _atom_site_occupancy
  N   N1        1.0  0.7070735995702452  0.43799509075505205  0.5344642424473474  1.0000
  C   C1        1.0  0.6562641246152265  0.4032899296904848  0.601033229991019  1.0000
  C   C2        1.0  0.5930520111478194  0.3601195690618153  0.6838365554635755  1.0000
  C   C3        1.0  0.6047974844457591  0.2966091082838971  0.8065671817918609  1.0000
  C   C4        1.0  0.5434923346904834  0.2551177778710221  0.8870863184906805  1.0000
  C   C5        1.0  0.47028745656241583  0.2768238470700122  0.8455156870392486  1.0000
  C   C6        1.0  0.4575651359392507  0.3404887110442505  0.7223248233618393  1.0000
  C   C7        1.0  0.3797916423367463  0.3635239998915809  0.6779732719503462  1.0000
  C   C8        1.0  0.3610035431432112  0.34661062089325  0.548385526798  1.0000
  C   C9        1.0  0.287768726788072  0.3682779484444898  0.5067708234718373  1.0000
  C   C10       1.0  0.2323788320192293  0.4071769177047746  0.5939235166203345  1.0000
  C   C11       1.0  0.1570070990292661  0.4295022695350472  0.5509473867587766  1.0000
  N   N2        1.0  0.0964135996221004  0.44745019379525575  0.5163977061465099  1.0000
  C   C12       1.0  0.2504752997446683  0.42430070215223537  0.722980079145348  1.0000
  C   C13       1.0  0.3236573753444986  0.4025985264237395  0.7648502308011638  1.0000
  C   C14       1.0  0.5197275993372034  0.38197548180787  0.6418221038648904  1.0000
  H   H1        1.0  0.6612682847701663  0.2792054546604559  0.8399360463930305  1.0000
  H   H2        1.0  0.5527046567534787  0.20569623375376578  0.9818318990438328  1.0000
  H   H3        1.0  0.4236579739992652  0.2422884155428391  0.9089611749863653  1.0000
  H   H4        1.0  0.4026835093635012  0.314947229071723  0.47966658494254877  1.0000
  H   H5        1.0  0.2743239060048488  0.35436547589808454  0.4067306587898747  1.0000
  H   H6        1.0  0.2080787364475133  0.45474091709680264  0.7911842988341824  1.0000
  H   H7        1.0  0.33657347991050135  0.4180563321716504  0.8647075280402747  1.0000
  H   H8        1.0  0.5112135274653467  0.4327594375895252  0.5473107655470495  1.0000
  C   C15       1.0  0.9018147042329601  0.06135662274814235  0.5254666047889751  1.0000
  C   C16       1.0  0.8800755849559878  0.04970245915916505  0.6579234591189547  1.0000
  C   C17       1.0  0.8690005893944169  0.9266594626658605  0.7250099672274302  1.0000
  C   C18       1.0  0.8799406128664585  0.8144168682028883  0.6578639321388988  1.0000
  C   C19       1.0  0.9016796987416612  0.8240788159294739  0.5254061467729991  1.0000
  C   C20       1.0  0.9124967665744256  0.947987149094773  0.45994974740544303  1.0000
  C   C21       1.0  0.8460064096477955  0.915384232774739  0.8651429252467677  1.0000
  C   C22       1.0  0.7911938294208649  0.8232005506931916  0.9127553917078108  1.0000
  C   C23       1.0  0.7696199620378985  0.8128638784956578  0.0445055024494837  1.0000
  C   C24       1.0  0.8023727671089573  0.8940310506062911  0.13034050127514263  1.0000
  C   C25       1.0  0.8573854530224131  0.9868292445466946  0.0845905977498792  1.0000
  C   C26       1.0  0.8787263939630411  0.9967989128836118  0.9523245556658082  1.0000
  O   O1        1.0  0.8921159028914502  0.07039801079139307  0.1668538209378867  1.0000
  C   C27       1.0  0.876017354935892  0.0710250822065761  0.3029472647274911  1.0000
  H   H9        1.0  0.910131118648721  0.3932496414496096  0.4750146254849701  1.0000
  H   H10       1.0  0.8707098815341645  0.13651639973887697  0.7087906629918301  1.0000
  H   H11       1.0  0.8724542664657114  0.7193502643323243  0.7095831127614878  1.0000
  H   H12       1.0  0.9292681567967799  0.9562094614853898  0.3577648537388738  1.0000
  H   H13       1.0  0.9099259010064874  0.5003080826030577  0.47491978756475084  1.0000
  H   H14       1.0  0.7643195385800331  0.7602991586762929  0.8477878666340513  1.0000
  H   H15       1.0  0.727192938859171  0.7418735340311263  0.08015561414008665  1.0000
  H   H16       1.0  0.7845748999132109  0.8838793333898236  0.23184064077276034  1.0000
  H   H17       1.0  0.9217596580888293  0.06737822061122789  0.9181592854455471  1.0000
  H   H18       1.0  0.8889975667873407  0.9748263427743774  0.3529713817911312  1.0000
  H   H19       1.0  0.911470765186868  0.14653765750077308  0.3435196484350054  1.0000
  H   H20       1.0  0.8160457194356538  0.09448363663686998  0.32016672146058933  1.0000
  C   C28       1.0  0.9017256195006349  0.4425952648279621  0.14403992882776429  1.0000
  C   C29       1.0  0.9770637196069503  0.403533627452622  0.1427606927733751  1.0000
  C   C30       1.0  0.015238078277678868  0.38385946873892807  0.02494162949209322  1.0000
  C   C31       1.0  0.9771080253853992  0.4037903192826524  0.9074579379812602  1.0000
  C   C32       1.0  0.9017687567152102  0.44284022348786234  0.9068328800598415  1.0000
  C   C33       1.0  0.864558683989063  0.4619881509802026  0.02559894282417141  1.0000
  C   C34       1.0  0.09488838841484148  0.3425741892181893  0.024523609465986418  1.0000
  C   C35       1.0  0.1467522525059115  0.3984339618759092  0.9305705293266673  1.0000
  C   C36       1.0  0.22171385461823823  0.3596810987852439  0.9301985945391458  1.0000
  C   C37       1.0  0.24617596066715208  0.26287942835973244  0.022543497829582648  1.0000
  C   C38       1.0  0.19474664060726665  0.20884924719784714  0.11805358168561697  1.0000
  C   C39       1.0  0.11978992293072332  0.24763528375992183  0.11853620791130548  1.0000
  C   C40       1.0  0.3276347008022731  0.2245712461420235  0.02505060828102801  1.0000
  F   F1        1.0  0.36614803667177376  0.30482082141314826  0.10274121872576747  1.0000
  F   F2        1.0  0.35962671580678185  0.23652129812226352  0.9007078935933004  1.0000
  F   F3        1.0  0.3346147313811443  0.09662010352413675  0.07462400335388897  1.0000
  H   H21       1.0  0.7595076745625147  0.5172292293870433  0.35371242846129336  1.0000
  H   H22       1.0  0.006486173127210337  0.39008865789421643  0.23347564178543623  1.0000
  H   H23       1.0  0.0059629705899491015  0.38710960046475495  0.816489820310196  1.0000
  H   H24       1.0  0.8064938763499736  0.4920884721933043  0.02585176299675296  1.0000
  H   H25       1.0  0.7592673329817642  0.5158837739649251  0.6983894267206892  1.0000
  H   H26       1.0  0.1296193789172364  0.4737818739897848  0.8586296379798259  1.0000
  H   H27       1.0  0.260654306044829  0.40585289162362215  0.8579023997638355  1.0000
  H   H28       1.0  0.21247961705167961  0.13640743366461328  0.19240925171536927  1.0000
  H   H29       1.0  0.08111988752496124  0.20242408125380673  0.19183944817022391  1.0000
  Zn  Zn1       1.0  0.819428714215554  0.44072015704129686  0.52925811566444  1.0000
  Zn  Zn2       1.0  0.9840584726949871  0.444714511394922  0.521614420548975  1.0000
  C   C41       1.0  0.901759844755225  0.4376202232777555  0.7626491586123125  1.0000
  C   C42       1.0  0.9017291396242785  0.447816127425122  0.2882234214780681  1.0000
  C   C43       1.0  0.9017010393977772  0.6799063536609944  0.5202422473000181  1.0000
  C   C44       1.0  0.9017878890852385  0.20552843541005017  0.5306304047658341  1.0000
  O   O2        1.0  0.9642064573807043  0.4510784675667081  0.3337119767318555  1.0000
  O   O3        1.0  0.9642327045636775  0.43738852583217147  0.711358841833502  1.0000
  O   O4        1.0  0.9641843763620335  0.6330376202424066  0.5156135848767198  1.0000
  O   O5        1.0  0.9642547293982113  0.255429381052354  0.5294571389144733  1.0000
  O   O6        1.0  0.8392324013322724  0.6300052860221996  0.5214153999005282  1.0000
  O   O7        1.0  0.8392807292503464  0.434357751882132  0.7171605874834246  1.0000
  O   O8        1.0  0.8392544820370368  0.44804764786083595  0.3395121608695362  1.0000
  O   O9        1.0  0.8393027540586233  0.25239855208893514  0.5352574204279048  1.0000
