data_image0
_chemical_formula_structural       NC8NC6H8C12NH11C12NCOH11Zn2C4O8
_chemical_formula_sum              "N4 C43 H30 O9 Zn2"
_cell_length_a       17.457602349358154
_cell_length_b       10.299770795358612
_cell_length_c       10.299148425239203
_cell_angle_alpha    85.53227456119625
_cell_angle_beta     92.86184502014838
_cell_angle_gamma    91.70596819880058

_space_group_name_H-M_alt    "P 1"
_space_group_IT_number       1

loop_
  _space_group_symop_operation_xyz
  'x, y, z'

loop_
  _atom_site_type_symbol
  _atom_site_label
  _atom_site_symmetry_multiplicity
  _atom_site_fract_x
  _atom_site_fract_y
  _atom_site_fract_z
  _atom_site_occupancy
  N   N1        1.0  0.7228977227571998  0.4534071402465687  0.6263152345481839  1.0000
  C   C1        1.0  0.6618130246480213  0.4074863088422618  0.6157022788463007  1.0000
  C   C2        1.0  0.5858210767645008  0.3503665049785345  0.6025093040641989  1.0000
  C   C3        1.0  0.5272884326992606  0.3904971388521692  0.6774085170549269  1.0000
  C   C4        1.0  0.4527348607116278  0.3354953433637129  0.6648298601563145  1.0000
  C   C5        1.0  0.3906110599399665  0.3778672827119782  0.7441509768760752  1.0000
  C   C6        1.0  0.3160762033914094  0.3963589779711938  0.6883827348243037  1.0000
  C   C7        1.0  0.2575435066145388  0.4363056411312367  0.7633899216554598  1.0000
  C   C8        1.0  0.1815709405255167  0.45540411475818976  0.7054060401171554  1.0000
  N   N2        1.0  0.1205019127113935  0.47075290778778456  0.658787150890747  1.0000
  C   C9        1.0  0.2730534710363589  0.458003538502604  0.8946738807471708  1.0000
  C   C10       1.0  0.3468036358172886  0.439900668534807  0.950829715410751  1.0000
  C   C11       1.0  0.4053246912160825  0.4001338688226139  0.8762802641200655  1.0000
  C   C12       1.0  0.4380026720228854  0.23968609198154067  0.5759190344692899  1.0000
  C   C13       1.0  0.4965235881982942  0.19983397141960602  0.5014198282265854  1.0000
  C   C14       1.0  0.5702923317713005  0.25494791307771103  0.514548459736254  1.0000
  H   H1        1.0  0.5396360950047938  0.46566373770511005  0.7440376643730662  1.0000
  H   H2        1.0  0.30374391594047  0.3814312727181055  0.5863532154518034  1.0000
  H   H3        1.0  0.2281892234434699  0.48886178139354364  0.9535109715528789  1.0000
  H   H4        1.0  0.3586225526951702  0.45638619161607585  0.0524858361482855  1.0000
  H   H5        1.0  0.46180059384164734  0.3851227978393581  0.9223906086866054  1.0000
  H   H6        1.0  0.38151136489893  0.19435494440200074  0.5652699159374419  1.0000
  H   H7        1.0  0.48469012059433136  0.12578433547395296  0.43359220458421177  1.0000
  H   H8        1.0  0.6151563873665492  0.2232197579918116  0.45622258924475  1.0000
  C   C15       1.0  0.9216339556917225  0.08070857966168066  0.6425854096949795  1.0000
  C   C16       1.0  0.899386255591146  0.08896853012025008  0.5093487543823616  1.0000
  C   C17       1.0  0.8881835457578982  0.9760208393545193  0.44180734051788706  1.0000
  C   C18       1.0  0.8995266906198047  0.8536930720893731  0.5092916658625735  1.0000
  C   C19       1.0  0.9217730022603562  0.8434417690135668  0.642528758367459  1.0000
  C   C20       1.0  0.9327024282287982  0.9574991785048749  0.7084294255057051  1.0000
  C   C21       1.0  0.864647106205624  0.9858128073492259  0.30085071982594314  1.0000
  C   C22       1.0  0.8087899282819926  0.07457289767902653  0.2510985625295068  1.0000
  C   C23       1.0  0.7866703278001586  0.08366130822912199  0.11843181679933545  1.0000
  C   C24       1.0  0.8199892563880973  0.004391683251596001  0.0334027516145905  1.0000
  C   C25       1.0  0.8756624676523365  0.9158220233265447  0.0822492626722886  1.0000
  C   C26       1.0  0.8978435312873206  0.906480280975811  0.2148910528954855  1.0000
  N   N3        1.0  0.7973310820788022  0.013817907970280041  0.8977073043191464  1.0000
  H   H9        1.0  0.930078728436414  0.40501198367575575  0.6933692208905289  1.0000
  H   H10       1.0  0.8917351164208831  0.1835616439166965  0.45736801576222774  1.0000
  H   H11       1.0  0.8899495903644197  0.766267522372688  0.4580938058104229  1.0000
  H   H12       1.0  0.949864937916451  0.9503589392152652  0.8112155549987867  1.0000
  H   H13       1.0  0.9302832360437058  0.5120845679683446  0.6932862920390679  1.0000
  H   H14       1.0  0.7814885732396871  0.1357651121887513  0.3150768073197534  1.0000
  H   H15       1.0  0.7434210651734204  0.15226953590814962  0.08198579437115128  1.0000
  H   H16       1.0  0.9020151180244214  0.8542431560211596  0.017504216258620975  1.0000
  H   H17       1.0  0.9416811610663826  0.8384085981411686  0.2499454821215581  1.0000
  H   H18       1.0  0.8218421773494663  0.9551197204671255  0.8335647982583523  1.0000
  H   H19       1.0  0.755877702164675  0.07956489318344007  0.8603847094093533  1.0000
  C   C27       1.0  0.9217612152741929  0.46223352812165763  0.26116559632789915  1.0000
  C   C28       1.0  0.999607347568683  0.5011884809371789  0.26355060865409774  1.0000
  C   C29       1.0  0.0389550619318384  0.5207199357973029  0.1476177860674508  1.0000
  C   C30       1.0  0.9994455518129216  0.5008412724191456  0.028280270279137598  1.0000
  C   C31       1.0  0.921645738645131  0.4619168139459686  0.023948582096177118  1.0000
  C   C32       1.0  0.8832599976192355  0.4428321937861994  0.14093431714264582  1.0000
  C   C33       1.0  0.12126056504971139  0.561903313620326  0.1512297208530884  1.0000
  C   C34       1.0  0.17280298554299867  0.5067810035216147  0.07184620663363761  1.0000
  C   C35       1.0  0.250215325605895  0.5456714812984367  0.07539111056156766  1.0000
  C   C36       1.0  0.2778975234079628  0.6391519946285649  0.15915265112387944  1.0000
  C   C37       1.0  0.22627930084194303  0.6961172112648177  0.23696141351041855  1.0000
  C   C38       1.0  0.14883230900961908  0.6573318902184639  0.2335105113470961  1.0000
  N   N4        1.0  0.3575809105020653  0.6788351619744597  0.15912168447563002  1.0000
  C   C39       1.0  0.40171759153610176  0.7174336461452129  0.2714531115589567  1.0000
  O   O1        1.0  0.3757559647092772  0.702138525523212  0.38369429063053606  1.0000
  H   H20       1.0  0.7749523991066959  0.38794940941738054  0.46402689860363444  1.0000
  H   H21       1.0  0.030048574606462264  0.5147119015707589  0.3559620294127823  1.0000
  H   H22       1.0  0.029215390888858384  0.5175316639337482  0.938477272865001  1.0000
  H   H23       1.0  0.8232519536400281  0.41280528976584474  0.13830834688220395  1.0000
  H   H24       1.0  0.8917240846133374  0.44690922232094454  0.6948095471040934  1.0000
  H   H25       1.0  0.15344688897631542  0.4324268927761008  0.008099119839604096  1.0000
  H   H26       1.0  0.28897205054212094  0.5018243791143242  0.01360547573309101  1.0000
  H   H27       1.0  0.24520042470582193  0.7726168812955383  0.29826617503606356  1.0000
  H   H28       1.0  0.11016659794925521  0.7038492131197989  0.29341076756360396  1.0000
  H   H29       1.0  0.38708638064218626  0.671183049974978  0.07434908762244907  1.0000
  H   H30       1.0  0.45933035560659974  0.7569867661177425  0.2603311137456623  1.0000
  Zn  Zn1       1.0  0.8376377015169534  0.45840926822928885  0.6356934273439316  1.0000
  Zn  Zn2       1.0  0.005761916150918589  0.46574012749569316  0.6494195920426522  1.0000
  C   C40       1.0  0.9216649181106377  0.4568028889226119  0.8797665392115459  1.0000
  C   C41       1.0  0.921736535747869  0.46734822543324017  0.4053467574167289  1.0000
  C   C42       1.0  0.9217435584825877  0.6992709303875775  0.6373637050060372  1.0000
  C   C43       1.0  0.9216578377119362  0.2248786211245224  0.6477496562969818  1.0000
  O   O2        1.0  0.9855305153073498  0.4718411216798075  0.45894428057842984  1.0000
  O   O3        1.0  0.9854733272067969  0.45787296566058777  0.8365864836588623  1.0000
  O   O4        1.0  0.9855359700122361  0.653668937506727  0.6408444096764978  1.0000
  O   O5        1.0  0.9854678151489396  0.27604515666286344  0.6546862524958572  1.0000
  O   O6        1.0  0.85793174514639  0.6481042365618728  0.6304267621998281  1.0000
  O   O7        1.0  0.8578691026323916  0.4523098250592399  0.8261687668165512  1.0000
  O   O8        1.0  0.8579262910120922  0.4662779364727516  0.4485250022504397  1.0000
  O   O9        1.0  0.8578635908341115  0.27048196212636655  0.6442670715419072  1.0000
