data_image0
_chemical_formula_structural       NC10NC3NCH9C12NH11C12BrH9Zn2C4O8
_chemical_formula_sum              "N4 C42 H29 Br1 Zn2 O8"
_cell_length_a       19.437513618241372
_cell_length_b       10.299770795358612
_cell_length_c       10.299148005577397
_cell_angle_alpha    85.54782545814984
_cell_angle_beta     90.32056870964719
_cell_angle_gamma    89.53989505547142

_space_group_name_H-M_alt    "P 1"
_space_group_IT_number       1

loop_
  _space_group_symop_operation_xyz
  'x, y, z'

loop_
  _atom_site_type_symbol
  _atom_site_label
  _atom_site_symmetry_multiplicity
  _atom_site_fract_x
  _atom_site_fract_y
  _atom_site_fract_z
  _atom_site_occupancy
  N   N1        1.0  0.6484255808112016  0.41067139750979753  0.575563702818483  1.0000
  C   C1        1.0  0.5894956549143068  0.4276818254823478  0.5725875916014376  1.0000
  C   C2        1.0  0.516059438167638  0.44893479293777183  0.5688934576771234  1.0000
  C   C3        1.0  0.47428277199084806  0.34774837414265836  0.5572333500521427  1.0000
  C   C4        1.0  0.3983959479160356  0.3578144674102559  0.5500116815571376  1.0000
  C   C5        1.0  0.358821530325633  0.4386487813091646  0.615757557269123  1.0000
  C   C6        1.0  0.2826396108251465  0.43004233115894364  0.6073130271349292  1.0000
  C   C7        1.0  0.2494828612360607  0.3086981940881508  0.6119563146129077  1.0000
  C   C8        1.0  0.177748585050226  0.30232796838179055  0.6047878957897015  1.0000
  C   C9        1.0  0.13820028112500032  0.4168291264671089  0.5933384373834629  1.0000
  C   C10       1.0  0.06435150991759872  0.4101207592582652  0.5860019182366143  1.0000
  N   N2        1.0  0.004982195900788801  0.4047278219867563  0.5801038152716926  1.0000
  C   C11       1.0  0.1706402334598223  0.537862542313922  0.5894404609842001  1.0000
  C   C12       1.0  0.2423589439481816  0.5444867432849032  0.5966709048704031  1.0000
  C   C13       1.0  0.3875026981593626  0.5309137494696903  0.7056820544390616  1.0000
  N   N3        1.0  0.4445024697264872  0.5941297785252502  0.6852770450553467  1.0000
  C   C14       1.0  0.4883639046809719  0.5848927461710347  0.5721640455661965  1.0000
  H   H1        1.0  0.4966531230898232  0.25269594862837974  0.5451113163178491  1.0000
  H   H2        1.0  0.37368150885444923  0.2883155566121627  0.49169057366776414  1.0000
  H   H3        1.0  0.278915853288952  0.2187851874769191  0.6229774531042722  1.0000
  H   H4        1.0  0.15313835299762632  0.20810212513981874  0.6086750058688339  1.0000
  H   H5        1.0  0.1405213937685017  0.6271201562871067  0.580731579211957  1.0000
  H   H6        1.0  0.2664877269572038  0.639125383978745  0.5927683353456799  1.0000
  H   H7        1.0  0.3574863395045282  0.5512810507173724  0.7900527971443929  1.0000
  H   H8        1.0  0.5311272461089589  0.6552030255954835  0.5779279062645204  1.0000
  H   H9        1.0  0.4587193722377115  0.6130204917360889  0.48151420873066564  1.0000
  C   C15       1.0  0.826644830854776  0.026332022776751396  0.577872620126072  1.0000
  C   C16       1.0  0.8067083979099026  0.035859107633689824  0.4462018203736706  1.0000
  C   C17       1.0  0.7966695638908516  0.9235493520664692  0.3794488947833894  1.0000
  C   C18       1.0  0.8068343423667563  0.800575404942682  0.44613486780646916  1.0000
  C   C19       1.0  0.8267695301317258  0.7890570489473613  0.5778062022783497  1.0000
  C   C20       1.0  0.8365634716292291  0.9024920872012735  0.6429376157198923  1.0000
  C   C21       1.0  0.7755782761662097  0.9346818550352584  0.24014883479502447  1.0000
  C   C22       1.0  0.7254926164856019  0.02670135567893195  0.19432166910941118  1.0000
  C   C23       1.0  0.705670996884975  0.03704955057266601  0.06321176735737288  1.0000
  C   C24       1.0  0.7355598374081663  0.9558042516855028  0.9758440114039488  1.0000
  C   C25       1.0  0.7854806207420874  0.8639857131322737  0.020778474538058367  1.0000
  C   C26       1.0  0.8053573615119115  0.8533805780671213  0.1518591036582777  1.0000
  N   N4        1.0  0.715255573624568  0.9665209895171701  0.8417433100076908  1.0000
  H   H10       1.0  0.8342122706538109  0.35015450595323827  0.6280620598073392  1.0000
  H   H11       1.0  0.7998527981359517  0.1308863100729618  0.3947597286907685  1.0000
  H   H12       1.0  0.7982515088366203  0.7136970131855752  0.3956109327043862  1.0000
  H   H13       1.0  0.8519430035915954  0.8943743453167587  0.74451579954276  1.0000
  H   H14       1.0  0.8343956764364217  0.4572150840689615  0.6279647664956494  1.0000
  H   H15       1.0  0.7010024848044153  0.08951086687018828  0.2602163526691115  1.0000
  H   H16       1.0  0.666890293947862  0.10818205307687312  0.029804752547872626  1.0000
  H   H17       1.0  0.8091200653273255  0.8008449299378684  0.95418365150879  1.0000
  H   H18       1.0  0.8446658487854901  0.7827497627948676  0.18383322468667096  1.0000
  H   H19       1.0  0.7372434972212154  0.9063689601250705  0.7758803800118139  1.0000
  H   H20       1.0  0.6780854641526263  0.034686776720738166  0.8073335845983967  1.0000
  C   C27       1.0  0.8268009679308993  0.4077450085347962  0.19645243032231674  1.0000
  C   C28       1.0  0.7620966784559616  0.4696034053851621  0.19018607882496186  1.0000
  C   C29       1.0  0.7291933382466994  0.5009152845719185  0.06986940990780366  1.0000
  C   C30       1.0  0.7618670464183159  0.4695344282478351  0.9549061264202341  1.0000
  C   C31       1.0  0.8266133861753505  0.40764406363556005  0.9592264044771315  1.0000
  C   C32       1.0  0.8586815302074249  0.37712848079281347  0.08041819558582275  1.0000
  C   C33       1.0  0.6607445010963252  0.5663559267198146  0.06428528861880389  1.0000
  C   C34       1.0  0.646309415861837  0.6679142989107663  0.1441704646789217  1.0000
  C   C35       1.0  0.5818542710322051  0.7293976855994286  0.13871948050805005  1.0000
  C   C36       1.0  0.5311016312426882  0.6903000066387597  0.053712142764106074  1.0000
  C   C37       1.0  0.5448458343369412  0.5895400165469615  0.9739656340069547  1.0000
  C   C38       1.0  0.6092424505438089  0.5278356401061743  0.9790233542321949  1.0000
  Br  Br1       1.0  0.4430964240462906  0.7744376561617123  0.046533937797782476  1.0000
  H   H21       1.0  0.8517030835578283  0.3840040542193206  0.5263344016926865  1.0000
  H   H22       1.0  0.7367127847547873  0.4919727773042899  0.27920041241442006  1.0000
  H   H23       1.0  0.7371628917889947  0.4950411896042961  0.8617728490612508  1.0000
  H   H24       1.0  0.9085905601640332  0.32941947724608966  0.08453555940181734  1.0000
  H   H25       1.0  0.9490109322386782  0.29156128003097614  0.7600341879570247  1.0000
  H   H26       1.0  0.6851350871346611  0.7008841973315938  0.20956942868138118  1.0000
  H   H27       1.0  0.571477491700356  0.8076369807724351  0.20038489569357854  1.0000
  H   H28       1.0  0.5056135233182302  0.5587288824425927  0.9082542993288851  1.0000
  H   H29       1.0  0.6184678802139156  0.44892624625272726  0.9175444339978549  1.0000
  Zn  Zn1       1.0  0.7513201209708407  0.40895271980532133  0.5768813908147974  1.0000
  Zn  Zn2       1.0  0.9020876575825715  0.40643582876966167  0.5787967985824161  1.0000
  C   C39       1.0  0.8266464710270764  0.402489503316549  0.8150462495787218  1.0000
  C   C40       1.0  0.8267629541397119  0.41290065637069606  0.3406320880645952  1.0000
  C   C41       1.0  0.8267436947257785  0.6448865204474885  0.5726433332554839  1.0000
  C   C42       1.0  0.8266656787224546  0.17050207979263932  0.5830350731119247  1.0000
  O   O1        1.0  0.8839656898503243  0.41367012613030196  0.3897469860589362  1.0000
  O   O2        1.0  0.8838728070131903  0.39980879182838525  0.767384727981969  1.0000
  O   O3        1.0  0.8839505447551408  0.5955474613874046  0.571642648093672  1.0000
  O   O4        1.0  0.8838879006870916  0.21793146673320307  0.5854889679135387  1.0000
  O   O5        1.0  0.769519826416762  0.5974570827020862  0.5701892208232082  1.0000
  O   O6        1.0  0.7694420889438076  0.40171997345049015  0.7659312313269475  1.0000
  O   O7        1.0  0.7695349722032749  0.41558126270250817  0.38829192793368383  1.0000
  O   O8        1.0  0.7694571830117656  0.21984259400379513  0.5840340071615151  1.0000
