data_image0
_chemical_formula_structural       NC10NC3NCH9C16H10C12OCH12Zn2C4O8
_chemical_formula_sum              "N3 C47 H31 O9 Zn2"
_cell_length_a       19.437513618241372
_cell_length_b       10.29914801576943
_cell_length_c       10.299794127170987
_cell_angle_alpha    85.55374609457252
_cell_angle_beta     90.34079441948666
_cell_angle_gamma    89.53623586623313

_space_group_name_H-M_alt    "P 1"
_space_group_IT_number       1

loop_
  _space_group_symop_operation_xyz
  'x, y, z'

loop_
  _atom_site_type_symbol
  _atom_site_label
  _atom_site_symmetry_multiplicity
  _atom_site_fract_x
  _atom_site_fract_y
  _atom_site_fract_z
  _atom_site_occupancy
  N   N1        1.0  0.6481125622114615  0.41017969944885646  0.575231388139078  1.0000
  C   C1        1.0  0.5891814901839425  0.42719031777553274  0.5722499318699268  1.0000
  C   C2        1.0  0.5157438459396535  0.4484435335084762  0.5685491175098101  1.0000
  C   C3        1.0  0.4739685625496967  0.34724332856528184  0.5569235713530456  1.0000
  C   C4        1.0  0.3980800495378345  0.35730718133195016  0.549699254328875  1.0000
  C   C5        1.0  0.3585149722509657  0.4381768267500019  0.6154122034743552  1.0000
  C   C6        1.0  0.2823317909104857  0.42956599233312254  0.6069713151374392  1.0000
  C   C7        1.0  0.2491801471587835  0.30821334947424495  0.611654294341337  1.0000
  C   C8        1.0  0.17744476707574533  0.30183948305215447  0.6044886575554151  1.0000
  C   C9        1.0  0.13789033700918374  0.4163456213820216  0.5930024116737753  1.0000
  C   C10       1.0  0.0640404426236078  0.40963351173824636  0.5856688022269703  1.0000
  N   N2        1.0  0.0046702256357519  0.4042375657976893  0.5797730384225883  1.0000
  C   C11       1.0  0.1703253323317707  0.5373878372951915  0.5890647760868732  1.0000
  C   C12       1.0  0.24204514930993  0.5440157277016404  0.5962923481010907  1.0000
  C   C13       1.0  0.3872095556598366  0.5304885356444402  0.7052977159235092  1.0000
  N   N3        1.0  0.444203338186179  0.5937012450656485  0.6848737230868267  1.0000
  C   C14       1.0  0.488044160009479  0.584414668273771  0.5717744352011642  1.0000
  H   H1        1.0  0.4963399962792713  0.2521774489621711  0.5448341140608708  1.0000
  H   H2        1.0  0.3733572477634236  0.2877771201178032  0.49140662480482256  1.0000
  H   H3        1.0  0.2786183256196699  0.21829730703944872  0.6227041292216859  1.0000
  H   H4        1.0  0.15283855190167453  0.207607156232968  0.6084065624305826  1.0000
  H   H5        1.0  0.14020175714929853  0.6266494267820244  0.5803271968199817  1.0000
  H   H6        1.0  0.2661698981332795  0.6386608810532965  0.5923588487223903  1.0000
  H   H7        1.0  0.3572081006572003  0.5508939589429598  0.7896537741149947  1.0000
  H   H8        1.0  0.530806107799634  0.6547335194777484  0.5775145008555216  1.0000
  H   H9        1.0  0.4583818646315622  0.6125057849033864  0.4811238368747559  1.0000
  C   C15       1.0  0.826345689452035  0.025808041142871385  0.5776671911112197  1.0000
  C   C16       1.0  0.810644929231689  0.0356300612681435  0.44399958226566305  1.0000
  C   C17       1.0  0.8027348787950374  0.9234793832701713  0.37606331536467086  1.0000
  C   C18       1.0  0.8107367953704964  0.8003765986396159  0.4435961813971194  1.0000
  C   C19       1.0  0.8264436830394496  0.7885990586622919  0.5773486171470179  1.0000
  C   C20       1.0  0.8341526494107904  0.9018323124545852  0.6435605790201633  1.0000
  C   C21       1.0  0.7861255378230596  0.9349154988515794  0.2346591077241058  1.0000
  C   C22       1.0  0.8186815338392718  0.8533632930141493  0.14986016210914088  1.0000
  C   C23       1.0  0.8030253587417139  0.8642521481991019  0.016775665591720168  1.0000
  C   C24       1.0  0.7546524543258172  0.9565956773198498  0.9666838980762815  1.0000
  C   C25       1.0  0.7219710855810927  0.03812991813294797  0.050197367051231234  1.0000
  C   C26       1.0  0.7375782059573736  0.027483152202362415  0.18330218430951617  1.0000
  C   C27       1.0  0.7385597976497542  0.9676816328760575  0.8296612838394877  1.0000
  C   C28       1.0  0.7250823711351465  0.9769660144771422  0.7149068259182609  1.0000
  C   C29       1.0  0.7093004638543154  0.9878379003762343  0.5805305261408282  1.0000
  C   C30       1.0  0.6958252992886143  0.9971208724341533  0.4657946039128804  1.0000
  H   H10       1.0  0.8323494910174358  0.3495052650234307  0.629095121812673  1.0000
  H   H11       1.0  0.8054579241806952  0.1307568745229788  0.3920259049435262  1.0000
  H   H12       1.0  0.803773932376659  0.7135845665015548  0.39209444189230513  1.0000
  H   H13       1.0  0.8462610364007237  0.8935404792794189  0.7466626667582539  1.0000
  H   H14       1.0  0.8556635378437579  0.5590701579211936  0.8299721301179355  1.0000
  H   H15       1.0  0.8568982793222533  0.7823320476268976  0.18619493663160824  1.0000
  H   H16       1.0  0.8287693156414979  0.8008817050392442  0.9529317867753897  1.0000
  H   H17       1.0  0.6843016502752365  0.10971599956509448  0.012499736563065467  1.0000
  H   H18       1.0  0.7110322744357594  0.0904769221227355  0.24633309881846488  1.0000
  H   H19       1.0  0.6839930199709612  0.005272105171548969  0.3650467902757435  1.0000
  C   C31       1.0  0.8264178810514113  0.40708968381477084  0.19615680112862988  1.0000
  C   C32       1.0  0.7589942973669835  0.3590865864491415  0.19812523370341006  1.0000
  C   C33       1.0  0.7248113279848779  0.3348659499879749  0.08197550236341455  1.0000
  C   C34       1.0  0.7589475526961442  0.3593138509985856  0.9628196516826177  1.0000
  C   C35       1.0  0.8263715216702026  0.40731744941328496  0.9588589619677719  1.0000
  C   C36       1.0  0.8597298380080175  0.4309336736220286  0.07604254119119536  1.0000
  C   C37       1.0  0.6534829646192272  0.284074263735961  0.085112717459906  1.0000
  C   C38       1.0  0.604236327211086  0.33356609682214544  0.9933167060754293  1.0000
  C   C39       1.0  0.5371987341888549  0.28574922724493024  0.9965345929583593  1.0000
  C   C40       1.0  0.518433376508346  0.1881199454394067  0.09102333772689297  1.0000
  C   C41       1.0  0.5670010872513715  0.13723471386874153  0.18367387257585954  1.0000
  C   C42       1.0  0.6341322851101568  0.18568962247675058  0.18000553407016473  1.0000
  O   O1        1.0  0.5507943087415077  0.03892377137199521  0.2803304315368875  1.0000
  C   C43       1.0  0.4848389013807179  0.9807444831768266  0.2955523836886125  1.0000
  H   H20       1.0  0.8521183016564089  0.42532245446533534  0.5228644431765574  1.0000
  H   H21       1.0  0.7325603647074217  0.3420968444944732  0.29007286248738806  1.0000
  H   H22       1.0  0.7331544880178137  0.33914755249873507  0.8731682192548362  1.0000
  H   H23       1.0  0.9117445881838843  0.46796520020304366  0.07375559088719119  1.0000
  H   H24       1.0  0.8520491007055225  0.42567040550106805  0.6298921934127684  1.0000
  H   H25       1.0  0.617330528387042  0.41042035886288386  0.9201324705917657  1.0000
  H   H26       1.0  0.4995875819364021  0.3247746029188947  0.9257015409965721  1.0000
  H   H27       1.0  0.4661610800316661  0.15295389793854874  0.09120108121102777  1.0000
  H   H28       1.0  0.6714399378935139  0.14491914028178865  0.25066168781032205  1.0000
  H   H29       1.0  0.4706521914345529  0.932521157995374  0.20653146797043376  1.0000
  H   H30       1.0  0.4865972123284014  0.906233190505817  0.37927790294233543  1.0000
  H   H31       1.0  0.44566309317669056  0.05566184878535707  0.3152992995167738  1.0000
  Zn  Zn1       1.0  0.7510074064099627  0.40846144077142776  0.5765495203667128  1.0000
  Zn  Zn2       1.0  0.9017753856272774  0.4059451572282571  0.5784655800255354  1.0000
  C   C44       1.0  0.8263780651952431  0.4021002988306672  0.8146940780115106  1.0000
  C   C45       1.0  0.8264063734264321  0.4123079104846652  0.34032117008007035  1.0000
  C   C46       1.0  0.8264219393039403  0.6444138437396507  0.5722338374553646  1.0000
  C   C47       1.0  0.8263624476664724  0.16999280602315392  0.5827814798695512  1.0000
  O   O2        1.0  0.8836181730134345  0.41309861232249623  0.38943118627949436  1.0000
  O   O3        1.0  0.8835956731974637  0.39939881609111993  0.7670379333392119  1.0000
  O   O4        1.0  0.8836303307184867  0.5950700813540937  0.57124956327737  1.0000
  O   O5        1.0  0.8835834640526281  0.21742735718007622  0.5852194583135175  1.0000
  O   O6        1.0  0.7691992765349007  0.5969792416797046  0.5697956414180423  1.0000
  O   O7        1.0  0.7691646192154289  0.40130953682935555  0.7655839415858607  1.0000
  O   O8        1.0  0.769187119166293  0.4150092873340361  0.3879756332179234  1.0000
  O   O9        1.0  0.7691524101955587  0.21933802293115856  0.5837640026190767  1.0000
