data_image0
_chemical_formula_structural       NC12NC2H8C16H10C12SCH12Zn2C4O8
_chemical_formula_sum              "N2 C47 H30 S1 Zn2 O8"
_cell_length_a       17.80743265337812
_cell_length_b       10.29914801576943
_cell_length_c       10.299780138516091
_cell_angle_alpha    85.5534209466543
_cell_angle_beta     91.52646952147009
_cell_angle_gamma    89.44985071264975

_space_group_name_H-M_alt    "P 1"
_space_group_IT_number       1

loop_
  _space_group_symop_operation_xyz
  'x, y, z'

loop_
  _atom_site_type_symbol
  _atom_site_label
  _atom_site_symmetry_multiplicity
  _atom_site_fract_x
  _atom_site_fract_y
  _atom_site_fract_z
  _atom_site_occupancy
  N   N1        1.0  0.7077196807205652  0.4063507370824344  0.6008731475421263  1.0000
  C   C1        1.0  0.6569089466973861  0.4358899120199633  0.5321672759834672  1.0000
  C   C2        1.0  0.5936953778663748  0.47263450263868534  0.4467058200506271  1.0000
  C   C3        1.0  0.6054387271961184  0.5266189775464138  0.3200730984636837  1.0000
  C   C4        1.0  0.5441321294396654  0.5618606234852894  0.23700805746488207  1.0000
  C   C5        1.0  0.47092796361580463  0.5433810687952663  0.27991577534860945  1.0000
  C   C6        1.0  0.4582077907255794  0.4892779315361959  0.4070166559725943  1.0000
  C   C7        1.0  0.5203717062180883  0.454039534460823  0.4900651850644442  1.0000
  C   C8        1.0  0.3804350569245797  0.46968507685166005  0.45278491895205053  1.0000
  C   C9        1.0  0.3616440657263025  0.49691462554009713  0.5798107155803311  1.0000
  C   C10       1.0  0.2884099568391231  0.47847666067642813  0.6227589777026974  1.0000
  C   C11       1.0  0.2330237767130107  0.43255512456308964  0.5395194572884967  1.0000
  C   C12       1.0  0.15765288974058264  0.4135647402157354  0.5838687725941232  1.0000
  N   N2        1.0  0.09706003405733002  0.3982977483720411  0.6195225711745425  1.0000
  C   C13       1.0  0.2511232141145728  0.40515682459116964  0.4130366613715324  1.0000
  C   C14       1.0  0.3243044875194798  0.4236094935560253  0.36983252265394273  1.0000
  H   H1        1.0  0.6619087999885441  0.5414328525034768  0.28563253148984713  1.0000
  H   H2        1.0  0.5533426897787003  0.6039295999813976  0.1392188432478485  1.0000
  H   H3        1.0  0.4242971786525677  0.5729978622641605  0.2143176238117146  1.0000
  H   H4        1.0  0.5118593509694594  0.41058509450408476  0.5877304992638324  1.0000
  H   H5        1.0  0.40332099432341734  0.5341181523150007  0.6453652559165755  1.0000
  H   H6        1.0  0.2749628268003857  0.5003556777517884  0.7207531997372885  1.0000
  H   H7        1.0  0.2087295488546965  0.3692208181601655  0.3478945575682406  1.0000
  H   H8        1.0  0.3372229957477108  0.40019490005678326  0.27214221301254704  1.0000
  C   C15       1.0  0.9023399440121003  0.020923958967332235  0.6103609904782097  1.0000
  C   C16       1.0  0.8851973219303514  0.030839650973954802  0.47607200020776697  1.0000
  C   C17       1.0  0.8765608683762159  0.9187361681444253  0.4078226803416267  1.0000
  C   C18       1.0  0.8852976395928966  0.7955856467072103  0.475672233667368  1.0000
  C   C19       1.0  0.9024469514146973  0.7837143981142523  0.6100462933841859  1.0000
  C   C20       1.0  0.910863854729672  0.8969016564876184  0.6765633500005082  1.0000
  C   C21       1.0  0.8584262270579013  0.9302713762741038  0.26576113281166913  1.0000
  C   C22       1.0  0.8939765768859023  0.8485269058550289  0.18225020850659224  1.0000
  C   C23       1.0  0.8768826317597709  0.8595091658172265  0.048546095330948  1.0000
  C   C24       1.0  0.8240628483156696  0.9521393256225518  0.9965403280607874  1.0000
  C   C25       1.0  0.7883756150720992  0.033866580185396344  0.0787608136496345  1.0000
  C   C26       1.0  0.8054159950132991  0.02312669976186399  0.2124833066733438  1.0000
  C   C27       1.0  0.8064923406399279  0.9633212912441198  0.8588808224796383  1.0000
  C   C28       1.0  0.7917772298353941  0.972686080237376  0.7435929749227266  1.0000
  C   C29       1.0  0.7745460088704064  0.9836521222440975  0.6085920821809925  1.0000
  C   C30       1.0  0.7598333677475292  0.9930154882031548  0.49332285983656243  1.0000
  H   H9        1.0  0.9088950940098497  0.34458536201857326  0.6620265311179654  1.0000
  H   H10       1.0  0.8795340735637026  0.12599745274197693  0.42389302996592937  1.0000
  H   H11       1.0  0.8776952507747973  0.7088351132627161  0.4238949375612022  1.0000
  H   H12       1.0  0.9240842017500068  0.8885375836943674  0.780144645559852  1.0000
  H   H13       1.0  0.9343501299179013  0.5540111486022948  0.8638262310802307  1.0000
  H   H14       1.0  0.9357065958055523  0.7772692270869116  0.22009712408113158  1.0000
  H   H15       1.0  0.9049943609041461  0.7959866701978174  0.9857207351851853  1.0000
  H   H16       1.0  0.7472432446544738  0.10567586243076588  0.03957269555862197  1.0000
  H   H17       1.0  0.7764285661946853  0.0862772740981943  0.2744639703211922  1.0000
  H   H18       1.0  0.7469144843941953  0.001237313260300521  0.39210676576287584  1.0000
  C   C31       1.0  0.9024236321495127  0.4022072473650231  0.228853001879318  1.0000
  C   C32       1.0  0.8309848328284443  0.34566839868070476  0.22894983188525364  1.0000
  C   C33       1.0  0.7947565203105239  0.31713460450357966  0.11185050899829396  1.0000
  C   C34       1.0  0.8309233597664164  0.34589512823839486  0.9936428962982937  1.0000
  C   C35       1.0  0.9023632788327587  0.4024311300403196  0.9915542828150494  1.0000
  C   C36       1.0  0.9377133383437177  0.4302713843962853  0.10966330720026662  1.0000
  C   C37       1.0  0.7191792334456005  0.257336291773252  0.11301570072641098  1.0000
  C   C38       1.0  0.6635464418485667  0.300151489220575  0.019376947750816775  1.0000
  C   C39       1.0  0.5924295630294564  0.24383887542260885  0.020710935705897437  1.0000
  C   C40       1.0  0.5759082964233125  0.14436233128618392  0.11552415209389655  1.0000
  C   C41       1.0  0.6308723682046572  0.10076196481616284  0.20872555799847925  1.0000
  C   C42       1.0  0.7020357001922409  0.1569001732498625  0.20775627579492295  1.0000
  S   S1        1.0  0.48468636093660633  0.07197165612170764  0.11678715557333175  1.0000
  C   C43       1.0  0.4461765769255319  0.18699310636837807  0.22362360180224594  1.0000
  H   H19       1.0  0.929656033631462  0.4237033845325442  0.5562736590192896  1.0000
  H   H20       1.0  0.8029059076472789  0.3253250824150884  0.32016297316454323  1.0000
  H   H21       1.0  0.8036773387653927  0.3224552390735922  0.9032756690255397  1.0000
  H   H22       1.0  0.9928255056263827  0.47388791220624205  0.10882024359555831  1.0000
  H   H23       1.0  0.9295685250085336  0.42403268612516354  0.6632997612957907  1.0000
  H   H24       1.0  0.6747286069703918  0.378294654775188  0.9462014544151218  1.0000
  H   H25       1.0  0.5501051628916905  0.2780503972760937  0.9483383170679369  1.0000
  H   H26       1.0  0.6185420752669529  0.02333858041659642  0.2819706287824397  1.0000
  H   H27       1.0  0.7439556152818602  0.12064585547940743  0.2800095645755818  1.0000
  H   H28       1.0  0.4779433066020558  0.18030543959247836  0.31816186547304603  1.0000
  H   H29       1.0  0.3865549741648684  0.1630954160342586  0.2415506150818807  1.0000
  H   H30       1.0  0.44909463864683224  0.2876632925050915  0.17712984623892725  1.0000
  Zn  Zn1       1.0  0.8200748987387303  0.40402335312758786  0.6062624563567747  1.0000
  Zn  Zn2       1.0  0.9847048112206142  0.40061454110741557  0.6141438592741295  1.0000
  C   C44       1.0  0.9023722775832339  0.3972147370181802  0.8473894410386935  1.0000
  C   C45       1.0  0.9024092303494563  0.40742475878419837  0.3730170874410814  1.0000
  C   C46       1.0  0.9024232736536786  0.6395293397035966  0.6049306472722442  1.0000
  C   C47       1.0  0.9023581778779303  0.1651085968516428  0.6154759483972954  1.0000
  O   O1        1.0  0.9648805899897339  0.40787651067607933  0.42439082518150517  1.0000
  O   O2        1.0  0.9648512121319571  0.3941747957648807  0.8019971323254469  1.0000
  O   O3        1.0  0.9648915497879327  0.5898469197548217  0.6062099000456118  1.0000
  O   O4        1.0  0.9648401961657305  0.21220439711173866  0.6201779573981197  1.0000
  O   O5        1.0  0.8399394576135054  0.5924334982879371  0.6002283555364174  1.0000
  O   O6        1.0  0.8398991201785022  0.39676293470980717  0.7960155179301205  1.0000
  O   O7        1.0  0.83992849820346  0.4104646039019948  0.4184076494814344  1.0000
  O   O8        1.0  0.8398881043673758  0.21479248107672633  0.6141948790649021  1.0000
