data_image0
_chemical_formula_structural       NC12NC2H8C12SCH12C12NCOCH13Zn2C4O8
_chemical_formula_sum              "N3 C45 H33 S1 O9 Zn2"
_cell_length_a       19.240039667572717
_cell_length_b       10.299776766347529
_cell_length_c       10.299158637457994
_cell_angle_alpha    85.5824420436923
_cell_angle_beta     89.9815795743678
_cell_angle_gamma    89.97991714870845

_space_group_name_H-M_alt    "P 1"
_space_group_IT_number       1

loop_
  _space_group_symop_operation_xyz
  'x, y, z'

loop_
  _atom_site_type_symbol
  _atom_site_label
  _atom_site_symmetry_multiplicity
  _atom_site_fract_x
  _atom_site_fract_y
  _atom_site_fract_z
  _atom_site_occupancy
  N   N1        1.0  0.6544570558060009  0.4207538712613026  0.5675172233664194  1.0000
  C   C1        1.0  0.5943086869870674  0.42075395521278014  0.5675171414334474  1.0000
  C   C2        1.0  0.5194906498475346  0.42075407244883434  0.5675170041340705  1.0000
  C   C3        1.0  0.4830112293696395  0.3563258874019981  0.6709263489532316  1.0000
  C   C4        1.0  0.4103404871767152  0.35621503779750174  0.6710128856450508  1.0000
  C   C5        1.0  0.3731584149320312  0.4207541649328237  0.5675167764553799  1.0000
  C   C6        1.0  0.4103520210059818  0.4852934791210075  0.46402086181930025  1.0000
  C   C7        1.0  0.48302271539988106  0.4851823940626929  0.46410752099920227  1.0000
  C   C8        1.0  0.2959533245235911  0.4207540862388981  0.5675166810342105  1.0000
  C   C9        1.0  0.25877956011625325  0.30750924746117203  0.6093810470316785  1.0000
  C   C10       1.0  0.1861088673951518  0.3076161144036267  0.6092897270655222  1.0000
  C   C11       1.0  0.1496210376141467  0.42075395708883434  0.5675167419373712  1.0000
  C   C12       1.0  0.0748030004377284  0.42075384343467337  0.5675169905939079  1.0000
  N   N2        1.0  0.0146546835574082  0.4207538026848805  0.5675171990129546  1.0000
  C   C13       1.0  0.18608071868463108  0.5338918755822408  0.5257437039224715  1.0000
  C   C14       1.0  0.2587514105597375  0.5339989225865196  0.5256522213708801  1.0000
  H   H1        1.0  0.510721560541815  0.30644442338546574  0.7516654530582472  1.0000
  H   H2        1.0  0.3832423038194259  0.3071320425227715  0.7528675560453999  1.0000
  H   H3        1.0  0.3832636735788204  0.5343765014299959  0.38216614057162324  1.0000
  H   H4        1.0  0.5107421556621211  0.5350637579147746  0.3833686926864308  1.0000
  H   H5        1.0  0.28588419879579596  0.21836577245090605  0.6405436198598693  1.0000
  H   H6        1.0  0.15840504235282069  0.2193721730021585  0.6414853313645135  1.0000
  H   H7        1.0  0.15835472028127157  0.6221357924522299  0.49354811417258904  1.0000
  H   H8        1.0  0.2858332506902554  0.6231424767568141  0.49448960377545603  1.0000
  C   C15       1.0  0.834624740243301  0.039388710220278345  0.5675155997491779  1.0000
  C   C16       1.0  0.8387778778652752  0.027875552000410586  0.7040301829365079  1.0000
  C   C17       1.0  0.84081538867984  0.904903124001862  0.773208567465117  1.0000
  C   C18       1.0  0.8386449765673892  0.7925877810412664  0.7040453733644316  1.0000
  C   C19       1.0  0.8344936953192238  0.8021089914833888  0.5675300407909134  1.0000
  C   C20       1.0  0.8325064239922464  0.925948576481602  0.5000293286701076  1.0000
  C   C21       1.0  0.8452012802927744  0.8937874077982124  0.9176255934145239  1.0000
  C   C22       1.0  0.8054109504461906  0.8003533493342126  0.9916686633508054  1.0000
  C   C23       1.0  0.809559462031948  0.7901266142277668  0.12757865443586125  1.0000
  C   C24       1.0  0.8533247056861495  0.8730560125727188  0.19125225704166426  1.0000
  C   C25       1.0  0.8932806609196827  0.965916773145172  0.11858225884289764  1.0000
  C   C26       1.0  0.8892340649696614  0.9764933932935741  0.9826618526853765  1.0000
  S   S1        1.0  0.8587244602310173  0.8594731667503085  0.3656434742520168  1.0000
  C   C27       1.0  0.7888800878816822  0.9755419514194655  0.38517229893083393  1.0000
  H   H9        1.0  0.8330695497055527  0.37122922808441117  0.5154973466414199  1.0000
  H   H10       1.0  0.8394792337702396  0.11472548881347722  0.7569887816205392  1.0000
  H   H11       1.0  0.8411585771973059  0.6975928401356584  0.756807834390514  1.0000
  H   H12       1.0  0.8293029301058846  0.934062000226469  0.39471413231974894  1.0000
  H   H13       1.0  0.8328771686782469  0.47828323686272733  0.5155164534806567  1.0000
  H   H14       1.0  0.7704316708866071  0.7363724989823663  0.9445543028971402  1.0000
  H   H15       1.0  0.7784760024876379  0.7180841861863999  0.1833004376917059  1.0000
  H   H16       1.0  0.9275199567795516  0.02995406523562849  0.16728556195774702  1.0000
  H   H17       1.0  0.9211944870758527  0.04816737387701875  0.9283531191304513  1.0000
  H   H18       1.0  0.802801930770542  0.07185424259947215  0.33629439223779634  1.0000
  H   H19       1.0  0.7808085358266929  0.986258851752371  0.4904521088133622  1.0000
  H   H20       1.0  0.739980666585551  0.9399944477291209  0.34305000603324576  1.0000
  C   C28       1.0  0.8346243914223728  0.4206108877841088  0.18614971427504123  1.0000
  C   C29       1.0  0.8362157526802618  0.5573127916775118  0.17483875408561245  1.0000
  C   C30       1.0  0.8369680213890468  0.626762404229787  0.05194631112217163  1.0000
  C   C31       1.0  0.8360826410920175  0.5576726578800408  0.9395272823264067  1.0000
  C   C32       1.0  0.8344940225795244  0.420886845929916  0.9488959347775738  1.0000
  C   C33       1.0  0.8337777183944426  0.35319702482895265  0.07259505696014501  1.0000
  C   C34       1.0  0.8386523192355217  0.7713762439393854  0.04095424175357598  1.0000
  C   C35       1.0  0.8812994279626817  0.8392094683044264  0.12352289930152938  1.0000
  C   C36       1.0  0.8828901053424244  0.9752987184139328  0.11304792503903083  1.0000
  C   C37       1.0  0.8423059735094183  0.046283387627476635  0.01889971749466479  1.0000
  C   C38       1.0  0.7988311072057209  0.9788105478259987  0.9381141462723224  1.0000
  C   C39       1.0  0.7972689594996235  0.8427492068842448  0.9483281342004237  1.0000
  N   N3        1.0  0.8420164879135155  0.18632797234269516  0.007666986471950743  1.0000
  C   C40       1.0  0.9015505238426922  0.2653150702323477  0.030900035695352157  1.0000
  O   O1        1.0  0.9614831818863984  0.21590288435214733  0.03941522515956164  1.0000
  C   C41       1.0  0.8933730731889993  0.4091287941295625  0.03550531522337308  1.0000
  H   H21       1.0  0.8340340609681856  0.3680276263970239  0.5179761666914231  1.0000
  H   H22       1.0  0.8359028519452341  0.6101295150467547  0.26179060749461325  1.0000
  H   H23       1.0  0.8375803219104853  0.6106857342626704  0.8445566756607339  1.0000
  H   H24       1.0  0.8325526435106549  0.24775565253136622  0.08060456767679103  1.0000
  H   H25       1.0  0.8319175302178363  0.1626954041902713  0.7592865595124199  1.0000
  H   H26       1.0  0.9138376522751186  0.786982939341059  0.19571444674109073  1.0000
  H   H27       1.0  0.9149533079709632  0.024637803860010354  0.18008036891735535  1.0000
  H   H28       1.0  0.7663125219443558  0.03191207542859109  0.8664919059399878  1.0000
  H   H29       1.0  0.7629287841542418  0.7933633422227233  0.8849799317010709  1.0000
  H   H30       1.0  0.7969547186763589  0.23378250524916977  0.9727211573510264  1.0000
  H   H31       1.0  0.8444981006536478  0.4308432661252093  0.08692353590307689  1.0000
  H   H32       1.0  0.8914964130350297  0.4557956725424024  0.9347874023485554  1.0000
  H   H33       1.0  0.937707316817986  0.4498960242656609  0.08816083909916395  1.0000
  Zn  Zn1       1.0  0.7584023189654032  0.4207503870128888  0.5675247047809151  1.0000
  Zn  Zn2       1.0  0.910709439177869  0.42074669739241255  0.5675203164141935  1.0000
  C   C42       1.0  0.8345180015098843  0.415661036678177  0.8047204437089397  1.0000
  C   C43       1.0  0.8345954195190359  0.4258376863362925  0.330324704937073  1.0000
  C   C44       1.0  0.8345157541373053  0.6579367565977061  0.5623520646576565  1.0000
  C   C45       1.0  0.8345976151761294  0.18356040615595282  0.5726931531997461  1.0000
  O   O2        1.0  0.8923854556226228  0.4275847818007834  0.37870948338864796  1.0000
  O   O3        1.0  0.892325545732945  0.41391016102907696  0.7563319607199097  1.0000
  O   O4        1.0  0.8923229515519636  0.6095508693661624  0.5606177798874834  1.0000
  O   O5        1.0  0.8923879978465482  0.2319440827198609  0.5744235668470121  1.0000
  O   O6        1.0  0.7767237083217795  0.6095530016881112  0.5606214543427628  1.0000
  O   O7        1.0  0.7767263022433021  0.4139138536145066  0.7563355659584656  1.0000
  O   O8        1.0  0.776786212453863  0.42758842856583157  0.3787115272085473  1.0000
  O   O9        1.0  0.7767887546599  0.23194772023141663  0.5744257080356399  1.0000
