data_image0
_chemical_formula_structural       NC10NC3NH7C13OH12C12OCH12Zn2C4O8
_chemical_formula_sum              "N3 C43 H31 O10 Zn2"
_cell_length_a       19.210446455230148
_cell_length_b       10.299150109392551
_cell_length_c       10.299794127170987
_cell_angle_alpha    85.5569512017134
_cell_angle_beta     89.98403246644892
_cell_angle_gamma    89.92850971851941

_space_group_name_H-M_alt    "P 1"
_space_group_IT_number       1

loop_
  _space_group_symop_operation_xyz
  'x, y, z'

loop_
  _atom_site_type_symbol
  _atom_site_label
  _atom_site_symmetry_multiplicity
  _atom_site_fract_x
  _atom_site_fract_y
  _atom_site_fract_z
  _atom_site_occupancy
  N   N1        1.0  0.6553088838081568  0.4198861735152153  0.5669425454105053  1.0000
  C   C1        1.0  0.5950797613286639  0.42209389461705404  0.567172985088459  1.0000
  C   C2        1.0  0.520274611185913  0.4248310644472648  0.5674584704394361  1.0000
  C   C3        1.0  0.48463336227765513  0.5410731987877762  0.5825327996070384  1.0000
  C   C4        1.0  0.4119678459313245  0.5412247314175462  0.582480157063199  1.0000
  C   C5        1.0  0.3751076714163399  0.4255401006584394  0.5675447254170314  1.0000
  C   C6        1.0  0.2977858975233689  0.4241834961818216  0.5673945692474507  1.0000
  C   C7        1.0  0.2600076374995779  0.527743491375003  0.5040033135064999  1.0000
  C   C8        1.0  0.1872296475670945  0.5263411401092031  0.5038946874213728  1.0000
  C   C9        1.0  0.1512284424257977  0.4216363061706552  0.5671262415643694  1.0000
  C   C10       1.0  0.0762992632221424  0.4203341029930381  0.5669898308136809  1.0000
  N   N2        1.0  0.0160616849583933  0.4192870874361081  0.5668801914582025  1.0000
  C   C11       1.0  0.1882830136192269  0.31820200480342753  0.6304924504349938  1.0000
  C   C12       1.0  0.2610629210475101  0.319330084007722  0.6306514063993831  1.0000
  C   C13       1.0  0.4133583018817716  0.3111184182283322  0.5527579715474915  1.0000
  N   N3        1.0  0.4841276124165159  0.3135635958838001  0.5529227540299857  1.0000
  H   H1        1.0  0.5127107863616157  0.6305158504004518  0.5945523784463576  1.0000
  H   H2        1.0  0.3846752474226436  0.631249663574341  0.5958942044480415  1.0000
  H   H3        1.0  0.2867158038077304  0.6089882754840656  0.45298963323946895  1.0000
  H   H4        1.0  0.1590642849572401  0.6067585261470516  0.45421159404381983  1.0000
  H   H5        1.0  0.1609352971592698  0.23682113278937966  0.6800763683930366  1.0000
  H   H6        1.0  0.2885833259934804  0.23903228084547323  0.6817721150636575  1.0000
  H   H7        1.0  0.387116931203178  0.2202304970512592  0.5392979519337067  1.0000
  C   C14       1.0  0.8357542079742155  0.038186929342130194  0.5670554769111291  1.0000
  C   C15       1.0  0.8344635636058566  0.02642397702135435  0.7038596330584601  1.0000
  C   C16       1.0  0.8337486277455392  0.9033253357506783  0.7729585731652313  1.0000
  C   C17       1.0  0.8343293773349213  0.7911687512764586  0.7034962793166093  1.0000
  C   C18       1.0  0.8356230115655674  0.8009763171284292  0.5667785173318145  1.0000
  C   C19       1.0  0.836329781488479  0.9249460588849043  0.49935708381202093  1.0000
  C   C20       1.0  0.8323772086423781  0.8918632006502872  0.9175917420588775  1.0000
  C   C21       1.0  0.7895698842346228  0.7990734767002616  0.9856171729070418  1.0000
  C   C22       1.0  0.7882563183126764  0.7883690666234289  0.12171684427460228  1.0000
  C   C23       1.0  0.830182893411395  0.8692957266244363  0.19225138553307253  1.0000
  C   C24       1.0  0.8723242079162488  0.9630403746875329  0.12486860948257605  1.0000
  C   C25       1.0  0.8736539321541525  0.9739205548815715  0.9887686466232051  1.0000
  C   C26       1.0  0.8273077431223352  0.8601497817790386  0.33833089675731487  1.0000
  O   O1        1.0  0.7752779044804441  0.9434230857001547  0.3785785475425174  1.0000
  H   H8        1.0  0.8377381206527565  0.2676836400063516  0.308831299541261  1.0000
  H   H9        1.0  0.8330463556966837  0.11321352335826274  0.7568658222851634  1.0000
  H   H10       1.0  0.8347232751155347  0.6960592656579898  0.7563271015444553  1.0000
  H   H11       1.0  0.8373256305744228  0.9332271397308679  0.39390258341404594  1.0000
  H   H12       1.0  0.8360737365263208  0.47727326072821225  0.5141920792142594  1.0000
  H   H13       1.0  0.7562834151451283  0.7361067031251588  0.9335168210364133  1.0000
  H   H14       1.0  0.7543915986498981  0.7171086425090208  0.1720957568064022  1.0000
  H   H15       1.0  0.904328428989447  0.02756243971943606  0.1777153516672979  1.0000
  H   H16       1.0  0.9075419249351885  0.04562658093597127  0.9391963332624356  1.0000
  H   H17       1.0  0.8785079906209434  0.8879042798044207  0.37849005761661725  1.0000
  H   H18       1.0  0.8159931354957729  0.7581570017280466  0.37614355608328764  1.0000
  H   H19       1.0  0.7755297667944484  0.9337702839213963  0.47520038491970473  1.0000
  C   C27       1.0  0.8357121078175308  0.41946812251408194  0.18556559058296918  1.0000
  C   C28       1.0  0.7675100805575105  0.3704548577579141  0.18840186589107089  1.0000
  C   C29       1.0  0.7329324142324565  0.34572207776169517  0.07269212722250451  1.0000
  C   C30       1.0  0.7674627175125892  0.37068142091339484  0.9530969001922753  1.0000
  C   C31       1.0  0.8356651344421566  0.4196951924902872  0.9482683627975987  1.0000
  C   C32       1.0  0.8694086318562869  0.4438112050182008  0.06502256290014374  1.0000
  C   C33       1.0  0.6607805269675493  0.2938617211654906  0.0767474449488117  1.0000
  C   C34       1.0  0.6109397753560862  0.3426153816335633  0.9855900653406828  1.0000
  C   C35       1.0  0.5431282219904227  0.2937941280897387  0.9896708216975139  1.0000
  C   C36       1.0  0.5241716554565172  0.1958840345513133  0.0843963671600032  1.0000
  C   C37       1.0  0.5733259166222289  0.14572680729983878  0.17641695787594402  1.0000
  C   C38       1.0  0.6412319829933328  0.1951875000051131  0.171884577185619  1.0000
  O   O2        1.0  0.5569582254565733  0.04717339679146981  0.2732772440414788  1.0000
  C   C39       1.0  0.49024471415126747  0.9880059830849358  0.2893475104187555  1.0000
  H   H20       1.0  0.8617092740006034  0.4380859475179586  0.5119424259850522  1.0000
  H   H21       1.0  0.7407704004264447  0.35306906458609166  0.2806898419656505  1.0000
  H   H22       1.0  0.7413724016026855  0.3501286875298315  0.8637773618834088  1.0000
  H   H23       1.0  0.9220239221889377  0.4816220376204634  0.062066104621568696  1.0000
  H   H24       1.0  0.8616391541316708  0.43843286016174643  0.6189710892731726  1.0000
  H   H25       1.0  0.6241647630705683  0.41966555506847514  0.9122410844810949  1.0000
  H   H26       1.0  0.505062956160242  0.332255733994554  0.9193255811939758  1.0000
  H   H27       1.0  0.4712952265880397  0.15993481413780342  0.08524704881269685  1.0000
  H   H28       1.0  0.6789907070213185  0.15497624656844944  0.2420567399990181  1.0000
  H   H29       1.0  0.4759057230706872  0.9395702599892117  0.20050705567305238  1.0000
  H   H30       1.0  0.49204620501848334  0.9135213384207281  0.37304613814639165  1.0000
  H   H31       1.0  0.4505855523357133  0.0623359879922285  0.30960445766160394  1.0000
  Zn  Zn1       1.0  0.7594143488249122  0.41970982811286217  0.5669320513874692  1.0000
  Zn  Zn2       1.0  0.9119562051666207  0.4194528526024377  0.5669013246128898  1.0000
  C   C40       1.0  0.8356733304162433  0.4144781609173309  0.8041031010447981  1.0000
  C   C41       1.0  0.8356988890379041  0.42468615578164726  0.3297304014855613  1.0000
  C   C42       1.0  0.8356445458135973  0.6567913901074423  0.5616559169406712  1.0000
  C   C43       1.0  0.8357276218527985  0.18237136627126294  0.5721776554022413  1.0000
  O   O3        1.0  0.8935832931723854  0.42633418834768166  0.37810177039295945  1.0000
  O   O4        1.0  0.8935646658583825  0.41263410997199457  0.7557080377533858  1.0000
  O   O5        1.0  0.893540641475264  0.6083051087286508  0.559930220902068  1.0000
  O   O6        1.0  0.8936072655077028  0.23066319894069975  0.5738794898811939  1.0000
  O   O7        1.0  0.7777632364287811  0.6084994818637057  0.5599538861228193  1.0000
  O   O8        1.0  0.7777872605446021  0.4128300435164267  0.7557316331652384  1.0000
  O   O9        1.0  0.7778058880088935  0.42653007616762273  0.3781238044922799  1.0000
  O   O10       1.0  0.777829860336963  0.23085907750007184  0.5739016213472519  1.0000
