data_image0
_chemical_formula_structural       NC11NC3H8C12NH11C13F3H9Zn2C4O8
_chemical_formula_sum              "N3 C43 H28 F3 Zn2 O8"
_cell_length_a       17.807433833752565
_cell_length_b       10.299770795358612
_cell_length_c       10.2985328690268
_cell_angle_alpha    85.57387741516429
_cell_angle_beta     88.52982223362811
_cell_angle_gamma    90.70213480944165

_space_group_name_H-M_alt    "P 1"
_space_group_IT_number       1

loop_
  _space_group_symop_operation_xyz
  'x, y, z'

loop_
  _atom_site_type_symbol
  _atom_site_label
  _atom_site_symmetry_multiplicity
  _atom_site_fract_x
  _atom_site_fract_y
  _atom_site_fract_z
  _atom_site_occupancy
  N   N1        1.0  0.7075848632521407  0.43801045530319827  0.5344380980798729  1.0000
  C   C1        1.0  0.6567630492505281  0.4033049234243484  0.6010077166023915  1.0000
  C   C2        1.0  0.5935355870259063  0.36013410153326664  0.6838118269606401  1.0000
  C   C3        1.0  0.6052584798628801  0.2966229621650396  0.8065436079805073  1.0000
  C   C4        1.0  0.5439385783115167  0.25513118842968896  0.8870634990383619  1.0000
  C   C5        1.0  0.47074141754279875  0.27683748955154686  0.8454924729461881  1.0000
  C   C6        1.0  0.4580417322769947  0.3405030337658459  0.7223004517699736  1.0000
  C   C7        1.0  0.3802764286235836  0.363538568738359  0.6779484815510306  1.0000
  C   C8        1.0  0.3614823160601311  0.346625009025624  0.5483610439029305  1.0000
  C   C9        1.0  0.2882552032901655  0.3682925680857889  0.5067459466403925  1.0000
  C   C10       1.0  0.23287913863129592  0.40719195296994437  0.5938979325618952  1.0000
  C   C11       1.0  0.1575153431799583  0.4295175433399352  0.5509213968003404  1.0000
  N   N2        1.0  0.0969282249641462  0.4474656593683546  0.516371389874632  1.0000
  C   C12       1.0  0.2509816945340456  0.4243159203799287  0.7229541837572551  1.0000
  C   C13       1.0  0.32415605415880805  0.40261351277016577  0.7648247299830249  1.0000
  C   C14       1.0  0.5202189458499007  0.38199024780322266  0.6417969779968891  1.0000
  H   H1        1.0  0.6617230925055021  0.2792191225887566  0.8399127889996665  1.0000
  H   H2        1.0  0.5531333290762699  0.20570911625799204  0.9818099781307505  1.0000
  H   H3        1.0  0.424099656278565  0.2423016890236005  0.9089385887862775  1.0000
  H   H4        1.0  0.4031510247021526  0.3149612788902103  0.4796426777235414  1.0000
  H   H5        1.0  0.2748054360770247  0.3543799468887685  0.40670603490282287  1.0000
  H   H6        1.0  0.20859595392778194  0.45475646056910257  0.7911578500087582  1.0000
  H   H7        1.0  0.3370776545813206  0.41807148368011493  0.8646817461818486  1.0000
  H   H8        1.0  0.5117229296670941  0.43277474619628054  0.5472847163696362  1.0000
  C   C15       1.0  0.9021920581601318  0.061367963026725425  0.5254473081323006  1.0000
  C   C16       1.0  0.8803796598298543  0.069973051901562  0.3950393340820153  1.0000
  C   C17       1.0  0.8693960514925203  0.9571988231446421  0.3289222902817246  1.0000
  C   C18       1.0  0.8805171630606989  0.8346947566349385  0.39496439557487606  1.0000
  C   C19       1.0  0.9023282018911256  0.8240983431008868  0.5253729832983658  1.0000
  C   C20       1.0  0.913043872634014  0.9379865271438189  0.5898840270435441  1.0000
  C   C21       1.0  0.8463201289695551  0.9673559208860724  0.19095820749339287  1.0000
  C   C22       1.0  0.7916142089891188  0.05719136955865922  0.14830622648131953  1.0000
  C   C23       1.0  0.7699273634448494  0.06662278661216092  0.018451876033936054  1.0000
  C   C24       1.0  0.80253606084056  0.9866275924669721  0.9291882564555651  1.0000
  C   C25       1.0  0.8570616538591672  0.8969855719507016  0.9709579804241328  1.0000
  C   C26       1.0  0.8788086794246182  0.8872995813667215  0.1007795630933237  1.0000
  N   N3        1.0  0.7803212195873893  0.9964053230659848  0.7963736801217998  1.0000
  H   H9        1.0  0.910471642247903  0.3855405134644736  0.5751574083609265  1.0000
  H   H10       1.0  0.8728769618464581  0.16468034420415822  0.34403143713213513  1.0000
  H   H11       1.0  0.8711287113904485  0.7474222959496536  0.34498417638146206  1.0000
  H   H12       1.0  0.929870578867519  0.9305800408705964  0.6904880312002708  1.0000
  H   H13       1.0  0.9106718804856803  0.49260896620177147  0.5750484855789  1.0000
  H   H14       1.0  0.7648936469290059  0.1189739360609332  0.21575427845115658  1.0000
  H   H15       1.0  0.7275699256769825  0.13606516848458483  0.9875033863502796  1.0000
  H   H16       1.0  0.8828530807830055  0.834834674400535  0.9028637190872524  1.0000
  H   H17       1.0  0.9217419651433855  0.8183810123645158  0.13026168239319835  1.0000
  H   H18       1.0  0.8043095067822401  0.9371722034902742  0.7291160308197369  1.0000
  H   H19       1.0  0.7397221426878557  0.06295007246223894  0.7643203532883813  1.0000
  C   C27       1.0  0.9022385187249247  0.44261067852759495  0.14401370082395304  1.0000
  C   C28       1.0  0.9775627308863688  0.4035486237903232  0.14273517495404886  1.0000
  C   C29       1.0  0.015730094621657864  0.3838742548641185  0.024916469371091043  1.0000
  C   C30       1.0  0.9776071279288362  0.4038053183630299  0.9074324154949873  1.0000
  C   C31       1.0  0.9022817430319159  0.44285563980480513  0.9068066476024068  1.0000
  C   C32       1.0  0.8650784781453595  0.4620037718870329  0.025572362235886992  1.0000
  C   C33       1.0  0.09536572622191053  0.34258853422249613  0.024499199957783047  1.0000
  C   C34       1.0  0.14724945065410577  0.398448903725207  0.9305451042249944  1.0000
  C   C35       1.0  0.22219727460293615  0.35969562657177123  0.9301738740080934  1.0000
  C   C36       1.0  0.2466249638595024  0.26289292184931745  0.022520537261731866  1.0000
  C   C37       1.0  0.19517643395006212  0.20886216339107988  0.11803160344720531  1.0000
  C   C38       1.0  0.1202335062314861  0.24764861437037333  0.11851352449914176  1.0000
  C   C39       1.0  0.3280700839326265  0.2245843303201207  0.02502834419899891  1.0000
  F   F1        1.0  0.3666119516751405  0.30483476303399404  0.10271749561623622  1.0000
  F   F2        1.0  0.3600663476495358  0.23653450998309755  0.9006854122458914  1.0000
  F   F3        1.0  0.3350046228594763  0.0966318205824821  0.07460406556748778  1.0000
  H   H20       1.0  0.7600471090898527  0.5172454405283009  0.3536848435280968  1.0000
  H   H21       1.0  0.00698040419236845  0.390103510576433  0.23345036841077205  1.0000
  H   H22       1.0  0.006456142483292293  0.3871244213166323  0.8164646010981453  1.0000
  H   H23       1.0  0.8070243723516023  0.49210441471307864  0.025824635150787367  1.0000
  H   H24       1.0  0.7598062891469037  0.5158999707303928  0.698361866249384  1.0000
  H   H25       1.0  0.1301433662048499  0.47379762090902355  0.8586028429683985  1.0000
  H   H26       1.0  0.2611541419136687  0.40586791274196843  0.8578768397776777  1.0000
  H   H27       1.0  0.21288365448713664  0.13641957583870035  0.1923885905505729  1.0000
  H   H28       1.0  0.08154739646913889  0.2024369287960599  0.19181758674855254  1.0000
  Zn  Zn1       1.0  0.8199409467654463  0.44073555070596293  0.5292319217521968  1.0000
  Zn  Zn2       1.0  0.9845721253945909  0.4447299477380715  0.521588154014879  1.0000
  C   C40       1.0  0.9022709751570224  0.437635583820555  0.7626230210603504  1.0000
  C   C41       1.0  0.9022438950700893  0.44783159690811236  0.28819709855310505  1.0000
  C   C42       1.0  0.9022983120262682  0.6799243029587483  0.5202117047138055  1.0000
  C   C43       1.0  0.9022165017491343  0.2055413161214008  0.5306084869035144  1.0000
  O   O1        1.0  0.9647223727164498  0.45109397190682876  0.33368559449388124  1.0000
  O   O2        1.0  0.9647437525879411  0.43740388389935303  0.7113327084940599  1.0000
  O   O3        1.0  0.9647649853166581  0.6330550687617393  0.5155838944167752  1.0000
  O   O4        1.0  0.964701083806403  0.2554427949404079  0.5294343137968587  1.0000
  O   O5        1.0  0.8398119321730925  0.6300227021419464  0.521385764571829  1.0000
  O   O6        1.0  0.8397906997155429  0.4343730775663983  0.7171345092468604  1.0000
  O   O7        1.0  0.8397693197974468  0.4480631198175531  0.33948583373527197  1.0000
  O   O8        1.0  0.8397480308881882  0.2524119335934867  0.5352346504141681  1.0000
