data_image0
_chemical_formula_structural       NC10NC3NH7C12NH11C13F3H9Zn2C4O8
_chemical_formula_sum              "N4 C42 H27 F3 Zn2 O8"
_cell_length_a       19.210446455230148
_cell_length_b       10.299770795358612
_cell_length_c       10.2985328690268
_cell_angle_alpha    85.57387741516429
_cell_angle_beta     89.99621934770116
_cell_angle_gamma    89.96457025778629

_space_group_name_H-M_alt    "P 1"
_space_group_IT_number       1

loop_
  _space_group_symop_operation_xyz
  'x, y, z'

loop_
  _atom_site_type_symbol
  _atom_site_label
  _atom_site_symmetry_multiplicity
  _atom_site_fract_x
  _atom_site_fract_y
  _atom_site_fract_z
  _atom_site_occupancy
  N   N1        1.0  0.6556245641050057  0.41973814232608864  0.5671586321812851  1.0000
  C   C1        1.0  0.5953962128314879  0.4219456873966163  0.5673897046832463  1.0000
  C   C2        1.0  0.5205920188180837  0.42468263897544856  0.567675974593816  1.0000
  C   C3        1.0  0.48499171125100726  0.5409155695786183  0.5827839786438596  1.0000
  C   C4        1.0  0.4123262400317079  0.5410670886186373  0.5827313712702011  1.0000
  C   C5        1.0  0.3754253281271089  0.4253916189217011  0.5677624342890208  1.0000
  C   C6        1.0  0.298103079366509  0.42403512242474894  0.5676118882276984  1.0000
  C   C7        1.0  0.2603525337573371  0.5275852265179393  0.5042413585544212  1.0000
  C   C8        1.0  0.1875740582571995  0.5261829878989772  0.5041323350552012  1.0000
  C   C9        1.0  0.1515447341990334  0.4214881354581954  0.5673428301184558  1.0000
  C   C10       1.0  0.0766151000512483  0.4201860361002161  0.5672060460436477  1.0000
  N   N2        1.0  0.0163771560014826  0.4191391040186687  0.5670961065276763  1.0000
  C   C11       1.0  0.1885716305331981  0.3180637143284559  0.6306883443424587  1.0000
  C   C12       1.0  0.2613519367237089  0.3191917044933874  0.6308476286361206  1.0000
  C   C13       1.0  0.4136356643005611  0.3109789972244119  0.5529425391322578  1.0000
  N   N3        1.0  0.4844058186766065  0.31342397792368093  0.5531080115841656  1.0000
  H   H1        1.0  0.5131006856643681  0.6303511486258777  0.5948295194450202  1.0000
  H   H2        1.0  0.3850655473417132  0.6310849311484046  0.5961717085434355  1.0000
  H   H3        1.0  0.2870822963550566  0.6088222226423088  0.45324378349691186  1.0000
  H   H4        1.0  0.1594301644885292  0.606592683123657  0.45446528079378923  1.0000
  H   H5        1.0  0.1612021088237888  0.23669060998120584  0.6802559471775971  1.0000
  H   H6        1.0  0.2888510771147668  0.23890161398906717  0.6819525045227262  1.0000
  H   H7        1.0  0.3873620913716022  0.22009823545542595  0.5394559875868274  1.0000
  C   C14       1.0  0.8359411083945978  0.03807021245530051  0.5671669767376655  1.0000
  C   C15       1.0  0.8157304666891704  0.04723857365232864  0.43575034159177806  1.0000
  C   C16       1.0  0.8055534210760582  0.9347479800317453  0.3691253876455489  1.0000
  C   C17       1.0  0.8158578726025346  0.8119567275719448  0.43568176158577043  1.0000
  C   C18       1.0  0.8360672546406867  0.800797076822736  0.5670989475381123  1.0000
  C   C19       1.0  0.845996038203988  0.9144085448140078  0.6321055113094687  1.0000
  C   C20       1.0  0.7841720399426281  0.9455009787038952  0.23009421517080986  1.0000
  C   C21       1.0  0.7334833567841302  0.036749125334701205  0.18491249247935437  1.0000
  C   C22       1.0  0.7133890481079599  0.046740572498866984  0.05405528681836147  1.0000
  C   C23       1.0  0.743603180894569  0.9659033078748779  0.9662995768216556  1.0000
  C   C24       1.0  0.794124779097063  0.8748532460724794  0.010590703689608683  1.0000
  C   C25       1.0  0.8142748485762183  0.8646056713194614  0.14141792445053025  1.0000
  N   N4        1.0  0.7230196489824654  0.9762547032782072  0.8324577294020723  1.0000
  H   H8        1.0  0.843612695211148  0.3620289551088105  0.6172599461139503  1.0000
  H   H9        1.0  0.8087787166582727  0.14213961182605006  0.3843955006950053  1.0000
  H   H10       1.0  0.8071588460212729  0.724926709505487  0.3852673963711659  1.0000
  H   H11       1.0  0.861587103689703  0.9065675342050619  0.7334876254056837  1.0000
  H   H12       1.0  0.8437982292921858  0.46909223699531616  0.6171602828602543  1.0000
  H   H13       1.0  0.7087249740612656  0.09922171009237202  0.2511249173074823  1.0000
  H   H14       1.0  0.674142057230391  0.11727677138179815  0.021148080860643015  1.0000
  H   H15       1.0  0.8180222561528462  0.8120363237818842  0.9436891039089788  1.0000
  H   H16       1.0  0.8540554009831629  0.7945784149010446  0.1728853887067534  1.0000
  H   H17       1.0  0.7452463968293106  0.916402122328783  0.7663093598627024  1.0000
  H   H18       1.0  0.6854018967131698  0.04384786266486218  0.7985269973990863  1.0000
  C   C26       1.0  0.8359841572062984  0.41931172818208573  0.18573551788468223  1.0000
  C   C27       1.0  0.9057770630888853  0.3783045391565507  0.18794017626685844  1.0000
  C   C28       1.0  0.9411416709423877  0.35764455556855523  0.0718864272163533  1.0000
  C   C29       1.0  0.9058181999095366  0.3785600872425281  0.9526394698406091  1.0000
  C   C30       1.0  0.8360242074093222  0.4195555732566938  0.9485304634656595  1.0000
  C   C31       1.0  0.8015529014341972  0.43966442360054914  0.0655758039636487  1.0000
  C   C32       1.0  0.014929394460347911  0.3143023647276666  0.07515171311872448  1.0000
  C   C33       1.0  0.06300312523330409  0.36882291521999644  0.9835968535239012  1.0000
  C   C34       1.0  0.13244728233585734  0.328134223436785  0.986691402405317  1.0000
  C   C35       1.0  0.15508116549627426  0.23070071044441942  0.08016766449698642  1.0000
  C   C36       1.0  0.107410671471446  0.17799853275371968  0.17329961905246827  1.0000
  C   C37       1.0  0.037971051052749116  0.21872027192501986  0.17031598742030019  1.0000
  C   C38       1.0  0.2305455007577737  0.19028892140249676  0.08644170212564806  1.0000
  F   F1        1.0  0.2662571115493608  0.26954406845285694  0.16591312809862546  1.0000
  F   F2        1.0  0.2601921728982326  0.2014128457636768  0.9635783592542735  1.0000
  F   F3        1.0  0.23697081353268112  0.06215733764532527  0.13633809431288557  1.0000
  H   H19       1.0  0.7042343335413299  0.49761836909716983  0.38883136607714164  1.0000
  H   H20       1.0  0.9330344992493828  0.3640997588530688  0.2800157181885967  1.0000
  H   H21       1.0  0.932548735813305  0.36113420786200123  0.8630057076734641  1.0000
  H   H22       1.0  0.7477619008316659  0.47126422623873987  0.06314350652239198  1.0000
  H   H23       1.0  0.704011197804087  0.49627911811144565  0.7334972526682417  1.0000
  H   H24       1.0  0.04715319719917255  0.4446133712610203  0.9108635631644626  1.0000
  H   H25       1.0  0.16854341790340732  0.37330050720489893  0.9161958333722584  1.0000
  H   H26       1.0  0.12381759218025445  0.10509868291039615  0.24847543332910482  1.0000
  H   H27       1.0  0.0021257904103955116  0.17450759684705242  0.24183110499399807  1.0000
  Zn  Zn1       1.0  0.759729968422717  0.41956181115875757  0.5671480885657072  1.0000
  Zn  Zn2       1.0  0.9122717345519965  0.4193048560521615  0.5671172876600032  1.0000
  C   C39       1.0  0.836014230255132  0.4143357953365887  0.804346338989524  1.0000
  C   C40       1.0  0.8359891387486377  0.42453250772659  0.32991916422978695  1.0000
  C   C41       1.0  0.8360395596875634  0.6566238085413219  0.5619362867697415  1.0000
  C   C42       1.0  0.8359637570099329  0.1822429343311187  0.572329285842962  1.0000
  O   O1        1.0  0.8938796149306345  0.42618147017625807  0.3782968247988685  1.0000
  O   O2        1.0  0.8938994248073787  0.4124908300658139  0.7559449274589949  1.0000
  O   O3        1.0  0.8939190983465299  0.6081414666249723  0.5601970952373998  1.0000
  O   O4        1.0  0.8938598893357348  0.23053084296386328  0.5740445596481869  1.0000
  O   O5        1.0  0.7781417615839602  0.6083358243361534  0.5602208165812024  1.0000
  O   O6        1.0  0.7781220882960639  0.41268674805683103  0.7559685794130839  1.0000
  O   O7        1.0  0.7781022783761373  0.4263773424121573  0.3783189152393922  1.0000
  O   O8        1.0  0.7780825527819677  0.23072670594209677  0.5740667474646661  1.0000
