data_image0
_chemical_formula_structural       NC9NC5H8C12NH11C12ClH9Zn2C4O8
_chemical_formula_sum              "N3 C42 H28 Cl1 Zn2 O8"
_cell_length_a       17.807436237873137
_cell_length_b       10.299770795358612
_cell_length_c       10.299771906710086
_cell_angle_alpha    85.53968522419491
_cell_angle_beta     89.40099058273775
_cell_angle_gamma    88.40764042794568

_space_group_name_H-M_alt    "P 1"
_space_group_IT_number       1

loop_
  _space_group_symop_operation_xyz
  'x, y, z'

loop_
  _atom_site_type_symbol
  _atom_site_label
  _atom_site_symmetry_multiplicity
  _atom_site_fract_x
  _atom_site_fract_y
  _atom_site_fract_z
  _atom_site_occupancy
  N   N1        1.0  0.7075243766023042  0.3881579088660261  0.5570016177761086  1.0000
  C   C1        1.0  0.6469295460693545  0.35297176430923427  0.5459809004542486  1.0000
  C   C2        1.0  0.5715562368213939  0.3092040753864618  0.5322723247176446  1.0000
  C   C3        1.0  0.5534423144974536  0.2378202146555859  0.42727589754975015  1.0000
  C   C4        1.0  0.4802586930901743  0.19521369039792824  0.413883135677763  1.0000
  C   C5        1.0  0.4241402051683272  0.2236135107907682  0.5054543837393073  1.0000
  C   C6        1.0  0.3463649091605941  0.1784486402234884  0.4913034101741589  1.0000
  C   C7        1.0  0.284205548742835  0.2601963909678291  0.5172348876448252  1.0000
  C   C8        1.0  0.2108795875457154  0.21738682690343225  0.5038558254305987  1.0000
  C   C9        1.0  0.1476706511607771  0.3018257945157681  0.5301509605919841  1.0000
  N   N2        1.0  0.0968636534908109  0.369708882334596  0.5512915233066262  1.0000
  C   C10       1.0  0.1991293935546929  0.09257154233635312  0.4645199595072398  1.0000
  C   C11       1.0  0.2604313808993721  0.010809941878067164  0.4385800935944817  1.0000
  C   C12       1.0  0.333637820901322  0.05322502792554151  0.45175665322392344  1.0000
  C   C13       1.0  0.4429456405284016  0.29549166894238055  0.6106699956523021  1.0000
  C   C14       1.0  0.5161820848383525  0.3379078459913265  0.6239071239794587  1.0000
  H   H1        1.0  0.5958265512919456  0.2153560062382731  0.3555651224251324  1.0000
  H   H2        1.0  0.467328851418483  0.14155602590289607  0.33096749628864397  1.0000
  H   H3        1.0  0.2927230792821996  0.35765181827979475  0.5461030476586126  1.0000
  H   H4        1.0  0.1426573140930367  0.05853894450298358  0.4539281767373755  1.0000
  H   H5        1.0  0.2512155401779876  0.9141749523801096  0.4085114461701349  1.0000
  H   H6        1.0  0.3802651594440516  0.9874862510679099  0.4327142426438013  1.0000
  H   H7        1.0  0.4012783084379019  0.31741645931203344  0.6836753197002816  1.0000
  H   H8        1.0  0.5296403967148247  0.39278638398821397  0.705781024031916  1.0000
  C   C15       1.0  0.9021295295299553  0.997567915406472  0.5541871306719757  1.0000
  C   C16       1.0  0.8803124934894297  0.007815180830645918  0.42309667656496597  1.0000
  C   C17       1.0  0.8693265331644726  0.8958681384692221  0.35663600423860586  1.0000
  C   C18       1.0  0.8804499927376042  0.7725270718732965  0.4230261071436068  1.0000
  C   C19       1.0  0.9022656693129438  0.7602885788946324  0.5541171317359741  1.0000
  C   C20       1.0  0.9129836349231059  0.8733697510574041  0.6189634209126142  1.0000
  C   C21       1.0  0.8462457042097888  0.9077625401142588  0.21794990760038613  1.0000
  C   C22       1.0  0.7915386851673571  0.0015458817401594604  0.173565073908571  1.0000
  C   C23       1.0  0.7698472213120194  0.01261014118124848  0.043032186449704746  1.0000
  C   C24       1.0  0.8024523267303922  0.9303305568347607  0.9548100131956314  1.0000
  C   C25       1.0  0.8569789877228917  0.8367541019725014  0.9983069330761425  1.0000
  C   C26       1.0  0.8787306298574563  0.82543097389755  0.1288089649400126  1.0000
  N   N3        1.0  0.7802327621799569  0.9417807627849294  0.8213003649584794  1.0000
  H   H9        1.0  0.9104108817703294  0.3211170000807555  0.6041562721310147  1.0000
  H   H10       1.0  0.8728079724708572  0.10309101690711708  0.3718544886058277  1.0000
  H   H11       1.0  0.8710597726497459  0.6859577423987732  0.37275167820972177  1.0000
  H   H12       1.0  0.9298139189509058  0.8646964408088724  0.7200939093855869  1.0000
  H   H13       1.0  0.9106111142159947  0.4281711615674108  0.6040537117880598  1.0000
  H   H14       1.0  0.7648208555014406  0.06520376707004072  0.24016015722784156  1.0000
  H   H15       1.0  0.7274890094417196  0.08510803266846523  0.010741837306375013  1.0000
  H   H16       1.0  0.8827676664817508  0.7727948903764082  0.9310362034864954  1.0000
  H   H17       1.0  0.921664630318976  0.7534164884595049  0.15965132676153804  1.0000
  H   H18       1.0  0.8042183480263414  0.8808681080515164  0.7548089645585128  1.0000
  H   H19       1.0  0.7396328548218152  0.011255614451954443  0.7879610604792662  1.0000
  C   C27       1.0  0.9021618644436187  0.37903625325776713  0.17278340190042174  1.0000
  C   C28       1.0  0.9703153633383287  0.4446897805823773  0.16545003389430657  1.0000
  C   C29       1.0  0.004885910855185971  0.4778470618071713  0.04460329243141348  1.0000
  C   C30       1.0  0.9703877941852914  0.444471186037497  0.9301792145185064  1.0000
  C   C31       1.0  0.9022333298310752  0.3788202643539107  0.9355209404953326  1.0000
  C   C32       1.0  0.8685023725410524  0.34646959649714537  0.05728542079253751  1.0000
  C   C33       1.0  0.0769871284380177  0.5473015997397566  0.037898940841031736  1.0000
  C   C34       1.0  0.08887888073041794  0.6497433271899986  0.11751746127111762  1.0000
  C   C35       1.0  0.15677606892905582  0.715013380838009  0.11101931148158406  1.0000
  C   C36       1.0  0.21355199045874906  0.6788521903358364  0.02520155073361674  1.0000
  C   C37       1.0  0.2023775897110749  0.5772359385029222  0.9457012282225739  1.0000
  C   C38       1.0  0.13454770300415064  0.5117623737304768  0.951822777584201  1.0000
  Cl  Cl1       1.0  0.29869425493626545  0.7608680075619068  0.01728558242086997  1.0000
  H   H20       1.0  0.8761721586198742  0.35407721599966746  0.5030270060470456  1.0000
  H   H21       1.0  0.9971983932001526  0.4686154531759801  0.25403432722335206  1.0000
  H   H22       1.0  0.9962817563198163  0.47138530698473136  0.8366873801917332  1.0000
  H   H23       1.0  0.8159246289745136  0.2958220638340354  0.06217458074482618  1.0000
  H   H24       1.0  0.8762776528200564  0.35375764517932495  0.610106302123854  1.0000
  H   H25       1.0  0.04533223706052225  0.6804599606474335  0.18352750121572314  1.0000
  H   H26       1.0  0.1650970301887167  0.7938931179340509  0.17252383117439307  1.0000
  H   H27       1.0  0.24626745388063354  0.548650190388982  0.8793423882145888  1.0000
  H   H28       1.0  0.12747357487476663  0.43228327651778  0.8905195550045883  1.0000
  Zn  Zn1       1.0  0.8198792806133921  0.38283045094935786  0.5553613189640207  1.0000
  Zn  Zn2       1.0  0.984508730393424  0.37502575115324155  0.5529424996970185  1.0000
  C   C39       1.0  0.9022172289209262  0.3736875145850149  0.7913476862076121  1.0000
  C   C40       1.0  0.9021725801387974  0.38417024085853657  0.31695623335611156  1.0000
  C   C41       1.0  0.9022355885781937  0.616119779818199  0.548955288975497  1.0000
  C   C42       1.0  0.902154164032983  0.14173641798107406  0.5593487007952997  1.0000
  O   O1        1.0  0.9646521936305997  0.3829257454108257  0.3644240238412917  1.0000
  O   O2        1.0  0.9646875583360897  0.3690074438685498  0.7420436941104214  1.0000
  O   O3        1.0  0.9647015419114567  0.5647746035634054  0.546310130629525  1.0000
  O   O4        1.0  0.9646381538708864  0.1871585976968977  0.5601574907720888  1.0000
  O   O5        1.0  0.8397498009559777  0.5706976070704779  0.5481463287075437  1.0000
  O   O6        1.0  0.8397358176492057  0.37493200768467694  0.7438798227999601  1.0000
  O   O7        1.0  0.8397004528392854  0.3888502644112617  0.36625859113422243  1.0000
  O   O8        1.0  0.8396864130839664  0.19308310738118295  0.5619921554337124  1.0000
