data_image0
_chemical_formula_structural       NC8NC6H8C12NCOCH13C13NH9Zn2C4O8
_chemical_formula_sum              "N4 C45 H30 O9 Zn2"
_cell_length_a       17.457602349358154
_cell_length_b       10.299155265289647
_cell_length_c       10.298528502251457
_cell_angle_alpha    85.52481818200185
_cell_angle_beta     92.8736263554175
_cell_angle_gamma    91.66712233072684

_space_group_name_H-M_alt    "P 1"
_space_group_IT_number       1

loop_
  _space_group_symop_operation_xyz
  'x, y, z'

loop_
  _atom_site_type_symbol
  _atom_site_label
  _atom_site_symmetry_multiplicity
  _atom_site_fract_x
  _atom_site_fract_y
  _atom_site_fract_z
  _atom_site_occupancy
  N   N1        1.0  0.7221376867159461  0.4533786251105354  0.6258772411061841  1.0000
  C   C1        1.0  0.6610703752470797  0.4074542462882196  0.6152746577512676  1.0000
  C   C2        1.0  0.5851000551907977  0.3503300305547681  0.6020945854065938  1.0000
  C   C3        1.0  0.5265602680424487  0.3904691690054545  0.6769889450879953  1.0000
  C   C4        1.0  0.4520275372706354  0.3354631355441222  0.6644227202321893  1.0000
  C   C5        1.0  0.38989622376628436  0.37784407411540566  0.7437387279058907  1.0000
  C   C6        1.0  0.3153469994950614  0.3963322531600648  0.6879624561066255  1.0000
  C   C7        1.0  0.2568072477538614  0.43628741907895696  0.7629648408399679  1.0000
  C   C8        1.0  0.18081979516755012  0.45538222934902417  0.7049726413198216  1.0000
  N   N2        1.0  0.1197388012246139  0.470728076680748  0.6583470659813795  1.0000
  C   C9        1.0  0.2723244884573635  0.4579973914461226  0.894252001739769  1.0000
  C   C10       1.0  0.3460889102706388  0.4398980922492328  0.9504157974306766  1.0000
  C   C11       1.0  0.4046170035916729  0.4001228379458792  0.8758711343170069  1.0000
  C   C12       1.0  0.43732343252675  0.23964098419907076  0.5755292508579339  1.0000
  C   C13       1.0  0.49585142751241046  0.19978040821670628  0.5010348565536993  1.0000
  C   C14       1.0  0.5695993517033916  0.2548986396693307  0.5141510643187375  1.0000
  H   H1        1.0  0.5388855138128757  0.46564563106584345  0.7436042750551894  1.0000
  H   H2        1.0  0.3030082695880502  0.3813952762836983  0.5859299825879123  1.0000
  H   H3        1.0  0.2274549008170258  0.48886227631395296  0.9530854404296367  1.0000
  H   H4        1.0  0.3579135897978289  0.45639294689503673  0.05207447337801874  1.0000
  H   H5        1.0  0.4611046725092623  0.3851146904409839  0.9219880510703153  1.0000
  H   H6        1.0  0.3808492676187921  0.19430632055326802  0.5648903604124014  1.0000
  H   H7        1.0  0.4840397748282746  0.12572087539069976  0.4332207044960368  1.0000
  H   H8        1.0  0.6144691641001644  0.22316383406362972  0.4558290881410525  1.0000
  C   C15       1.0  0.9210275954382193  0.08065970687051993  0.6422381708615914  1.0000
  C   C16       1.0  0.907926103697562  0.08984556343367611  0.5062267538076581  1.0000
  C   C17       1.0  0.9012090721720561  0.9773621110809213  0.4371422944588099  1.0000
  C   C18       1.0  0.9077426723513491  0.8545779208473294  0.5059039520001849  1.0000
  C   C19       1.0  0.9208562521607451  0.8434373231956893  0.6419979566443095  1.0000
  C   C20       1.0  0.9274213948117092  0.9569924336212468  0.709327493280157  1.0000
  C   C21       1.0  0.8873502229663309  0.9880533487927788  0.2932587158476345  1.0000
  C   C22       1.0  0.9262605008182745  0.08389678171872239  0.21500886084434034  1.0000
  C   C23       1.0  0.9132247233559333  0.09382733901250773  0.0796053420617353  1.0000
  C   C24       1.0  0.8614950589767841  0.007251514581606777  0.019623575535514304  1.0000
  C   C25       1.0  0.821647656232003  0.9131835045740964  0.097728733181498  1.0000
  C   C26       1.0  0.8347113772819467  0.9029981630805569  0.23309719398051332  1.0000
  N   N3        1.0  0.8459904595515487  0.01687452957673541  0.8807797225724991  1.0000
  C   C27       1.0  0.9020116486436164  0.0562973542041596  0.7871250571480171  1.0000
  O   O1        1.0  0.9723925998144695  0.061890898014455686  0.8207344523083662  1.0000
  C   C28       1.0  0.8775405092020769  0.0817352714580486  0.6465700068215221  1.0000
  H   H9        1.0  0.926090803432874  0.40460366194981856  0.6945502294373531  1.0000
  H   H10       1.0  0.9018576745462459  0.18464791391593138  0.4539152807817495  1.0000
  H   H11       1.0  0.9036171895964076  0.7676212222424416  0.4529322383357479  1.0000
  H   H12       1.0  0.9375294319077474  0.9491924382761238  0.8142357069738753  1.0000
  H   H13       1.0  0.9460668460459373  0.6151468123805217  0.8987749537011678  1.0000
  H   H14       1.0  0.9672263829169157  0.15071563900256724  0.25845147631222964  1.0000
  H   H15       1.0  0.9426585079372819  0.17059268247535364  0.02242139779438257  1.0000
  H   H16       1.0  0.78060817264225  0.8470658549938815  0.05341296638719606  1.0000
  H   H17       1.0  0.8028123547974314  0.8297412420212835  0.29091286435578345  1.0000
  H   H18       1.0  0.7919552926602857  0.9856613392983811  0.8452897791386511  1.0000
  H   H19       1.0  0.8221603688566927  0.13276631029760488  0.637593247307874  1.0000
  H   H20       1.0  0.870442533637268  0.9878351641258212  0.6007608218985787  1.0000
  H   H21       1.0  0.921216957845115  0.14375595187849255  0.594734830963076  1.0000
  C   C29       1.0  0.9209527880223121  0.46217545519244974  0.26070204635111294  1.0000
  C   C30       1.0  0.8411896541302882  0.4785583919792027  0.25169225878040824  1.0000
  C   C31       1.0  0.8007809770792668  0.48671986258609246  0.12998112663292782  1.0000
  C   C32       1.0  0.8411668117856627  0.478292516215602  0.0164307683087479  1.0000
  C   C33       1.0  0.9209310349011625  0.46192150748272875  0.023534064364535867  1.0000
  C   C34       1.0  0.9603132683244288  0.45396504710358343  0.14609478941549092  1.0000
  C   C35       1.0  0.7164553027523436  0.504034198561778  0.12146364253497977  1.0000
  C   C36       1.0  0.6825623752018177  0.5904928389941531  0.19958577062227878  1.0000
  C   C37       1.0  0.6031867150269209  0.6067437823463249  0.19144880623696614  1.0000
  C   C38       1.0  0.5566477814980344  0.5368494668393906  0.10531930760286645  1.0000
  C   C39       1.0  0.5897834517443352  0.45059413518034375  0.02723927578994334  1.0000
  C   C40       1.0  0.6691509437304856  0.43424846378670634  0.035138990878357035  1.0000
  C   C41       1.0  0.47493044502797  0.5536305279296365  0.09706294258516635  1.0000
  N   N4        1.0  0.4092352167990618  0.567121492467469  0.0904254168376959  1.0000
  H   H22       1.0  0.07161045912886643  0.4304069568505975  0.4851094098162685  1.0000
  H   H23       1.0  0.810204451272835  0.48321461552261313  0.33967571473417824  1.0000
  H   H24       1.0  0.8104694427690796  0.4863009367076141  0.9222171521235114  1.0000
  H   H25       1.0  0.021788256368339143  0.4413431141389246  0.15230392630137168  1.0000
  H   H26       1.0  0.07173009832559019  0.4318020831136591  0.8295745469390647  1.0000
  H   H27       1.0  0.7175449849437411  0.6467916528687274  0.2657293813760928  1.0000
  H   H28       1.0  0.5781605418325628  0.6740471374132195  0.25209182191516644  1.0000
  H   H29       1.0  0.5542702554826391  0.39572243793718975  0.960480176269995  1.0000
  H   H30       1.0  0.6934241032845754  0.36578197921231936  0.9749815960972406  1.0000
  Zn  Zn1       1.0  0.8368767803072604  0.45838181663909716  0.6352548316699165  1.0000
  Zn  Zn2       1.0  0.004999695472466703  0.46571423309841586  0.6489801126117571  1.0000
  C   C42       1.0  0.9209345952326403  0.4567954442836326  0.8793439925895976  1.0000
  C   C43       1.0  0.9209437160722926  0.4673023242076366  0.40489122853787474  1.0000
  C   C44       1.0  0.9208848170966201  0.6992576387128964  0.6368672398248014  1.0000
  C   C45       1.0  0.9209934371883063  0.22483856684896208  0.64736804635775  1.0000
  O   O2        1.0  0.984742442841229  0.4717998960059069  0.45849110963599626  1.0000
  O   O3        1.0  0.9847372712054278  0.4578620272554854  0.8361609085612725  1.0000
  O   O4        1.0  0.9846962146141668  0.6536532776495667  0.640359144498772  1.0000
  O   O5        1.0  0.9847834420642175  0.2760086524330123  0.6542927716253659  1.0000
  O   O6        1.0  0.8570929763434094  0.6480873948037236  0.6299421679657105  1.0000
  O   O7        1.0  0.8571340325825769  0.4522977048382746  0.825743862282535  1.0000
  O   O8        1.0  0.8571392043241061  0.46623552885179587  0.44807250178211433  1.0000
  O   O9        1.0  0.8571802035432671  0.2704442759569361  0.6438742611540187  1.0000
