data_image0
_chemical_formula_structural       NC12NC2H8C16H10C12NH11Zn2C4O8
_chemical_formula_sum              "N3 C46 H29 Zn2 O8"
_cell_length_a       17.80743265337812
_cell_length_b       10.29914801576943
_cell_length_c       10.299774167527174
_cell_angle_alpha    85.55390253719857
_cell_angle_beta     91.52767882299842
_cell_angle_gamma    89.44985071264975

_space_group_name_H-M_alt    "P 1"
_space_group_IT_number       1

loop_
  _space_group_symop_operation_xyz
  'x, y, z'

loop_
  _atom_site_type_symbol
  _atom_site_label
  _atom_site_symmetry_multiplicity
  _atom_site_fract_x
  _atom_site_fract_y
  _atom_site_fract_z
  _atom_site_occupancy
  N   N1        1.0  0.7077026716741257  0.4063392859326358  0.6008724404588834  1.0000
  C   C1        1.0  0.6568911024004773  0.4358778985471514  0.5321665341780182  1.0000
  C   C2        1.0  0.5936764946230189  0.4726217897068272  0.4467050350551247  1.0000
  C   C3        1.0  0.6054183044913202  0.5266052281894014  0.3200722494712138  1.0000
  C   C4        1.0  0.5441106969213982  0.561846194282682  0.23700716649344633  1.0000
  C   C5        1.0  0.4709070527224103  0.5433669907707555  0.2799149060616464  1.0000
  C   C6        1.0  0.45818842498499024  0.4892648937684856  0.40701585091919457  1.0000
  C   C7        1.0  0.5203533500902341  0.4540271764035664  0.4900644219816659  1.0000
  C   C8        1.0  0.3804162475842263  0.4696724136741697  0.45278413702877063  1.0000
  C   C9        1.0  0.36162680062596575  0.4969030020048828  0.5798099978526687  1.0000
  C   C10       1.0  0.28839321385655114  0.47846538865114474  0.6227582816799979  1.0000
  C   C11       1.0  0.2330060217958413  0.43254317126418496  0.5395187191986539  1.0000
  C   C12       1.0  0.15763567397364261  0.41355314989367753  0.5838680569173  1.0000
  N   N2        1.0  0.0970432517300847  0.3982864498583978  0.6195218735162453  1.0000
  C   C13       1.0  0.2511039215585925  0.40514383609417637  0.41303585936049103  1.0000
  C   C14       1.0  0.32428466973506836  0.42359615145488005  0.36983169880862476  1.0000
  H   H1        1.0  0.6618879585931875  0.5414188212677402  0.2856316650919881  1.0000
  H   H2        1.0  0.5533200684466507  0.6039143704232401  0.13921790285622304  1.0000
  H   H3        1.0  0.42427547028894824  0.572983247351762  0.21431672137310898  1.0000
  H   H4        1.0  0.5118421821491477  0.4105735357883178  0.5877297855386281  1.0000
  H   H5        1.0  0.40330452616312856  0.534107065310738  0.6453645713185159  1.0000
  H   H6        1.0  0.2749472751238561  0.5003452077599402  0.7207525532383845  1.0000
  H   H7        1.0  0.2087094643726183  0.36920729650780704  0.3478937226360306  1.0000
  H   H8        1.0  0.33720199035188964  0.4001807584095729  0.27214133979702293  1.0000
  C   C15       1.0  0.9023230503084266  0.02091258547075725  0.6103602881898818  1.0000
  C   C16       1.0  0.8851787956887361  0.030827178389515986  0.4760712300531873  1.0000
  C   C17       1.0  0.876541512434385  0.9187231369736194  0.4078218756955714  1.0000
  C   C18       1.0  0.8852791084913592  0.795573170850883  0.4756714633107568  1.0000
  C   C19       1.0  0.9024300538852825  0.7837030220420399  0.6100455909368183  1.0000
  C   C20       1.0  0.9108477658415199  0.896890824824069  0.6765626811691747  1.0000
  C   C21       1.0  0.8584051440879209  0.9302571824009606  0.2657602563713086  1.0000
  C   C22       1.0  0.893954478681894  0.8485120284869602  0.1822492898619279  1.0000
  C   C23       1.0  0.876858908128114  0.8594931941482183  0.04854510911561438  1.0000
  C   C24       1.0  0.8240384924550558  0.9521229283124873  0.9965393155630573  1.0000
  C   C25       1.0  0.7883522587577775  0.033850855808665425  0.07875984270405345  1.0000
  C   C26       1.0  0.805394264350068  0.023112069836501936  0.2124824033077206  1.0000
  C   C27       1.0  0.806466311266352  0.963303767260218  0.8588797404122834  1.0000
  C   C28       1.0  0.7917497989188845  0.9726676126804095  0.743591834591816  1.0000
  C   C29       1.0  0.7745169367614276  0.9836325497727031  0.6085908736240535  1.0000
  C   C30       1.0  0.7598028943220416  0.9929949723111337  0.4933215930254802  1.0000
  H   H9        1.0  0.9088788283990317  0.34457441137847056  0.6620258549400915  1.0000
  H   H10       1.0  0.8795149129875193  0.12598455309890277  0.42389223344142124  1.0000
  H   H11       1.0  0.877676090221804  0.7088222136352543  0.42389414103765755  1.0000
  H   H12       1.0  0.9240693720893962  0.8885275997916411  0.7801440290758797  1.0000
  H   H13       1.0  0.9343363175660299  0.5540018495912705  0.8638256568868101  1.0000
  H   H14       1.0  0.9356849577027447  0.7772546594768168  0.22009622456333888  1.0000
  H   H15       1.0  0.9049698735108141  0.7959701843348255  0.9857197172195074  1.0000
  H   H16       1.0  0.7472194119340854  0.10565981731899265  0.03957170480835903  1.0000
  H   H17       1.0  0.7764075890242376  0.08626315145340047  0.2744630982790248  1.0000
  H   H18       1.0  0.7468827804946866  0.0012159689654411832  0.3921054477997461  1.0000
  C   C31       1.0  0.9024021004910436  0.402192751417386  0.22885210678652412  1.0000
  C   C32       1.0  0.8288187027729965  0.3544086052526825  0.22816890570399462  1.0000
  C   C33       1.0  0.7915071251493918  0.3303123714321343  0.11067359527653298  1.0000
  C   C34       1.0  0.8287671231551007  0.354640992922693  0.9928616270091908  1.0000
  C   C35       1.0  0.9023509984382073  0.4024229025220989  0.9915537075389005  1.0000
  C   C36       1.0  0.9387563167343504  0.42593171336612135  0.1100485156422375  1.0000
  C   C37       1.0  0.7136601551036981  0.27976008101995364  0.11100415654171236  1.0000
  C   C38       1.0  0.692532918989197  0.18173477172024577  0.20533218990348878  1.0000
  C   C39       1.0  0.6192598693055217  0.13421055681024208  0.20550941968120817  1.0000
  C   C40       1.0  0.5659549611475648  0.1838429029950961  0.11163116770760695  1.0000
  C   C41       1.0  0.5865863945902406  0.2814882730247865  0.017438913729797  1.0000
  C   C42       1.0  0.6598369000390972  0.32911422473526875  0.016994281517616505  1.0000
  N   N3        1.0  0.4910136281400976  0.13517704142252995  0.11194918016761934  1.0000
  H   H19       1.0  0.9304535130325307  0.4203467640547036  0.5565706724742874  1.0000
  H   H20       1.0  0.7999736219708095  0.3375005759668337  0.3190802517123239  1.0000
  H   H21       1.0  0.8006290734995735  0.3345456618713847  0.9021920712828244  1.0000
  H   H22       1.0  0.9955226832138512  0.4627940918787137  0.10980759487965464  1.0000
  H   H23       1.0  0.930378521907108  0.4206852938865431  0.6635971615228704  1.0000
  H   H24       1.0  0.732938948473299  0.14062741660866163  0.27793434217632407  1.0000
  H   H25       1.0  0.6040943766770921  0.058471077296774476  0.27863323202261037  1.0000
  H   H26       1.0  0.545866510456062  0.3209366669536573  0.944552373072419  1.0000
  H   H27       1.0  0.6741242702778646  0.4057384355340201  0.9441600616397587  1.0000
  H   H28       1.0  0.4508858184272526  0.17156647665275027  0.04234760905089696  1.0000
  H   H29       1.0  0.4751046971455178  0.062398461241268244  0.18178901179988283  1.0000
  Zn  Zn1       1.0  0.8200579552095837  0.40401194608657187  0.6062617519971516  1.0000
  Zn  Zn2       1.0  0.9846879635049015  0.4006031985717198  0.6141431588975677  1.0000
  C   C43       1.0  0.9023582654109353  0.39720530348029404  0.8473888585385361  1.0000
  C   C44       1.0  0.9023894512794831  0.4074114427471145  0.37301626520516185  1.0000
  C   C45       1.0  0.9024063139338611  0.639517921762393  0.6049299422395584  1.0000
  C   C46       1.0  0.9023413463562932  0.1650972652184266  0.6154752486939374  1.0000
  O   O1        1.0  0.9648614354651973  0.4078636151072079  0.42439002890857025  1.0000
  O   O2        1.0  0.9648366481298617  0.394164990713771  0.8019965268851668  1.0000
  O   O3        1.0  0.9648746056198643  0.5898355122836589  0.606209195659428  1.0000
  O   O4        1.0  0.9648234218059506  0.21219310396210167  0.620177260071038  1.0000
  O   O5        1.0  0.8399224407283934  0.5924220418608397  0.6002276481273128  1.0000
  O   O6        1.0  0.8398844834585136  0.39675308070219106  0.7960149094668845  1.0000
  O   O7        1.0  0.8399092709420498  0.410451659363839  0.41840685018475376  1.0000
  O   O8        1.0  0.8398712572719057  0.21478113895860185  0.6141941787141245  1.0000
