data_image0
_chemical_formula_structural       NC12NC2H8C12OCH12C12NH11Zn2C4O8
_chemical_formula_sum              "N3 C43 H31 O9 Zn2"
_cell_length_a       17.80743265337812
_cell_length_b       10.29979075500242
_cell_length_c       10.299774167527174
_cell_angle_alpha    85.5728606880388
_cell_angle_beta     91.52767882299842
_cell_angle_gamma    89.41792083348325

_space_group_name_H-M_alt    "P 1"
_space_group_IT_number       1

loop_
  _space_group_symop_operation_xyz
  'x, y, z'

loop_
  _atom_site_type_symbol
  _atom_site_label
  _atom_site_symmetry_multiplicity
  _atom_site_fract_x
  _atom_site_fract_y
  _atom_site_fract_z
  _atom_site_occupancy
  N   N1        1.0  0.7072564416434823  0.40622469315523646  0.601317853802986  1.0000
  C   C1        1.0  0.6564354997979772  0.4357608988742798  0.5326213029403737  1.0000
  C   C2        1.0  0.5932092332210795  0.4725017960306006  0.4471714412790804  1.0000
  C   C3        1.0  0.6049339141990417  0.5264808357793762  0.3205557532363539  1.0000
  C   C4        1.0  0.5436151247062817  0.5617189303321803  0.23750183171636108  1.0000
  C   C5        1.0  0.4704173439398466  0.5432412325616325  0.2804037185832142  1.0000
  C   C6        1.0  0.4577158827429936  0.48914354396181614  0.40748752831825685  1.0000
  C   C7        1.0  0.5198919887402575  0.453908697872657  0.4905249389518851  1.0000
  C   C8        1.0  0.3799499220163143  0.46955266032202037  0.4532496091314544  1.0000
  C   C9        1.0  0.3611518348199639  0.49678102982205874  0.5802840943801497  1.0000
  C   C10       1.0  0.287924098286587  0.4783449188208069  0.6232265386784945  1.0000
  C   C11       1.0  0.2325514772989296  0.4324264433149758  0.5399724317919565  1.0000
  C   C12       1.0  0.15718715499127273  0.4134379693088306  0.5843157550239082  1.0000
  N   N2        1.0  0.0965995768561691  0.39817251325043146  0.6199647363800469  1.0000
  C   C13       1.0  0.2506580708429715  0.40502934072564556  0.41348089408378996  1.0000
  C   C14       1.0  0.32383296411847784  0.42348015253589866  0.370282577717302  1.0000
  H   H1        1.0  0.6613988679628334  0.5412932218013591  0.2861198605926838  1.0000
  H   H2        1.0  0.5528111480418647  0.6037836786305444  0.1397258918390598  1.0000
  H   H3        1.0  0.42377636429817594  0.5728550759205018  0.21481491390419172  1.0000
  H   H4        1.0  0.5113946085953148  0.41045859799143725  0.5881765399470151  1.0000
  H   H5        1.0  0.4028177555455317  0.5339820616283408  0.6458504510525223  1.0000
  H   H6        1.0  0.27447121710945566  0.5002229550957831  0.7212277399753131  1.0000
  H   H7        1.0  0.20827501628460043  0.36909572935718327  0.34832737560072324  1.0000
  H   H8        1.0  0.33675771441578994  0.40006666744761854  0.2725848026229496  1.0000
  C   C15       1.0  0.9019991157793584  0.020829398426335688  0.6106836298566329  1.0000
  C   C16       1.0  0.8802435699962425  0.010150544114410742  0.7410741375438235  1.0000
  C   C17       1.0  0.8691602546158923  0.8876044256449049  0.8071079944158623  1.0000
  C   C18       1.0  0.8801086049491478  0.7748710234932652  0.7410018913777847  1.0000
  C   C19       1.0  0.9018641174455185  0.7835576634605292  0.6106104496215119  1.0000
  C   C20       1.0  0.9126893029632903  0.906980689345964  0.5461821776304951  1.0000
  C   C21       1.0  0.84614869642987  0.8773608118868693  0.945055306169035  1.0000
  C   C22       1.0  0.7913301012730413  0.7876410976066787  0.9874935036080608  1.0000
  C   C23       1.0  0.7697398951456649  0.7782723157084517  0.11719293773171191  1.0000
  C   C24       1.0  0.8024821654197967  0.8579652315675703  0.20610550028528474  1.0000
  C   C25       1.0  0.8575006364664698  0.9482904280002268  0.16554850120644926  1.0000
  C   C26       1.0  0.8788579793887327  0.9573026888323453  0.035311237382628646  1.0000
  O   O1        1.0  0.8922209977548642  0.030296069075347987  0.25107620801533126  1.0000
  C   C27       1.0  0.8761055869458887  0.03164474708941811  0.3856347046709211  1.0000
  H   H9        1.0  0.9103217870323559  0.35234930371247564  0.5610221148325754  1.0000
  H   H10       1.0  0.8708715559405323  0.0973847747662433  0.7910518869882723  1.0000
  H   H11       1.0  0.872615846996992  0.680140185703529  0.7920087171611494  1.0000
  H   H12       1.0  0.9294733655457916  0.9144505658375117  0.4455914376158938  1.0000
  H   H13       1.0  0.9101165806331213  0.45941697455001185  0.5609079386303002  1.0000
  H   H14       1.0  0.7644637792072132  0.7259492681338966  0.9200000974284077  1.0000
  H   H15       1.0  0.7273083650003448  0.7091891964529986  0.14883811866265295  1.0000
  H   H16       1.0  0.7846717081098252  0.848612119712942  0.3059147843704495  1.0000
  H   H17       1.0  0.9218955683349769  0.025947485231679224  0.005207875344673596  1.0000
  H   H18       1.0  0.8890796448447102  0.9348614768316899  0.4368764862963199  1.0000
  H   H19       1.0  0.9115540645007111  0.1055623926600695  0.429544949059926  1.0000
  H   H20       1.0  0.8161316818567945  0.05779977199342068  0.39719723815715946  1.0000
  C   C28       1.0  0.9019571861516009  0.4020784965121571  0.2292962068473936  1.0000
  C   C29       1.0  0.8283889502947211  0.3542982439441691  0.22859787165280987  1.0000
  C   C30       1.0  0.7910850183816952  0.3302039735576132  0.11109492950788646  1.0000
  C   C31       1.0  0.8283372969404529  0.3545306126785297  0.9932906665594272  1.0000
  C   C32       1.0  0.9019060110720521  0.4023086288634623  0.9919978804928289  1.0000
  C   C33       1.0  0.9383038700463319  0.42581552413849244  0.11050013426604055  1.0000
  C   C34       1.0  0.7132540885265342  0.27965580229891196  0.1114094799391585  1.0000
  C   C35       1.0  0.6921579557433631  0.18163848039780728  0.20570646689466643  1.0000
  C   C36       1.0  0.6188999854449312  0.13411813790453397  0.20586864488530998  1.0000
  C   C37       1.0  0.5655793289938131  0.18374643989574624  0.11200611238247249  1.0000
  C   C38       1.0  0.5861797796595043  0.28138385348543427  0.017844784477222486  1.0000
  C   C39       1.0  0.659415173442134  0.3290059244893633  0.017415236274022305  1.0000
  N   N3        1.0  0.49065343761491875  0.13508454376473344  0.11230871147505472  1.0000
  H   H21       1.0  0.9300028384432704  0.4202310299056329  0.5570205222426119  1.0000
  H   H22       1.0  0.7995492343930964  0.33739159237567184  0.3195038625793736  1.0000
  H   H23       1.0  0.8002056235131095  0.3344369190555583  0.9026147462745975  1.0000
  H   H24       1.0  0.9950585401304761  0.4626748989930223  0.11027088849216682  1.0000
  H   H25       1.0  0.9299277399026752  0.4205695321530376  0.6640471185097772  1.0000
  H   H26       1.0  0.7325770285495956  0.14053447483781434  0.27829559971715256  1.0000
  H   H27       1.0  0.6037585248766183  0.05838482987287219  0.27896846914987505  1.0000
  H   H28       1.0  0.5454473785898979  0.3208290330398864  0.944970737846881  1.0000
  H   H29       1.0  0.6736782308964439  0.40562389171572844  0.9446052846835631  1.0000
  H   H30       1.0  0.45051408157114187  0.17147101387373964  0.042718665557264  1.0000
  H   H31       1.0  0.4747675991900975  0.06231189380224711  0.1821254928013909  1.0000
  Zn  Zn1       1.0  0.8196124636415156  0.40389754294786084  0.6067064282302073  1.0000
  Zn  Zn2       1.0  0.9842435535289664  0.40048907318806326  0.6145867555180109  1.0000
  C   C40       1.0  0.9019149335836705  0.39709145496740383  0.8478313789835283  1.0000
  C   C41       1.0  0.9019428810545688  0.40729676260713643  0.3734620181209145  1.0000
  C   C42       1.0  0.9018860965583055  0.6393843288846792  0.6054492075175419  1.0000
  C   C43       1.0  0.9019716621744164  0.16500232957032468  0.6158442562828574  1.0000
  O   O2        1.0  0.9644147217664513  0.40774889812285897  0.42483592503557044  1.0000
  O   O3        1.0  0.9643942809907573  0.3940513899347582  0.8024380844075629  1.0000
  O   O4        1.0  0.9643701524225025  0.5897059676788949  0.606712725610687  1.0000
  O   O5        1.0  0.964438794162154  0.21209433080265416  0.6205611837724765  1.0000
  O   O6        1.0  0.8394171668278171  0.5922922864978251  0.600731997279742  1.0000
  O   O7        1.0  0.8394412951210779  0.39663926903778024  0.7964572866846611  1.0000
  O   O8        1.0  0.839461736059483  0.41033673149781835  0.4188535659926509  1.0000
  O   O9        1.0  0.8394858084472268  0.21468215491823694  0.6145789220935272  1.0000
