data_image0
_chemical_formula_structural       NC10NC3NH7C12OCH12C16H10Zn2C4O8
_chemical_formula_sum              "N3 C46 H29 O9 Zn2"
_cell_length_a       19.210446455230148
_cell_length_b       10.29979075500242
_cell_length_c       10.299151387937775
_cell_angle_alpha    85.5809823184421
_cell_angle_beta     89.97931430287453
_cell_angle_gamma    89.92936594805748

_space_group_name_H-M_alt    "P 1"
_space_group_IT_number       1

loop_
  _space_group_symop_operation_xyz
  'x, y, z'

loop_
  _atom_site_type_symbol
  _atom_site_label
  _atom_site_symmetry_multiplicity
  _atom_site_fract_x
  _atom_site_fract_y
  _atom_site_fract_z
  _atom_site_occupancy
  N   N1        1.0  0.6553836091931027  0.41955980210342614  0.5672606501731479  1.0000
  C   C1        1.0  0.5951544941189676  0.4217673722720523  0.5674917104622101  1.0000
  C   C2        1.0  0.5203493531671338  0.42450435494116157  0.5677779652461443  1.0000
  C   C3        1.0  0.4847083640417771  0.5407389687525288  0.5828851218967674  1.0000
  C   C4        1.0  0.4120428512327017  0.5408904810953026  0.5828325184416814  1.0000
  C   C5        1.0  0.3751824152340369  0.42521334445418546  0.5678644201680929  1.0000
  C   C6        1.0  0.2978606371691301  0.4238568314826945  0.5677138822058234  1.0000
  C   C7        1.0  0.2600860075119089  0.5273989868212985  0.5043479354194553  1.0000
  C   C8        1.0  0.1873080112052829  0.5259967369028637  0.5042389170548884  1.0000
  C   C9        1.0  0.1513031736361233  0.4213098152569552  0.567444838357944  1.0000
  C   C10       1.0  0.0763739900860849  0.4200077010350691  0.5673080615207136  1.0000
  N   N2        1.0  0.0161364083259478  0.41896075700729685  0.5671981278212543  1.0000
  C   C11       1.0  0.1883541165732729  0.3178933396165562  0.6307857716516871  1.0000
  C   C12       1.0  0.2611340259622237  0.31902134767412105  0.63094504684161  1.0000
  C   C13       1.0  0.4134327877064595  0.3107990722430427  0.5530453555614314  1.0000
  N   N3        1.0  0.4842021104446776  0.3132440696162173  0.5532108207711803  1.0000
  H   H1        1.0  0.5127859694058602  0.6301758946788023  0.5949299814391613  1.0000
  H   H2        1.0  0.3847503769484388  0.6309098411562235  0.5962720785647504  1.0000
  H   H3        1.0  0.2867970786349987  0.6086295893172085  0.4533540448048805  1.0000
  H   H4        1.0  0.1591454879423939  0.606400203365701  0.4545754533580313  1.0000
  H   H5        1.0  0.1610035574729295  0.23652645324916044  0.6803497891554415  1.0000
  H   H6        1.0  0.2886515289076378  0.2387376625703499  0.6820462324780523  1.0000
  H   H7        1.0  0.3871912879572779  0.21991678855678432  0.5395595828754951  1.0000
  C   C14       1.0  0.8358258852560405  0.03789244698967198  0.5672683300640604  1.0000
  C   C15       1.0  0.81566215404515  0.026815828034191913  0.698710780190676  1.0000
  C   C16       1.0  0.8053898023191425  0.9040670132785087  0.7652805273683116  1.0000
  C   C17       1.0  0.8155371026627982  0.7915337144355434  0.6986450163313127  1.0000
  C   C18       1.0  0.8357008030720204  0.8006181182764951  0.567201633688986  1.0000
  C   C19       1.0  0.8457339092813266  0.9242391292876925  0.5022499556015412  1.0000
  C   C20       1.0  0.7840619576315873  0.8934026748621599  0.9043405147632999  1.0000
  C   C21       1.0  0.7332668466893402  0.8026399864675678  0.9494151779523292  1.0000
  C   C22       1.0  0.7132563444189797  0.7928765055555499  0.08015857472413224  1.0000
  C   C23       1.0  0.7435904579466122  0.8732086290537532  0.1675020768915182  1.0000
  C   C24       1.0  0.7945706856356134  0.9645808920768317  0.12429909998228195  1.0000
  C   C25       1.0  0.8143654473937544  0.9739833193215067  0.9930290373570598  1.0000
  O   O1        1.0  0.826737786549045  0.04726311209002265  0.20816251957558585  1.0000
  C   C26       1.0  0.811799852041682  0.048322548394090115  0.34350212257865465  1.0000
  H   H8        1.0  0.843539591852164  0.3695645500195739  0.5172044011325809  1.0000
  H   H9        1.0  0.806976144250751  0.11387782564823778  0.7491413864534731  1.0000
  H   H10       1.0  0.8085923098888268  0.6966667515695182  0.7500144403059006  1.0000
  H   H11       1.0  0.8612899117182601  0.9320158754642601  0.4008476586556988  1.0000
  H   H12       1.0  0.8433494587851157  0.4766282777715924  0.5171000806810968  1.0000
  H   H13       1.0  0.7083762732963931  0.7404244391603113  0.8832095181389299  1.0000
  H   H14       1.0  0.6739391858613113  0.7229859162524908  0.11384441372865595  1.0000
  H   H15       1.0  0.7270834632821489  0.8635288951866328  0.26817220366511896  1.0000
  H   H16       1.0  0.8542440943600845  0.043447402700534266  0.9608559688196681  1.0000
  H   H17       1.0  0.8238189829712692  0.9517948406660147  0.39412296009452974  1.0000
  H   H18       1.0  0.8446434224885858  0.12292478523342032  0.3857110283754801  1.0000
  H   H19       1.0  0.756229335960838  0.07333155417129866  0.3579473365100838  1.0000
  C   C27       1.0  0.8358037038079931  0.41908648246024516  0.1858640347862428  1.0000
  C   C28       1.0  0.7686317800039283  0.47315083531049873  0.1809624932351177  1.0000
  C   C29       1.0  0.734532680271611  0.5007365888007684  0.06132134722832294  1.0000
  C   C30       1.0  0.768510625140513  0.473528629086186  0.9456501470081329  1.0000
  C   C31       1.0  0.8357229534264343  0.4194240649653853  0.9486059959078568  1.0000
  C   C32       1.0  0.86895640034036  0.39253801551982903  0.06913957672626792  1.0000
  C   C33       1.0  0.6634729199750016  0.5579304374312755  0.05718151743420119  1.0000
  C   C34       1.0  0.6457757578275176  0.6577717207203273  0.9618710803726249  1.0000
  C   C35       1.0  0.57888284536384  0.7115633780020325  0.9581029498502334  1.0000
  C   C36       1.0  0.5288095606742776  0.6663236573719171  0.049343596147992  1.0000
  C   C37       1.0  0.5458757441204569  0.5670417582695324  0.14449200091497283  1.0000
  C   C38       1.0  0.6127487003857437  0.5131625416618755  0.14850970750410708  1.0000
  C   C39       1.0  0.4599528914048164  0.7217482931027615  0.04533629788009064  1.0000
  C   C40       1.0  0.4022864025127766  0.7681655878256062  0.04198015701519475  1.0000
  C   C41       1.0  0.3347595436551455  0.8225198241124101  0.03805014950027319  1.0000
  C   C42       1.0  0.2771023737419515  0.8689298554386025  0.03469465749034195  1.0000
  H   H20       1.0  0.861626111316853  0.3982284764937649  0.515229829685292  1.0000
  H   H21       1.0  0.7430513471398403  0.4955875923682198  0.2702688238143487  1.0000
  H   H22       1.0  0.7420941896150451  0.49295141504833717  0.8532801373338788  1.0000
  H   H23       1.0  0.9207669897097112  0.3508332383032602  0.07220478789217677  1.0000
  H   H24       1.0  0.9624079374963255  0.3165464927210415  0.7469509812546105  1.0000
  H   H25       1.0  0.6839307650057624  0.6954102092351382  0.8913147609895522  1.0000
  H   H26       1.0  0.5662815297140679  0.7886331807024809  0.884245965253323  1.0000
  H   H27       1.0  0.5074504599250291  0.5310449084390925  0.2153796319835597  1.0000
  H   H28       1.0  0.6245275187082812  0.43533247129262564  0.22197388395472717  1.0000
  H   H29       1.0  0.22647461815562717  0.9096816323585788  0.03174826584645252  1.0000
  Zn  Zn1       1.0  0.7594890732682457  0.4193834699045411  0.5672501069832867  1.0000
  Zn  Zn2       1.0  0.9120309289207099  0.41912651139641244  0.5672193077704075  1.0000
  C   C43       1.0  0.8357375195697059  0.4141866317865257  0.8044318687910066  1.0000
  C   C44       1.0  0.8357841480893088  0.42432498537984586  0.3300376729503123  1.0000
  C   C45       1.0  0.8357213938368337  0.6564444700008096  0.5620390797587305  1.0000
  C   C46       1.0  0.8358002220189008  0.18206558698570308  0.572430531368445  1.0000
  O   O2        1.0  0.8936664251823239  0.42597989467381625  0.3784119753149371  1.0000
  O   O3        1.0  0.8936309815389024  0.4123357170452697  0.7560338167740128  1.0000
  O   O4        1.0  0.8936171792934817  0.60796198708412  0.5602999247008187  1.0000
  O   O5        1.0  0.8936801753843262  0.23035363396974118  0.574145770022636  1.0000
  O   O6        1.0  0.7778397747495811  0.6081563474203102  0.5603236447347375  1.0000
  O   O7        1.0  0.7778535767432335  0.41253163765041734  0.7560574674257539  1.0000
  O   O8        1.0  0.7778890206056588  0.4261757693318853  0.37843406456152007  1.0000
  O   O9        1.0  0.777902770796031  0.23054949938213332  0.5741679566383935  1.0000
