data_image0
_chemical_formula_structural       NC12NC2H8C12ClH9C13OH12Zn2C4O8
_chemical_formula_sum              "N2 C43 H29 Cl1 O9 Zn2"
_cell_length_a       17.80743265337812
_cell_length_b       10.299768534541528
_cell_length_c       10.299153481560891
_cell_angle_alpha    85.58394017871095
_cell_angle_beta     91.5511256746575
_cell_angle_gamma    89.45366305101135

_space_group_name_H-M_alt    "P 1"
_space_group_IT_number       1

loop_
  _space_group_symop_operation_xyz
  'x, y, z'

loop_
  _atom_site_type_symbol
  _atom_site_label
  _atom_site_symmetry_multiplicity
  _atom_site_fract_x
  _atom_site_fract_y
  _atom_site_fract_z
  _atom_site_occupancy
  N   N1        1.0  0.7074362660028134  0.4060916138978523  0.601402874060674  1.0000
  C   C1        1.0  0.6566098127522594  0.4356218232696156  0.5327055545793609  1.0000
  C   C2        1.0  0.5933766912528511  0.47235526170323405  0.44725473705019336  1.0000
  C   C3        1.0  0.6050910473096089  0.526323255767231  0.32063757486837563  1.0000
  C   C4        1.0  0.5437654236132131  0.5615541071879631  0.23758266516822646  1.0000
  C   C5        1.0  0.4705710731962847  0.5430801546504469  0.2804850280506712  1.0000
  C   C6        1.0  0.4578800044557316  0.48899355146821954  0.40757032749643574  1.0000
  C   C7        1.0  0.5200629419348893  0.4537659471225235  0.4906087256438858  1.0000
  C   C8        1.0  0.3801177458399342  0.46940666112867446  0.4533329309057783  1.0000
  C   C9        1.0  0.3613595481219191  0.49664500137143097  0.5803790747044015  1.0000
  C   C10       1.0  0.28813526660859223  0.47821263833727645  0.6233220028547453  1.0000
  C   C11       1.0  0.23272631695034923  0.4322880117455583  0.5400567439383395  1.0000
  C   C12       1.0  0.15736558017594882  0.41330340730354553  0.5844005729434609  1.0000
  N   N2        1.0  0.09678088455231451  0.39804106210890833  0.6200499609027774  1.0000
  C   C13       1.0  0.2507930880547724  0.4048809849223085  0.4135535618485964  1.0000
  C   C14       1.0  0.3239644711987226  0.42332802773270317  0.37035474684590897  1.0000
  H   H1        1.0  0.6615532407406179  0.5411326358773909  0.28620129776204983  1.0000
  H   H2        1.0  0.5529536119187218  0.6036103205206658  0.13980563454223383  1.0000
  H   H3        1.0  0.4239253444743158  0.5726882536209668  0.21489566636092272  1.0000
  H   H4        1.0  0.5115728647804434  0.4103243910033936  0.5882612360338979  1.0000
  H   H5        1.0  0.40305445600294837  0.533850863256641  0.6459543439532056  1.0000
  H   H6        1.0  0.2747134749331072  0.5000983546596767  0.7213323073252746  1.0000
  H   H7        1.0  0.2083816037431664  0.36894255977742274  0.3483913161349912  1.0000
  H   H8        1.0  0.3368576465454591  0.3999069082700637  0.27264769624038765  1.0000
  C   C15       1.0  0.9020413142712704  0.020702344981751608  0.610721054367444  1.0000
  C   C16       1.0  0.9069662495067482  0.030114651949053384  0.47448701965841744  1.0000
  C   C17       1.0  0.9095339787707614  0.9177430849081905  0.4054669988388382  1.0000
  C   C18       1.0  0.9071097373911352  0.7948239734313882  0.47450938184960934  1.0000
  C   C19       1.0  0.9021830348038483  0.7834201739468886  0.6107432698639785  1.0000
  C   C20       1.0  0.899676966312715  0.8969156033079717  0.6780862219351798  1.0000
  C   C21       1.0  0.9147451485794156  0.9287541681856525  0.2613427949812446  1.0000
  C   C22       1.0  0.8719930368048638  0.023150105389634135  0.1848309123531897  1.0000
  C   C23       1.0  0.876964876738004  0.03331687478442724  0.04918830660074103  1.0000
  C   C24       1.0  0.9246159933234916  0.9496107085986026  0.9883622251766844  1.0000
  C   C25       1.0  0.9673555384669994  0.8555267047299955  0.06336227457161892  1.0000
  C   C26       1.0  0.9625171144861332  0.8449649309669995  0.19902591343762577  1.0000
  Cl  Cl1       1.0  0.9307701967196493  0.9626142048715287  0.818170748609083  1.0000
  H   H9        1.0  0.9001261237907286  0.3445703388230379  0.6626278285635885  1.0000
  H   H10       1.0  0.9098537804471474  0.1250473922876405  0.42189234500398864  1.0000
  H   H11       1.0  0.9080366611811179  0.7079510173336122  0.4216072502181285  1.0000
  H   H12       1.0  0.8958768446384948  0.8888862687735146  0.783184472036061  1.0000
  H   H13       1.0  0.9003356436932803  0.4516204299929809  0.6626610922411644  1.0000
  H   H14       1.0  0.8340160321679877  0.08792894076691837  0.22975586651057922  1.0000
  H   H15       1.0  0.8435996870333624  0.1060994909017905  0.9914781714150411  1.0000
  H   H16       1.0  0.004494423215070764  0.7907179458998307  0.016707689889170707  1.0000
  H   H17       1.0  0.9968353707369465  0.7724553526834455  0.25528737834099147  1.0000
  C   C27       1.0  0.9020476220360316  0.4019151854895715  0.22935653982001103  1.0000
  C   C28       1.0  0.8243712851554243  0.37914136103522633  0.22630734180653023  1.0000
  C   C29       1.0  0.7851240460479589  0.36775449988519116  0.10760030772946627  1.0000
  C   C30       1.0  0.8245485922861812  0.3794549902530344  0.9910078724829035  1.0000
  C   C31       1.0  0.9021767356300505  0.4022073772550565  0.9921078145125803  1.0000
  C   C32       1.0  0.9404729749040646  0.4133010161399968  0.11179390678780954  1.0000
  C   C33       1.0  0.7030010041149423  0.34369004225983235  0.10534962657834046  1.0000
  C   C34       1.0  0.6554990270102986  0.4099082843963404  0.01040828971668728  1.0000
  C   C35       1.0  0.578216404823817  0.38730615145343816  0.008368222024600414  1.0000
  C   C36       1.0  0.5471348242992001  0.29723760040448677  0.10033778569435148  1.0000
  C   C37       1.0  0.5941330175854697  0.23212604269326742  0.19617354715708313  1.0000
  C   C38       1.0  0.6714191982140005  0.2546984549997082  0.19839193433377744  1.0000
  C   C39       1.0  0.46387684674075624  0.27567271686505657  0.10026620776191653  1.0000
  O   O1        1.0  0.4301498901859002  0.36395717116818416  0.17815986180246357  1.0000
  H   H18       1.0  0.04857016799514868  0.4457335061543888  0.442335869414749  1.0000
  H   H19       1.0  0.7940816359607811  0.3720040450766393  0.3163320905131384  1.0000
  H   H20       1.0  0.7947394810645863  0.3690192113253947  0.899400869548062  1.0000
  H   H21       1.0  0.00034947890462122544  0.4308542670128157  0.11335812634910747  1.0000
  H   H22       1.0  0.9320253268316329  0.41104486573374865  0.6650483654467223  1.0000
  H   H23       1.0  0.6779694499060986  0.4806990704178997  0.9389282534766021  1.0000
  H   H24       1.0  0.5425816934079137  0.44032269795101864  0.9351817803131843  1.0000
  H   H25       1.0  0.5709702612753901  0.16355594378747318  0.26906035040178544  1.0000
  H   H26       1.0  0.706602364263728  0.20149074715500448  0.27207995940040974  1.0000
  H   H27       1.0  0.4519343853110412  0.1741333780194938  0.13851106584345918  1.0000
  H   H28       1.0  0.4400999646608247  0.289529485126663  0.9989968616407832  1.0000
  H   H29       1.0  0.3755337151382164  0.34573309321311174  0.17484033200249138  1.0000
  Zn  Zn1       1.0  0.8197927165712068  0.40376493418641823  0.6067915074873715  1.0000
  Zn  Zn2       1.0  0.9844244313146924  0.40035715255771076  0.6146719204048825  1.0000
  C   C40       1.0  0.9021496788056457  0.39697857050366503  0.8479312718328669  1.0000
  C   C41       1.0  0.902069267179485  0.4071451176745804  0.3735323696297763  1.0000
  C   C42       1.0  0.9021514974629945  0.6392484017542788  0.6055636591492588  1.0000
  C   C43       1.0  0.9020673920666579  0.16487372733115224  0.6159000488186637  1.0000
  O   O2        1.0  0.9645534081944394  0.40760142965627066  0.4249096706441229  1.0000
  O   O3        1.0  0.9646171997171166  0.3939348512635805  0.8025346480013422  1.0000
  O   O4        1.0  0.9646178263162888  0.5895708218693849  0.6068210456926952  1.0000
  O   O5        1.0  0.9645527254028603  0.2119654694661095  0.6206231728876037  1.0000
  O   O6        1.0  0.8396643663023139  0.5921566184423392  0.6008402523086211  1.0000
  O   O7        1.0  0.839663739977895  0.39652220809366856  0.7965537854159599  1.0000
  O   O8        1.0  0.8395999482325004  0.4101887406318052  0.418927246631571  1.0000
  O   O9        1.0  0.839599265452603  0.2145527711903208  0.6146408462441888  1.0000
