data_image0
_chemical_formula_structural       NC11NC3H8C16H10C13F3H9Zn2C4O8
_chemical_formula_sum              "N2 C47 H27 F3 Zn2 O8"
_cell_length_a       17.807433833752565
_cell_length_b       10.29914801576943
_cell_length_c       10.2985328690268
_cell_angle_alpha    85.55501211268866
_cell_angle_beta     88.52982223362811
_cell_angle_gamma    90.69784511463686

_space_group_name_H-M_alt    "P 1"
_space_group_IT_number       1

loop_
  _space_group_symop_operation_xyz
  'x, y, z'

loop_
  _atom_site_type_symbol
  _atom_site_label
  _atom_site_symmetry_multiplicity
  _atom_site_fract_x
  _atom_site_fract_y
  _atom_site_fract_z
  _atom_site_occupancy
  N   N1        1.0  0.7075298549370382  0.43813278229707864  0.5339656765627689  1.0000
  C   C1        1.0  0.6567093685285778  0.4034242981285776  0.6005466966992055  1.0000
  C   C2        1.0  0.5934835577204426  0.3602498038324411  0.683364989725666  1.0000
  C   C3        1.0  0.6052088800534983  0.29673326177278825  0.8061176357042696  1.0000
  C   C4        1.0  0.5438905656898745  0.2552379584636899  0.8866511578220544  1.0000
  C   C5        1.0  0.4706925745884927  0.2769461060718199  0.8450730006804021  1.0000
  C   C6        1.0  0.4579904539201475  0.3406170661122758  0.7218600638196919  1.0000
  C   C7        1.0  0.3802242690867966  0.363654560644773  0.6775005258655225  1.0000
  C   C8        1.0  0.36143080351893353  0.34673956214909496  0.5479186447344204  1.0000
  C   C9        1.0  0.2882028618983069  0.3684089643998669  0.5062964291501173  1.0000
  C   C10       1.0  0.232825309218531  0.4073116583314629  0.5934356356746731  1.0000
  C   C11       1.0  0.15746065974481452  0.4296391478687003  0.550451765412014  1.0000
  N   N2        1.0  0.0968728549584574  0.4475887906864917  0.5158958620923177  1.0000
  C   C12       1.0  0.25092721007695085  0.4244370824231072  0.7224862612289731  1.0000
  C   C13       1.0  0.3241023998854382  0.402732828658281  0.764363937225107  1.0000
  C   C14       1.0  0.5201660804797362  0.382107809335521  0.6413429604846501  1.0000
  H   H1        1.0  0.6616741584464201  0.2793279417070069  0.8394925343093245  1.0000
  H   H2        1.0  0.553087207000631  0.20581168211287992  0.9814138732708808  1.0000
  H   H3        1.0  0.4240521344246659  0.24240736769273008  0.9085304623735206  1.0000
  H   H4        1.0  0.4031007233958512  0.31507313848046814  0.47921068086286756  1.0000
  H   H5        1.0  0.2747536268856435  0.35449515970023593  0.40626108804803107  1.0000
  H   H6        1.0  0.20854030502656193  0.45488021209260077  0.7906799270203788  1.0000
  H   H7        1.0  0.3370234089931022  0.4181921145288454  0.8642158751033651  1.0000
  H   H8        1.0  0.5116681216339403  0.4328966278049744  0.5468140149107066  1.0000
  C   C15       1.0  0.9021514575767812  0.06145825023697471  0.5250986228626977  1.0000
  C   C16       1.0  0.8849905936874108  0.07059885881575423  0.3924113439760324  1.0000
  C   C17       1.0  0.87634486916997  0.9581048703780094  0.324968899389406  1.0000
  C   C18       1.0  0.8850908570852296  0.8353493532958014  0.3920020707625089  1.0000
  C   C19       1.0  0.9022584222693905  0.8242534916187041  0.5247737977227249  1.0000
  C   C20       1.0  0.9106843612375575  0.9378213285087479  0.5905044912189987  1.0000
  C   C21       1.0  0.8581909302204146  0.9688201420556661  0.18460175184761263  1.0000
  C   C22       1.0  0.8937299480006594  0.8886717423439079  0.09772842474641807  1.0000
  C   C23       1.0  0.8766178405097854  0.8988811261015738  0.9656214977791695  1.0000
  C   C24       1.0  0.8237909805427672  0.9891343908261858  0.9185916668619982  1.0000
  C   C25       1.0  0.7881149040611164  0.06925937885228173  0.004187320301177078  1.0000
  C   C26       1.0  0.8051734488491717  0.05928996641439355  0.136317681284978  1.0000
  C   C27       1.0  0.8062017732094467  0.9995219260967576  0.7825738498206896  1.0000
  C   C28       1.0  0.7914710017117731  0.00822138824912666  0.6686608987787186  1.0000
  C   C29       1.0  0.7742214422349747  0.018408340376987464  0.5352699935974794  1.0000
  C   C30       1.0  0.7594931429490293  0.027106491136388966  0.42137543693339996  1.0000
  H   H9        1.0  0.9087136258076783  0.3854160464867171  0.5761517221704173  1.0000
  H   H10       1.0  0.8793202575934644  0.16550035961487297  0.34076063590333816  1.0000
  H   H11       1.0  0.8774814345833053  0.7482553294989067  0.34093597564097244  1.0000
  H   H12       1.0  0.9239187787336812  0.9300549986655994  0.6928505530123952  1.0000
  H   H13       1.0  0.9341960740938855  0.5959928271963808  0.7755733146707295  1.0000
  H   H14       1.0  0.9354651176811134  0.8192918171337397  0.13164376049730442  1.0000
  H   H15       1.0  0.9047210448992932  0.8366208366340887  0.9001376519448114  1.0000
  H   H16       1.0  0.7469772008946584  0.13921774156128697  0.9688742626515494  1.0000
  H   H17       1.0  0.7761944298413337  0.12113892857978881  0.20103932868791774  1.0000
  H   H18       1.0  0.7465605104085995  0.03474420368116493  0.3213664099458784  1.0000
  C   C31       1.0  0.9021833344371596  0.4427333968478919  0.14353976802128998  1.0000
  C   C32       1.0  0.9775090408421315  0.40366801922537077  0.1422740749893472  1.0000
  C   C33       1.0  0.015677157182439228  0.38399197666292895  0.024461832916569115  1.0000
  C   C34       1.0  0.977553428065243  0.40392473563427145  0.9069712311998561  1.0000
  C   C35       1.0  0.9022265493736297  0.44297837896318204  0.9063326343239879  1.0000
  C   C36       1.0  0.8650225520122301  0.46212813991634594  0.025092058328930023  1.0000
  C   C37       1.0  0.09531436808826776  0.34270274397584255  0.024058126869722196  1.0000
  C   C38       1.0  0.14719595568981902  0.39856786534322386  0.9300856796427497  1.0000
  C   C39       1.0  0.22214526207048602  0.3598112915712697  0.9297271808228413  1.0000
  C   C40       1.0  0.2465766543277257  0.26300035214939155  0.022105646126636014  1.0000
  C   C41       1.0  0.1951301912606891  0.20896499746569908  0.11763446273442857  1.0000
  C   C42       1.0  0.12018577984127576  0.24775474788550356  0.11810364149096175  1.0000
  C   C43       1.0  0.32802323982209614  0.22468850182967337  0.024626038370819003  1.0000
  F   F1        1.0  0.3665620377391623  0.3049457611936277  0.10228882556307406  1.0000
  F   F2        1.0  0.36001904640794247  0.2366396980565766  0.9002791804921486  1.0000
  F   F3        1.0  0.3349626733253015  0.09672510757737895  0.07424379526035985  1.0000
  H   H19       1.0  0.7599890697932865  0.5173745077913618  0.35318639138528307  1.0000
  H   H20       1.0  0.0069272284649926075  0.39022176227829286  0.23299368549377597  1.0000
  H   H21       1.0  0.006403080715227549  0.3872424195968067  0.8160088968846502  1.0000
  H   H22       1.0  0.8069672947764653  0.4922313433087193  0.02533444244830907  1.0000
  H   H23       1.0  0.7597483013186885  0.5160289235386009  0.697863856126224  1.0000
  H   H24       1.0  0.13008698892078407  0.4739229922037105  0.8581186644943077  1.0000
  H   H25       1.0  0.2611003631495079  0.4059875054715798  0.8574149778699729  1.0000
  H   H26       1.0  0.21284018294916196  0.13651624745189128  0.19201524899515898  1.0000
  H   H27       1.0  0.08150139956471736  0.20253921629632687  0.1914225568820942  1.0000
  Zn  Zn1       1.0  0.8198858342070776  0.44085810951507676  0.5287586049747697  1.0000
  Zn  Zn2       1.0  0.9845168600382715  0.44485284633788647  0.5211135249805772  1.0000
  C   C44       1.0  0.902215981181905  0.43775787892530627  0.7621507226976738  1.0000
  C   C45       1.0  0.9021885110661658  0.4479547593553965  0.2877214505513812  1.0000
  C   C46       1.0  0.902234049763734  0.6800672087972768  0.5196598085958761  1.0000
  C   C47       1.0  0.9021703860923658  0.2056438677020631  0.5302124371700832  1.0000
  O   O1        1.0  0.9646668639166663  0.4512174118740191  0.33320887472237937  1.0000
  O   O2        1.0  0.9646887674760573  0.43752615929412575  0.7108604862504599  1.0000
  O   O3        1.0  0.9647025159462368  0.6331939875829944  0.515047395985728  1.0000
  O   O4        1.0  0.9646530592648549  0.2555495914817876  0.5290218702102096  1.0000
  O   O5        1.0  0.8397495788000048  0.6301613630093796  0.5208502623471956  1.0000
  O   O6        1.0  0.8397358305413067  0.4344950951400781  0.716663282697082  1.0000
  O   O7        1.0  0.8397139269370615  0.44818630195975784  0.3390101096726239  1.0000
  O   O8        1.0  0.8397001222863925  0.2525184723090934  0.5348232025394146  1.0000
