data_image0
_chemical_formula_structural       NC10NC5H10C12ClH9C12IH9Zn2C4O8
_chemical_formula_sum              "N2 C43 H28 Cl1 I1 Zn2 O8"
_cell_length_a       19.4436361288709
_cell_length_b       10.299768534541528
_cell_length_c       10.29977335064465
_cell_angle_alpha    85.54596918474078
_cell_angle_beta     89.71371329934455
_cell_angle_gamma    89.43641405984484

_space_group_name_H-M_alt    "P 1"
_space_group_IT_number       1

loop_
  _space_group_symop_operation_xyz
  'x, y, z'

loop_
  _atom_site_type_symbol
  _atom_site_label
  _atom_site_symmetry_multiplicity
  _atom_site_fract_x
  _atom_site_fract_y
  _atom_site_fract_z
  _atom_site_occupancy
  N   N1        1.0  0.6477593505927207  0.40970445685375645  0.5621576002758777  1.0000
  C   C1        1.0  0.5889271609209257  0.4195994721746126  0.5765420733714686  1.0000
  C   C2        1.0  0.5156025561780067  0.4319398577149596  0.5945350120692703  1.0000
  C   C3        1.0  0.473399694057334  0.39998769695398884  0.49985956457533987  1.0000
  C   C4        1.0  0.39749752571161895  0.410423319027736  0.5051881487927645  1.0000
  C   C5        1.0  0.357769501131961  0.3856258475536438  0.6122596270133056  1.0000
  C   C6        1.0  0.2816477458479658  0.38954845078067546  0.5993004071148293  1.0000
  C   C7        1.0  0.2411078162027032  0.4471649932209776  0.6930740198159793  1.0000
  C   C8        1.0  0.1694435109245019  0.4508076077891585  0.6825302700307598  1.0000
  C   C9        1.0  0.1373243549947702  0.3964375414981818  0.5784994159456418  1.0000
  C   C10       1.0  0.063530792962288  0.4001414707904736  0.567800386749225  1.0000
  N   N2        1.0  0.0042057742259885  0.40311923551379003  0.5591990766107957  1.0000
  C   C11       1.0  0.1771393313071177  0.33811374173641573  0.4851090053327396  1.0000
  C   C12       1.0  0.2488200206608239  0.33441702172109533  0.49540097458375065  1.0000
  C   C13       1.0  0.3859143208288385  0.3451045418593601  0.7433526045727223  1.0000
  C   C14       1.0  0.4445917914903316  0.38820359587821085  0.7905972549399785  1.0000
  C   C15       1.0  0.4888048026642255  0.48609482586679253  0.7162343337464989  1.0000
  H   H1        1.0  0.4954810149519471  0.37091330166644787  0.40955117086220594  1.0000
  H   H2        1.0  0.372789544085207  0.43296111428437944  0.41203067629195433  1.0000
  H   H3        1.0  0.2649969587433735  0.490417347800427  0.7739245781591906  1.0000
  H   H4        1.0  0.139116592243619  0.4960873574085207  0.7554534428864523  1.0000
  H   H5        1.0  0.15277838630491192  0.29505688492938553  0.404592939981234  1.0000
  H   H6        1.0  0.2784810507402848  0.2868935968286448  0.4231740291887185  1.0000
  H   H7        1.0  0.3549473720985075  0.2808585810779778  0.8075965845906312  1.0000
  H   H8        1.0  0.45975003828308425  0.3540912051553251  0.8885302712585663  1.0000
  H   H9        1.0  0.45870722738689196  0.5768192922039164  0.6909866991210485  1.0000
  H   H10       1.0  0.5321031226560461  0.5116508895772398  0.7793206653090168  1.0000
  C   C16       1.0  0.8259209817625107  0.025047594323760913  0.5606767517914129  1.0000
  C   C17       1.0  0.8304391971502271  0.03456897711820561  0.4241705465449537  1.0000
  C   C18       1.0  0.8327947349386812  0.922252946587914  0.35500860675401924  1.0000
  C   C19       1.0  0.8305705597622627  0.7992788283468963  0.42418494617483926  1.0000
  C   C20       1.0  0.8260507263618054  0.7877659464249118  0.5606911028010888  1.0000
  C   C21       1.0  0.8237517551917143  0.9012071859447611  0.6281725660006989  1.0000
  C   C22       1.0  0.8375755446514789  0.9333794267568645  0.21059641372651305  1.0000
  C   C23       1.0  0.7984409700605182  0.02766386761082895  0.13645754585196812  1.0000
  C   C24       1.0  0.8030020862042087  0.037939498469100386  0.0005401618721703194  1.0000
  C   C25       1.0  0.8466312128927979  0.9544545384452501  0.9370703431718916  1.0000
  C   C26       1.0  0.885754386993256  0.8604829862541403  0.009698087609220973  1.0000
  C   C27       1.0  0.8813154126294792  0.8498128434295857  0.145629101060186  1.0000
  Cl  Cl1       1.0  0.852277175587176  0.9675943049893198  0.7665387616770372  1.0000
  H   H11       1.0  0.8241640289316031  0.34887388198769553  0.612689375478197  1.0000
  H   H12       1.0  0.8330863819097737  0.12954757036351494  0.3714160713056014  1.0000
  H   H13       1.0  0.8314228162690155  0.7124444880050765  0.371231813784612  1.0000
  H   H14       1.0  0.8202654634465231  0.8930937015672428  0.7334808253634699  1.0000
  H   H15       1.0  0.8243558435628053  0.45592474628409607  0.6127110122801125  1.0000
  H   H16       1.0  0.7636696576065513  0.09226876274252516  0.18348953598793627  1.0000
  H   H17       1.0  0.7724600063062025  0.110633770642244  0.944681990929146  1.0000
  H   H18       1.0  0.919758514243622  0.7958461342549792  0.9609829898370079  1.0000
  H   H19       1.0  0.9127301315629324  0.7773961873997263  0.199985726434035  1.0000
  C   C28       1.0  0.8259530785543021  0.4065134740780463  0.1793150285278038  1.0000
  C   C29       1.0  0.8883120573944411  0.47436429883901043  0.1724616394485241  1.0000
  C   C30       1.0  0.9199428928130621  0.5086364056795034  0.05185866086897506  1.0000
  C   C31       1.0  0.8883781800240662  0.4741489226765283  0.9371914729230122  1.0000
  C   C32       1.0  0.8260186255164305  0.40630011347886685  0.9420529086191256  1.0000
  C   C33       1.0  0.7951555287578814  0.3728612526306112  0.06357997106624191  1.0000
  C   C34       1.0  0.9859132196749748  0.5804146019193681  0.04566236699032378  1.0000
  C   C35       1.0  0.996750094832566  0.6832325665503773  0.1253851334007008  1.0000
  C   C36       1.0  0.05887734285438295  0.7506764065768754  0.11935104692368959  1.0000
  C   C37       1.0  0.11085830709299538  0.7163567703512179  0.03392958380298983  1.0000
  C   C38       1.0  0.10068503061144107  0.6144127354350795  0.9543440681483184  1.0000
  C   C39       1.0  0.03862751732607461  0.5467416372094662  0.9599716296029484  1.0000
  I   I1        1.0  0.20452379464141268  0.8182642053737945  0.025136027768676072  1.0000
  H   H20       1.0  0.8021714963472456  0.3807246023232058  0.5093751371417872  1.0000
  H   H21       1.0  0.9129108780677246  0.49915660269274476  0.2612348500278532  1.0000
  H   H22       1.0  0.912069686623317  0.5018986872966926  0.8438826060401161  1.0000
  H   H23       1.0  0.7470480296523259  0.3205185734267788  0.06809869250785083  1.0000
  H   H24       1.0  0.8022674865027967  0.38041069022669194  0.6164544944451622  1.0000
  H   H25       1.0  0.9568731090860021  0.7125469335712111  0.19110738939767336  1.0000
  H   H26       1.0  0.06650269471743919  0.8298117623468644  0.18087523037120756  1.0000
  H   H27       1.0  0.14090018907803237  0.5873283290365776  0.8883279100123351  1.0000
  H   H28       1.0  0.032197299743975005  0.46704332000999593  0.8985984256315205  1.0000
  Zn  Zn1       1.0  0.7506220901087537  0.40780063079580264  0.5613113463276165  1.0000
  Zn  Zn2       1.0  0.9013430253386449  0.40501245103221306  0.560056011538854  1.0000
  C   C40       1.0  0.8260038178667809  0.40116685461502377  0.7978790020234687  1.0000
  C   C41       1.0  0.8259629437382213  0.41164783532977833  0.32348846963216715  1.0000
  C   C42       1.0  0.8260222112066404  0.6435974909373985  0.5555132848095559  1.0000
  C   C43       1.0  0.8259444987083886  0.16921563965620035  0.5658542564836182  1.0000
  O   O1        1.0  0.883164063051328  0.4123072085080539  0.3713980003903954  1.0000
  O   O2        1.0  0.8831964007493412  0.39839033790448664  0.7490163273425057  1.0000
  O   O3        1.0  0.8832104826661048  0.5941561565745987  0.5533043023621986  1.0000
  O   O4        1.0  0.8831499296969314  0.21654140010670475  0.5671099284245689  1.0000
  O   O5        1.0  0.7688151343168088  0.5962716826741963  0.5542574298634544  1.0000
  O   O6        1.0  0.7688010526563599  0.40050742430817143  0.7499693856277767  1.0000
  O   O7        1.0  0.7687687148622179  0.4144242500922648  0.3723494972737169  1.0000
  O   O8        1.0  0.7687545815117958  0.21865843237503713  0.5680615226755774  1.0000
