data_image0
_chemical_formula_structural       NC11NC3H8C13OH12C15H12Zn2C4O8
_chemical_formula_sum              "N2 C46 H32 O9 Zn2"
_cell_length_a       17.807433833752565
_cell_length_b       10.299150109392551
_cell_length_c       10.299157797200024
_cell_angle_alpha    85.5240492146119
_cell_angle_beta     88.54730741847368
_cell_angle_gamma    90.66566965777596

_space_group_name_H-M_alt    "P 1"
_space_group_IT_number       1

loop_
  _space_group_symop_operation_xyz
  'x, y, z'

loop_
  _atom_site_type_symbol
  _atom_site_label
  _atom_site_symmetry_multiplicity
  _atom_site_fract_x
  _atom_site_fract_y
  _atom_site_fract_z
  _atom_site_occupancy
  N   N1        1.0  0.7068092015856824  0.4389859376764018  0.5341005583450749  1.0000
  C   C1        1.0  0.6560114700576136  0.40423832505895674  0.6006776348451706  1.0000
  C   C2        1.0  0.5928139639283748  0.3610151599848621  0.6834910223793842  1.0000
  C   C3        1.0  0.6045810839968508  0.29742647252492294  0.8062364314387829  1.0000
  C   C4        1.0  0.5432901343793117  0.2558838350667971  0.886765218196923  1.0000
  C   C5        1.0  0.47007792248908065  0.2776164169792672  0.8451895261502902  1.0000
  C   C6        1.0  0.45733387464909436  0.3413597939914623  0.7219838473739237  1.0000
  C   C7        1.0  0.37955255775173175  0.36442335889908706  0.6776269306606648  1.0000
  C   C8        1.0  0.3607423328669336  0.3475855669387111  0.5480467024692182  1.0000
  C   C9        1.0  0.2875001755118306  0.3692794301559772  0.506426950189504  1.0000
  C   C10       1.0  0.23212492166856133  0.40812986205232504  0.5935670078745572  1.0000
  C   C11       1.0  0.1567456079596863  0.4304826134210282  0.5505856778792353  1.0000
  N   N2        1.0  0.0961460142065328  0.448452564913181  0.5160318167471889  1.0000
  C   C12       1.0  0.2502434219581054  0.42517839264759205  0.722616007213291  1.0000
  C   C13       1.0  0.3234328827661124  0.4034495265604139  0.7644912117837712  1.0000
  C   C14       1.0  0.5194821407706749  0.3828978616648331  0.6414714787111524  1.0000
  H   H1        1.0  0.6610577709802345  0.28000153872946565  0.8396093527220232  1.0000
  H   H2        1.0  0.5525191707313986  0.20640186873345656  0.9815223188816666  1.0000
  H   H3        1.0  0.4234596450264088  0.24304040400360383  0.9086431252245135  1.0000
  H   H4        1.0  0.4024107635078186  0.31596036348207623  0.47933799672574695  1.0000
  H   H5        1.0  0.2740382814066032  0.3554252384604568  0.40639282412492395  1.0000
  H   H6        1.0  0.20785831641370803  0.4555806229524779  0.790810339004441  1.0000
  H   H7        1.0  0.33636601578032216  0.41884928912374497  0.8643420488615041  1.0000
  H   H8        1.0  0.5109513830177617  0.43374221421793147  0.5469482398909269  1.0000
  C   C15       1.0  0.9015520363312024  0.062321372951419596  0.5252068439292139  1.0000
  C   C16       1.0  0.9001994797884091  0.0504445604052941  0.6620881393620217  1.0000
  C   C17       1.0  0.899448277586815  0.9272866501250572  0.7312291885607038  1.0000
  C   C18       1.0  0.9000545541750954  0.8151857973940259  0.6617314495445705  1.0000
  C   C19       1.0  0.901410362962635  0.825107257730841  0.5249364070719158  1.0000
  C   C20       1.0  0.9021532469949427  0.9491350860607949  0.4574734280088817  1.0000
  C   C21       1.0  0.8980108553887653  0.9157039459096179  0.8759442563542716  1.0000
  C   C22       1.0  0.8518317827857005  0.8216811117422356  0.9461126746289619  1.0000
  C   C23       1.0  0.8504542807214532  0.8108626027781103  0.08229056388067413  1.0000
  C   C24       1.0  0.8957236875198956  0.89291895041404  0.15073896094259387  1.0000
  C   C25       1.0  0.9411841688791254  0.9878777601348365  0.08124650009394363  1.0000
  C   C26       1.0  0.9425791094678473  0.9988724902276379  0.9450675128053312  1.0000
  C   C27       1.0  0.8926638135032761  0.8836096566467195  0.29697556200951647  1.0000
  O   O1        1.0  0.8365232930364527  0.9654083329501123  0.3398239456132409  1.0000
  H   H9        1.0  0.9036169782730146  0.29202038181278844  0.2668596353809647  1.0000
  H   H10       1.0  0.8986856147727923  0.13716440074602487  0.715169994384488  1.0000
  H   H11       1.0  0.9004952449990901  0.7200572386248794  0.7145475226531848  1.0000
  H   H12       1.0  0.9031968971087516  0.9575039621724716  0.3519594171730813  1.0000
  H   H13       1.0  0.9018812901400939  0.50144670188196  0.47232258272279726  1.0000
  H   H14       1.0  0.8158925129072058  0.7578152347214404  0.8956689229157344  1.0000
  H   H15       1.0  0.8139211698451801  0.7386286247596522  0.1343644665988427  1.0000
  H   H16       1.0  0.9757398127397275  0.053262726888302137  0.13250071299068222  1.0000
  H   H17       1.0  0.9791375754055529  0.07155226054869512  0.8937991226052973  1.0000
  H   H18       1.0  0.9479327271717503  0.91276987940452  0.3345828732835334  1.0000
  H   H19       1.0  0.8804638527982449  0.78127966158145  0.33535648837597065  1.0000
  H   H20       1.0  0.8368236107382756  0.955707575523645  0.43644219461917966  1.0000
  C   C28       1.0  0.9013940775150837  0.4438184798347051  0.14368359175599688  1.0000
  C   C29       1.0  0.8231487760349281  0.42393515564959694  0.14749658080793315  1.0000
  C   C30       1.0  0.7836369748220983  0.4137486423013639  0.03228013035108246  1.0000
  C   C31       1.0  0.8233720264897781  0.4237318353959054  0.9122190011294422  1.0000
  C   C32       1.0  0.9015682942711108  0.44361017231656796  0.906459605840864  1.0000
  C   C33       1.0  0.9401227048207836  0.4535316554382194  0.02274341993190565  1.0000
  C   C34       1.0  0.7009141675626034  0.39273287232870047  0.037357610217731985  1.0000
  C   C35       1.0  0.6671269997225509  0.3049253525374638  0.9578501934702839  1.0000
  C   C36       1.0  0.5892813550158215  0.28524168839796493  0.9626605408755569  1.0000
  C   C37       1.0  0.543836492745384  0.3523226745885044  0.04757491774479794  1.0000
  C   C38       1.0  0.5772214559070392  0.4409660297231508  0.1261239780398613  1.0000
  C   C39       1.0  0.6550663423744666  0.46065387411895986  0.12146161502622732  1.0000
  C   C40       1.0  0.4599742846901574  0.333467081176809  0.05041004073978317  1.0000
  C   C41       1.0  0.4261705301497521  0.4264200985921711  0.9545338813702204  1.0000
  C   C42       1.0  0.3983888750921403  0.5028556702781317  0.8756964989056404  1.0000
  H   H21       1.0  0.04913789803712887  0.4805538994816154  0.343838943823519  1.0000
  H   H22       1.0  0.7929331538592241  0.414574920777639  0.24043972837536587  1.0000
  H   H23       1.0  0.7930476662280278  0.41775605470609856  0.822995926801886  1.0000
  H   H24       1.0  0.00043785346320102114  0.46886063679221124  0.019016759190110255  1.0000
  H   H25       1.0  0.9316482922913479  0.4512146820046181  0.5767718565337749  1.0000
  H   H26       1.0  0.7009948121771649  0.25037880514742406  0.8929264333909077  1.0000
  H   H27       1.0  0.5644214372947579  0.2174761472159179  0.9002795286685559  1.0000
  H   H28       1.0  0.5429149839175951  0.4951927078730676  0.19072320895811234  1.0000
  H   H29       1.0  0.6793131248085992  0.5305119036378396  0.18222907605804095  1.0000
  H   H30       1.0  0.44499949347099327  0.23285474740751666  0.02769616230428551  1.0000
  H   H31       1.0  0.436057560982675  0.348331724111101  0.148735703260223  1.0000
  H   H32       1.0  0.374020013585674  0.569964048686401  0.8064835015745468  1.0000
  Zn  Zn1       1.0  0.8191633977239999  0.44171432485930207  0.5288937959521605  1.0000
  Zn  Zn2       1.0  0.9837918076985066  0.445713554438927  0.5212491694497026  1.0000
  C   C43       1.0  0.9015346691991916  0.43847545497962104  0.7622805433216944  1.0000
  C   C44       1.0  0.901422333685184  0.44895410669963587  0.2878624654928763  1.0000
  C   C45       1.0  0.9014320925202145  0.6809258465901686  0.5198122555817852  1.0000
  C   C46       1.0  0.9015248544936294  0.2065021532841187  0.5303308256367367  1.0000
  O   O2        1.0  0.9639074413835409  0.4521896906004501  0.3333491187009159  1.0000
  O   O3        1.0  0.9639987155259545  0.4382742140988418  0.7109914219655447  1.0000
  O   O4        1.0  0.963915041667619  0.634055950700158  0.5151966027421029  1.0000
  O   O5        1.0  0.9639910590413814  0.2564079619519877  0.5291438431501096  1.0000
  O   O6        1.0  0.8389640902015267  0.631019915982916  0.520999124853657  1.0000
  O   O7        1.0  0.8390477637507952  0.4352397398232448  0.7167938742750519  1.0000
  O   O8        1.0  0.838956489310059  0.44915517149302686  0.33915000954523356  1.0000
  O   O9        1.0  0.8390401069887958  0.2533734335283859  0.5349448313705791  1.0000
