data_image0
_chemical_formula_structural       NC8NC6H8C12NH11C12NH11Zn2C4O8
_chemical_formula_sum              "N4 C42 H30 Zn2 O8"
_cell_length_a       17.457602349358154
_cell_length_b       10.299770795358612
_cell_length_c       10.299774167527174
_cell_angle_alpha    85.57276865105108
_cell_angle_beta     92.86883644785563
_cell_angle_gamma    91.70596819880058

_space_group_name_H-M_alt    "P 1"
_space_group_IT_number       1

loop_
  _space_group_symop_operation_xyz
  'x, y, z'

loop_
  _atom_site_type_symbol
  _atom_site_label
  _atom_site_symmetry_multiplicity
  _atom_site_fract_x
  _atom_site_fract_y
  _atom_site_fract_z
  _atom_site_occupancy
  N   N1        1.0  0.7227837227449245  0.4524283978818586  0.6264649277485057  1.0000
  C   C1        1.0  0.6616981438826718  0.40650000480865844  0.6158531285618167  1.0000
  C   C2        1.0  0.5857051011342123  0.3493708010275256  0.6026615914447944  1.0000
  C   C3        1.0  0.5271786728408981  0.3895548001525495  0.6775526425171721  1.0000
  C   C4        1.0  0.4526240569696345  0.3345440424445889  0.6649753563401795  1.0000
  C   C5        1.0  0.3905068389369735  0.376972497624799  0.7442878292778199  1.0000
  C   C6        1.0  0.3159673542667116  0.39542445833757855  0.6885256644038977  1.0000
  C   C7        1.0  0.2574408822223521  0.4354245636797407  0.7635246775505768  1.0000
  C   C8        1.0  0.1814635041390694  0.4544817241300765  0.7055471146328272  1.0000
  N   N2        1.0  0.1203906074941361  0.46979730147363497  0.6589333055608322  1.0000
  C   C9        1.0  0.27296174170053766  0.4572160001044636  0.8947943303643984  1.0000
  C   C10       1.0  0.3467165667688942  0.43915314084057355  0.95094404561338  1.0000
  C   C11       1.0  0.4052314354219543  0.39933322508015734  0.8764027181268064  1.0000
  C   C12       1.0  0.43788448970650967  0.23867144261889495  0.5760742194452089  1.0000
  C   C13       1.0  0.49639922330594477  0.1987662418080407  0.501583131531312  1.0000
  C   C14       1.0  0.5701690564041398  0.2538895375393455  0.5147103323875177  1.0000
  H   H1        1.0  0.5395318645981682  0.4647688718834351  0.7441745291227027  1.0000
  H   H2        1.0  0.3036265995409261  0.38042405764841036  0.5865072633939699  1.0000
  H   H3        1.0  0.2281023769084503  0.488116164078636  0.9536250095736167  1.0000
  H   H4        1.0  0.3585439199338361  0.45571109331357706  0.052589088678344886  1.0000
  H   H5        1.0  0.4617111646749803  0.3843550074478408  0.9225080379560704  1.0000
  H   H6        1.0  0.3813922988283817  0.19333270760465648  0.5654262613692924  1.0000
  H   H7        1.0  0.4845601267905154  0.12466827907706812  0.43376289920193045  1.0000
  H   H8        1.0  0.6150282716239843  0.22211982561169852  0.45639081778379476  1.0000
  C   C15       1.0  0.9215213059165709  0.0797414297016461  0.6427333299014901  1.0000
  C   C16       1.0  0.8992625487083356  0.08790644982221774  0.5095111936560086  1.0000
  C   C17       1.0  0.8880542337157357  0.974910636193961  0.44197713991566845  1.0000
  C   C18       1.0  0.8994029789993045  0.8526309511161044  0.5094541113572717  1.0000
  C   C19       1.0  0.9216603477837968  0.8424745786897924  0.6426766847473793  1.0000
  C   C20       1.0  0.932595242748512  0.9565789420211759  0.7085701705569714  1.0000
  C   C21       1.0  0.8645060963876013  0.9846021734204687  0.30103587955106303  1.0000
  C   C22       1.0  0.8086447896080013  0.07332681562905097  0.2512891438475835  1.0000
  C   C23       1.0  0.7865141793144389  0.08232070189839424  0.1186368550803516  1.0000
  C   C24       1.0  0.8198260514694037  0.0029904942090113185  0.03361705568438711  1.0000
  C   C25       1.0  0.8755033164314056  0.9144556371375276  0.08245824383922673  1.0000
  C   C26       1.0  0.8976953878070985  0.9052084012868935  0.2150855798189366  1.0000
  N   N3        1.0  0.7971566160010376  0.012320036714783988  0.8979363953956025  1.0000
  H   H9        1.0  0.929970293132621  0.4040810168843114  0.6935116070826763  1.0000
  H   H10       1.0  0.8916070957355251  0.18246252764628057  0.45753611948183415  1.0000
  H   H11       1.0  0.8898216299112752  0.7651689232234388  0.458261830439223  1.0000
  H   H12       1.0  0.9497662825009358  0.9495119372479337  0.8113450992381492  1.0000
  H   H13       1.0  0.9301747938577734  0.5111535420905787  0.6934286872681392  1.0000
  H   H14       1.0  0.7813487440230582  0.13456461426416655  0.31526041679941774  1.0000
  H   H15       1.0  0.7432618920876554  0.15090296199950837  0.08219480424876169  1.0000
  H   H16       1.0  0.9018505937104259  0.852830639365078  0.017720252823891114  1.0000
  H   H17       1.0  0.9415359266999996  0.837161694528143  0.2501361890931333  1.0000
  H   H18       1.0  0.8216623881825462  0.9535761480510432  0.8338008790731024  1.0000
  H   H19       1.0  0.7557001387414459  0.07804042979726167  0.860617867604275  1.0000
  C   C27       1.0  0.9216169120480463  0.4609946187744103  0.2613550806209928  1.0000
  C   C28       1.0  0.8464693029031853  0.4084100588384043  0.2580437219328726  1.0000
  C   C29       1.0  0.8083645733629843  0.3818796911742772  0.1392158088304467  1.0000
  C   C30       1.0  0.8464166371976376  0.4086390591599036  0.022734689633534533  1.0000
  C   C31       1.0  0.9215647339601057  0.4612214139005337  0.024054943976778986  1.0000
  C   C32       1.0  0.9587439392556455  0.4871052361956514  0.14384998650814906  1.0000
  C   C33       1.0  0.7288627583082627  0.32624884116623876  0.13676593186040398  1.0000
  C   C34       1.0  0.707283116828866  0.22685234510640107  0.23031126062743046  1.0000
  C   C35       1.0  0.6324524552723774  0.17454795790396216  0.22787143688337252  1.0000
  C   C36       1.0  0.5780176964306166  0.22069571163926205  0.13211739823392143  1.0000
  C   C37       1.0  0.5990909933676477  0.3196799282750713  0.038690121077053385  1.0000
  C   C38       1.0  0.6738986359924761  0.3720845717338612  0.040861775982679926  1.0000
  N   N4        1.0  0.501483285463341  0.16714084767140913  0.12975875213095622  1.0000
  H   H20       1.0  0.9502646297715361  0.48097864711090765  0.5900755300057159  1.0000
  H   H21       1.0  0.8170111141117473  0.3896200882707834  0.3479254242943539  1.0000
  H   H22       1.0  0.81768036710229  0.38670821929306043  0.9310595273038569  1.0000
  H   H23       1.0  0.016717026259064127  0.5276709236342212  0.1456365738247516  1.0000
  H   H24       1.0  0.9501880596192976  0.4813122520524047  0.6970994697262665  1.0000
  H   H25       1.0  0.7485454564086645  0.18838666426838935  0.30433412916500413  1.0000
  H   H26       1.0  0.6169620085685357  0.0978246700846579  0.3004316182346298  1.0000
  H   H27       1.0  0.5575080705400899  0.3564662954206965  0.9643711691232291  1.0000
  H   H28       1.0  0.6884923502455411  0.4496351814875661  0.9685603085583425  1.0000
  H   H29       1.0  0.46050488881549967  0.20090717195841945  0.05874476856627964  1.0000
  H   H30       1.0  0.48523373099965544  0.09332966868447246  0.19900954777914892  1.0000
  Zn  Zn1       1.0  0.8375244797866543  0.45743720777212027  0.6358420985836635  1.0000
  Zn  Zn2       1.0  0.0056498335341799155  0.4647778468506274  0.649566767514524  1.0000
  C   C39       1.0  0.921571951637184  0.4560047291307776  0.8798886133118566  1.0000
  C   C40       1.0  0.9216041978972926  0.4662120443203739  0.4055205299978104  1.0000
  C   C41       1.0  0.9216304753660949  0.6983000599934779  0.6375121942322424  1.0000
  C   C42       1.0  0.9215456165097666  0.22391515066000145  0.647897013745121  1.0000
  O   O1        1.0  0.9854026254338144  0.4707431284888586  0.4591122125292786  1.0000
  O   O2        1.0  0.9853767772861167  0.4570440403316063  0.836713263176943  1.0000
  O   O3        1.0  0.9854231757541372  0.6527005470943574  0.6409925196032926  1.0000
  O   O4        1.0  0.9853561696043529  0.2750866284825817  0.6548328540491142  1.0000
  O   O5        1.0  0.85781808634355  0.6471284236365782  0.6305760073586864  1.0000
  O   O6        1.0  0.8577716881612133  0.451473477167911  0.8262966815742538  1.0000
  O   O7        1.0  0.857797536458474  0.46517251960690564  0.44869406961106906  1.0000
  O   O8        1.0  0.8577510806175224  0.2695160103405667  0.6444148084943333  1.0000
