data_image0
_chemical_formula_structural       NC12NC2H8C12OCH12C12ClH9Zn2C4O8
_chemical_formula_sum              "N2 C43 H29 O9 Cl1 Zn2"
_cell_length_a       19.240039667572717
_cell_length_b       10.29979075500242
_cell_length_c       10.299771906710086
_cell_angle_alpha    85.53978707277841
_cell_angle_beta     90.0091503227729
_cell_angle_gamma    89.9807799165636

_space_group_name_H-M_alt    "P 1"
_space_group_IT_number       1

loop_
  _space_group_symop_operation_xyz
  'x, y, z'

loop_
  _atom_site_type_symbol
  _atom_site_label
  _atom_site_symmetry_multiplicity
  _atom_site_fract_x
  _atom_site_fract_y
  _atom_site_fract_z
  _atom_site_occupancy
  N   N1        1.0  0.6540993357102142  0.42168123475404307  0.567380458985739  1.0000
  C   C1        1.0  0.593950966870842  0.4216813187585813  0.5673803770446584  1.0000
  C   C2        1.0  0.51913292969687  0.42168143608339004  0.5673802397341867  1.0000
  C   C3        1.0  0.4826796396381605  0.357186568780298  0.6707954031115817  1.0000
  C   C4        1.0  0.41000891885377333  0.35707566298088844  0.6708819507255619  1.0000
  C   C5        1.0  0.37280069472343735  0.42168152871385445  0.567380012047934  1.0000
  C   C6        1.0  0.4099681489633794  0.4862875813763541  0.4638782679020703  1.0000
  C   C7        1.0  0.48263886479548607  0.4861764400430433  0.4639649380279449  1.0000
  C   C8        1.0  0.2955956042897734  0.4216814500805073  0.5673799166360824  1.0000
  C   C9        1.0  0.2584317168579554  0.308409014254196  0.6092559049208912  1.0000
  C   C10       1.0  0.1857610014635808  0.3085159404279638  0.6091645745036938  1.0000
  C   C11       1.0  0.1492633173949842  0.4216813208905412  0.5673799775523667  1.0000
  C   C12       1.0  0.074445280281731  0.4216812070763223  0.5673802262185073  1.0000
  N   N2        1.0  0.0142969634547934  0.42168116619274754  0.5673804346398077  1.0000
  C   C13       1.0  0.1857131441648584  0.5348467771957166  0.5255953277067591  1.0000
  C   C14       1.0  0.2583838133262422  0.5349538835366938  0.5255038346866041  1.0000
  H   H1        1.0  0.5104103761050347  0.3072530440491241  0.7515390052911577  1.0000
  H   H2        1.0  0.3829314347062026  0.30793989793581233  0.7527410231858556  1.0000
  H   H3        1.0  0.3828591023136135  0.5354233734884446  0.3820191445920815  1.0000
  H   H4        1.0  0.5103378998332938  0.5361098644324196  0.38322161164851076  1.0000
  H   H5        1.0  0.285543668636263  0.21924496339028843  0.6404276443897996  1.0000
  H   H6        1.0  0.1580647629790257  0.22025076768120577  0.6413692395069943  1.0000
  H   H7        1.0  0.1579795592072748  0.6231119254015081  0.49339067725502983  1.0000
  H   H8        1.0  0.2854583403470956  0.624118013589851  0.4943320504424924  1.0000
  C   C15       1.0  0.8342639495464891  0.04031344374134527  0.5674193806764551  1.0000
  C   C16       1.0  0.8141565461090972  0.029108545813348652  0.6988577584178901  1.0000
  C   C17       1.0  0.8039128147117144  0.9062946633281842  0.7654254326699954  1.0000
  C   C18       1.0  0.8140316744970432  0.7938262720371875  0.6987919731978933  1.0000
  C   C19       1.0  0.8341390470006744  0.8030389554720982  0.5673526629395387  1.0000
  C   C20       1.0  0.8441442124756444  0.9267234699815753  0.5024030091995784  1.0000
  C   C21       1.0  0.782644555346385  0.8954946191131966  0.9044811124405483  1.0000
  C   C22       1.0  0.7319362836055108  0.8046150906313433  0.9495467816303844  1.0000
  C   C23       1.0  0.7119817387675514  0.7947240893310513  0.08028613563828513  1.0000
  C   C24       1.0  0.7422859861038752  0.875043576686481  0.16763450363636534  1.0000
  C   C25       1.0  0.7931794499951877  0.9665316371683047  0.1244405445010156  1.0000
  C   C26       1.0  0.8129184849292326  0.9760616064887488  0.9931744896151982  1.0000
  O   O1        1.0  0.8253131942820833  0.04920677417680697  0.20830916267774668  1.0000
  C   C27       1.0  0.8104242962378108  0.05014379652604606  0.34364558085879227  1.0000
  H   H9        1.0  0.841956150069395  0.3720344617817548  0.5173570086781716  1.0000
  H   H10       1.0  0.8054936091411052  0.11611974973549488  0.7492866377811778  1.0000
  H   H11       1.0  0.8071074558758823  0.6989107291169478  0.7501599675964552  1.0000
  H   H12       1.0  0.859656759590778  0.9345991788551467  0.4010038540196008  1.0000
  H   H13       1.0  0.84176628949869  0.4790979491169182  0.5172526557682857  1.0000
  H   H14       1.0  0.7070712685028661  0.7424059710883988  0.8833371050123697  1.0000
  H   H15       1.0  0.6727315650831046  0.7247439298170929  0.11396501830065298  1.0000
  H   H16       1.0  0.7258237692160322  0.8652638293680425  0.26830132722661115  1.0000
  H   H17       1.0  0.8527295741833422  0.04561510117006806  0.96100846794687  1.0000
  H   H18       1.0  0.8224346756385691  0.9535995325040131  0.3942682755286979  1.0000
  H   H19       1.0  0.843225451487879  0.12477011686167572  0.3858599865568443  1.0000
  H   H20       1.0  0.7549420722007262  0.07505012567652392  0.3580811094173486  1.0000
  C   C28       1.0  0.8341683898855934  0.42178253124648357  0.18601676810400014  1.0000
  C   C29       1.0  0.8971980176617667  0.4906653900500906  0.17968304523158052  1.0000
  C   C30       1.0  0.929169552969541  0.5254607350492861  0.05934336890114156  1.0000
  C   C31       1.0  0.8972650979120032  0.4904502281027239  0.9444132877538496  1.0000
  C   C32       1.0  0.8342345760978898  0.4215699291863184  0.9487553544420004  1.0000
  C   C33       1.0  0.8030395102186447  0.38762098003877554  0.07002508433817645  1.0000
  C   C34       1.0  0.9958501052925557  0.5983316600442516  0.0536965658187778  1.0000
  C   C35       1.0  0.006817892278419002  0.7013366702296322  0.13348966229091297  1.0000
  C   C36       1.0  0.06961052405851365  0.7698239108135188  0.1279873979542412  1.0000
  C   C37       1.0  0.12214784010039947  0.7363531320430681  0.04300224820812848  1.0000
  C   C38       1.0  0.11184342899189126  0.6342075876173665  0.963337871673891  1.0000
  C   C39       1.0  0.04911312715199978  0.5655200254201693  0.9684645222793287  1.0000
  Cl  Cl1       1.0  0.20088899644752467  0.8224032629843712  0.036335108662185034  1.0000
  H   H21       1.0  0.8101325994401655  0.39559201816808454  0.5158791669639542  1.0000
  H   H22       1.0  0.9220605938049331  0.5158648709087283  0.2686616435386737  1.0000
  H   H23       1.0  0.9212116693969101  0.518591284027174  0.8513012578334531  1.0000
  H   H24       1.0  0.7544146311515352  0.33448214516273866  0.07414305739370963  1.0000
  H   H25       1.0  0.8102303009863842  0.39527744686551025  0.6229600096738186  1.0000
  H   H26       1.0  0.9665212419524962  0.7299897749043929  0.1988611017729336  1.0000
  H   H27       1.0  0.07728259550800187  0.8490977763855978  0.18961408505451738  1.0000
  H   H28       1.0  0.15245690389590139  0.6077016274817204  0.8976226693634137  1.0000
  H   H29       1.0  0.04259474246445083  0.4857058823796252  0.9070574172546593  1.0000
  Zn  Zn1       1.0  0.7580446007695637  0.42167774568945027  0.5673879406960614  1.0000
  Zn  Zn2       1.0  0.9103517198214225  0.42167405885444187  0.5673835527653672  1.0000
  C   C40       1.0  0.8342213688551544  0.4164364270021095  0.8045818553814486  1.0000
  C   C41       1.0  0.8341766146675159  0.4269170160806186  0.33018976535540334  1.0000
  C   C42       1.0  0.8341586123969186  0.6588690648868509  0.5621901354028642  1.0000
  C   C43       1.0  0.8342393194155417  0.18448281787996912  0.5725815547105682  1.0000
  O   O2        1.0  0.8919791338323881  0.42863313123608804  0.37857387556798594  1.0000
  O   O3        1.0  0.8920164290318199  0.41471653400885433  0.7561940410702463  1.0000
  O   O4        1.0  0.891964973346942  0.6104839547223553  0.5604610121303182  1.0000
  O   O5        1.0  0.8920305375351909  0.23286571984118587  0.5743068071338397  1.0000
  O   O6        1.0  0.7763657310808496  0.610486084705381  0.5604646863222558  1.0000
  O   O7        1.0  0.776417186500992  0.41472022431046107  0.7561976458802693  1.0000
  O   O8        1.0  0.7763798912196893  0.4286367767171473  0.37857591897979437  1.0000
  O   O9        1.0  0.7764312949296214  0.23286935600632042  0.5743089479143892  1.0000
