data_image0
_chemical_formula_structural       NC9NC5H8C13OH12C13F3H9Zn2C4O8
_chemical_formula_sum              "N2 C44 H29 O9 F3 Zn2"
_cell_length_a       17.807436237873137
_cell_length_b       10.299150109392551
_cell_length_c       10.2985328690268
_cell_angle_alpha    85.55822410433288
_cell_angle_beta     89.39824995993841
_cell_angle_gamma    88.37145022261349

_space_group_name_H-M_alt    "P 1"
_space_group_IT_number       1

loop_
  _space_group_symop_operation_xyz
  'x, y, z'

loop_
  _atom_site_type_symbol
  _atom_site_label
  _atom_site_symmetry_multiplicity
  _atom_site_fract_x
  _atom_site_fract_y
  _atom_site_fract_z
  _atom_site_occupancy
  N   N1        1.0  0.7070725752733744  0.38742867508618484  0.5565212735789147  1.0000
  C   C1        1.0  0.6464909698588676  0.35223243993808295  0.54550919473858  1.0000
  C   C2        1.0  0.5711341112024573  0.3084521994207168  0.5318113643204059  1.0000
  C   C3        1.0  0.5530500978754939  0.23699825571081257  0.4268263215353325  1.0000
  C   C4        1.0  0.4798824924061936  0.19437948411166572  0.41344401634874406  1.0000
  C   C5        1.0  0.4237502501218435  0.22283708340404473  0.5050144357738668  1.0000
  C   C6        1.0  0.3459919300307233  0.17765925768998314  0.49087455019097814  1.0000
  C   C7        1.0  0.2838018315914864  0.2594306482244544  0.516785982239409  1.0000
  C   C8        1.0  0.2104919597677336  0.2166088249947613  0.5034174323022957  1.0000
  C   C9        1.0  0.147251291690574  0.30107191645236897  0.5296918257114909  1.0000
  N   N2        1.0  0.0964187838947752  0.36897439883010974  0.5508157135736949  1.0000
  C   C10       1.0  0.1987886880659125  0.09175760079546103  0.4641121915341888  1.0000
  C   C11       1.0  0.2601214187885408  0.009972354143518825  0.4381923741428815  1.0000
  C   C12       1.0  0.3333119206272943  0.05239953883294879  0.4513585124760717  1.0000
  C   C13       1.0  0.4425255882997414  0.294785504929417  0.6102185467330743  1.0000
  C   C14       1.0  0.5157460917927728  0.33721381709037757  0.6234452579716612  1.0000
  H   H1        1.0  0.5954451874527071  0.21448877768981833  0.3551162555075029  1.0000
  H   H2        1.0  0.4669752813851891  0.1406667431118056  0.3305366376864003  1.0000
  H   H3        1.0  0.2922827940768114  0.35691302935330227  0.5456300931001887  1.0000
  H   H4        1.0  0.1423293976294056  0.057715283783526417  0.45352876906651196  1.0000
  H   H5        1.0  0.2509418920453977  0.9133097711287028  0.408147466142188  1.0000
  H   H6        1.0  0.3799639101888534  0.9866428387707369  0.4323323563096497  1.0000
  H   H7        1.0  0.4008475516526823  0.31675628882063034  0.6832234028700535  1.0000
  H   H8        1.0  0.5291813671928479  0.392146926735766  0.7053104917343613  1.0000
  C   C15       1.0  0.9018200833261252  0.9967984246610034  0.55381156133571  1.0000
  C   C16       1.0  0.900443977640074  0.9851015922568124  0.6906521786616546  1.0000
  C   C17       1.0  0.8996808792712515  0.8620394678343674  0.7597705211928363  1.0000
  C   C18       1.0  0.9002991109947723  0.7498530020117266  0.6902908807405763  1.0000
  C   C19       1.0  0.9016784541528353  0.7595943013809533  0.553536621083597  1.0000
  C   C20       1.0  0.9024329457895731  0.8835279579285793  0.486096112405614  1.0000
  C   C21       1.0  0.8982185600824375  0.8506475787512957  0.9044423460133204  1.0000
  C   C22       1.0  0.8520266811718695  0.7599776857642119  0.9731454913957671  1.0000
  C   C23       1.0  0.8506257504637544  0.7493405185520678  0.10928189870361626  1.0000
  C   C24       1.0  0.8958841232750963  0.8281932088081743  0.17916898357245925  1.0000
  C   C25       1.0  0.9413572831539623  0.9198510001014623  0.11111898763930539  1.0000
  C   C26       1.0  0.9427756528568759  0.9306631376821192  0.9749820360448278  1.0000
  C   C27       1.0  0.8927990645461131  0.8191919597315644  0.3253108452150656  1.0000
  O   O1        1.0  0.8366502727140622  0.905041101235292  0.3663771718295368  1.0000
  H   H9        1.0  0.9039294636048669  0.22619271412329067  0.2955256360444367  1.0000
  H   H10       1.0  0.8989209644133592  0.07196215032935305  0.7436868416338138  1.0000
  H   H11       1.0  0.9007307308521008  0.6547248859178998  0.7431218252208933  1.0000
  H   H12       1.0  0.9034947486162873  0.8917580229426404  0.3806134910725836  1.0000
  H   H13       1.0  0.9021584322547496  0.43586807547932466  0.5009368775774508  1.0000
  H   H14       1.0  0.8160955012830099  0.6986575481605118  0.9215596337130385  1.0000
  H   H15       1.0  0.814083099144512  0.6797570287857743  0.16019654009301254  1.0000
  H   H16       1.0  0.9759046753796408  0.9827899053044298  0.16347138227179536  1.0000
  H   H17       1.0  0.979343521194628  0.0006910907121826515  0.9248737257112096  1.0000
  H   H18       1.0  0.9480624066950012  0.8444129969889015  0.3646738711899472  1.0000
  H   H19       1.0  0.8805923098855147  0.7177598070854804  0.3633049934477942  1.0000
  H   H20       1.0  0.8369339884179517  0.8953774160823098  0.4630065619425947  1.0000
  C   C28       1.0  0.9017276985815791  0.37807545393176767  0.17227695778669116  1.0000
  C   C29       1.0  0.9770673531950993  0.3336098674601884  0.17340088674729737  1.0000
  C   C30       1.0  0.01524249851920989  0.31119749872538605  0.056799491800668234  1.0000
  C   C31       1.0  0.9771116574680209  0.3338634047427016  0.938099468141921  1.0000
  C   C32       1.0  0.901770834373276  0.3783173408286804  0.9350712113317781  1.0000
  C   C33       1.0  0.86455999511782  0.4001343085828617  0.05265037218265989  1.0000
  C   C34       1.0  0.09489445203530789  0.2641989593281717  0.058922186043790514  1.0000
  C   C35       1.0  0.1467586702948065  0.3163455194275233  0.9666006679355656  1.0000
  C   C36       1.0  0.22172181816317305  0.2722157227104367  0.9686198571711251  1.0000
  C   C37       1.0  0.2461851567711697  0.17365234168713517  0.061768252064923646  1.0000
  C   C38       1.0  0.19475547372964597  0.12330437603242594  0.15566006866295323  1.0000
  C   C39       1.0  0.11979721008890953  0.16746699886091876  0.1537517168279472  1.0000
  C   C40       1.0  0.32764554372858323  0.1295015107795856  0.06687268360976795  1.0000
  F   F1        1.0  0.36615880715959825  0.2069969637605118  0.14576418011048942  1.0000
  F   F2        1.0  0.3596379719352143  0.1391591933792491  0.9435425959781116  1.0000
  F   F3        1.0  0.3346267940846299  0.0010392590545487135  0.11670300598570216  1.0000
  H   H21       1.0  0.7595068114006983  0.4629106871869173  0.37741268516685533  1.0000
  H   H22       1.0  0.006490398149196164  0.31805459788151635  0.2650538660070023  1.0000
  H   H23       1.0  0.005967212938987165  0.3151127965712739  0.8480522512474451  1.0000
  H   H24       1.0  0.8064939894308152  0.43439957728320544  0.051051019253566254  1.0000
  H   H25       1.0  0.75926647758021  0.4615823479006351  0.7220824221777615  1.0000
  H   H26       1.0  0.12962486812056606  0.39292793958930305  0.8940949424962605  1.0000
  H   H27       1.0  0.26066249889784854  0.31559991466677473  0.8975475061612439  1.0000
  H   H28       1.0  0.21248936330559198  0.04958527954881076  0.23059882818815236  1.0000
  H   H29       1.0  0.08112694143038413  0.12502409288590655  0.22583943569623255  1.0000
  Zn  Zn1       1.0  0.819429480615825  0.3820997063792939  0.5548822848053949  1.0000
  Zn  Zn2       1.0  0.9840618629247292  0.3742927838036678  0.5524653835651518  1.0000
  C   C41       1.0  0.9017619674341527  0.3730975413137536  0.7908886459139015  1.0000
  C   C42       1.0  0.9017311735898333  0.38329650242411595  0.3164591229493161  1.0000
  C   C43       1.0  0.9017010648059032  0.6154082246460029  0.548413074537508  1.0000
  C   C44       1.0  0.9017920203342042  0.14098426133593422  0.5589347649566685  1.0000
  O   O2        1.0  0.9642094719837696  0.3820803813145661  0.3639307753158476  1.0000
  O   O3        1.0  0.9642358380394325  0.3683874088997996  0.7415822479088172  1.0000
  O   O4        1.0  0.9641858162516668  0.5640563904940696  0.5457815203451744  1.0000
  O   O5        1.0  0.9642594375864229  0.1864114116444433  0.559731406318996  1.0000
  O   O6        1.0  0.8392318497731784  0.5699810812040496  0.5476162628694881  1.0000
  O   O7        1.0  0.8392818712638698  0.3743136600312438  0.7434169206201104  1.0000
  O   O8        1.0  0.8392555051782659  0.38800658668851185  0.3657638865265491  1.0000
  O   O9        1.0  0.8393054707850786  0.19233760775977315  0.5615646149081301  1.0000
