data_image0
_chemical_formula_structural       NC10NC3NCH9C12NCOCH13C13NH9Zn2C4O8
_chemical_formula_sum              "N5 C45 H31 O9 Zn2"
_cell_length_a       19.437513618241372
_cell_length_b       10.299155265289647
_cell_length_c       10.298528502251457
_cell_angle_alpha    85.52481818200185
_cell_angle_beta     90.34428338018773
_cell_angle_gamma    89.500514822395

_space_group_name_H-M_alt    "P 1"
_space_group_IT_number       1

loop_
  _space_group_symop_operation_xyz
  'x, y, z'

loop_
  _atom_site_type_symbol
  _atom_site_label
  _atom_site_symmetry_multiplicity
  _atom_site_fract_x
  _atom_site_fract_y
  _atom_site_fract_z
  _atom_site_occupancy
  N   N1        1.0  0.6475969563491613  0.4110704107754022  0.5751532754063888  1.0000
  C   C1        1.0  0.5886601666178782  0.42808282644981044  0.5721733236310029  1.0000
  C   C2        1.0  0.5152153794809458  0.44933827253524283  0.568474393174339  1.0000
  C   C3        1.0  0.4734730745854064  0.34814586889322174  0.5568348388461428  1.0000
  C   C4        1.0  0.397580985921939  0.3582142242391513  0.549610471389903  1.0000
  C   C5        1.0  0.3579915489305484  0.43904209780932035  0.6153443330340245  1.0000
  C   C6        1.0  0.2818109103439077  0.43043662061402044  0.6069009692729814  1.0000
  C   C7        1.0  0.2486994702654845  0.3090816025684249  0.6115703585900629  1.0000
  C   C8        1.0  0.1769659399458409  0.3027122795671573  0.6044027314136236  1.0000
  C   C9        1.0  0.1373733247118185  0.4172251105039819  0.5929280913734929  1.0000
  C   C10       1.0  0.06352538575216242  0.41051765167899257  0.5855924224769269  1.0000
  N   N2        1.0  0.0041567407482047  0.4051254447053556  0.579695003023877  1.0000
  C   C11       1.0  0.1697682451163993  0.53826923362092  0.5890041372270869  1.0000
  C   C12       1.0  0.24148613070869654  0.5448925403945288  0.5962337404355544  1.0000
  C   C13       1.0  0.3866588516139332  0.5312967556900854  0.7052562789667931  1.0000
  N   N3        1.0  0.4436310565562601  0.5945220299049334  0.6848362673770207  1.0000
  C   C14       1.0  0.48747094618270803  0.5853067322818928  0.5717163971511301  1.0000
  H   H1        1.0  0.49587544650326776  0.25308805374990606  0.5447320212138438  1.0000
  H   H2        1.0  0.3728790647345273  0.2887212075377539  0.4912995527262034  1.0000
  H   H3        1.0  0.2781677053965096  0.21915902601169934  0.6226114296713758  1.0000
  H   H4        1.0  0.1523909535325978  0.20847793107805068  0.6083101320033755  1.0000
  H   H5        1.0  0.1396149108882772  0.6275359039606663  0.5802756423905946  1.0000
  H   H6        1.0  0.2655795140152301  0.6395397232843083  0.59231079163131  1.0000
  H   H7        1.0  0.3566536447508062  0.5516489510220608  0.7896292877269231  1.0000
  H   H8        1.0  0.5302098962959803  0.6556216352993074  0.5774657936738927  1.0000
  H   H9        1.0  0.4577961796639411  0.6134548119352328  0.48105351738013313  1.0000
  C   C15       1.0  0.8259569864465387  0.02669903755054226  0.57754389853794  1.0000
  C   C16       1.0  0.8142078611329602  0.036652477264211614  0.44245274867112894  1.0000
  C   C17       1.0  0.808184177212791  0.9245625587412301  0.37384010305388937  1.0000
  C   C18       1.0  0.814043363996622  0.8013955814549049  0.44214283133913024  1.0000
  C   C19       1.0  0.8258033296203899  0.7894866924434826  0.5773157197132006  1.0000
  C   C20       1.0  0.8316908029886573  0.902657167822944  0.6441841115053879  1.0000
  C   C21       1.0  0.7957558706318882  0.9360657512553645  0.2309299894822503  1.0000
  C   C22       1.0  0.8306497391712969  0.029629529753236072  0.14994702189469633  1.0000
  C   C23       1.0  0.8189595449554979  0.04032382016474578  0.015459154435977895  1.0000
  C   C24       1.0  0.77256953676018  0.9567787054839348  0.959110952214596  1.0000
  C   C25       1.0  0.7368352755373753  0.8650452536736175  0.040015047413948235  1.0000
  C   C26       1.0  0.74855052893872  0.8540945419184746  0.1744658940922239  1.0000
  N   N4        1.0  0.7586653581223672  0.9673100956099148  0.821356164098773  1.0000
  C   C27       1.0  0.8089039098756623  0.003450780945876142  0.7237664916441342  1.0000
  O   O1        1.0  0.8720199756919748  0.00492088344847863  0.7524322299108182  1.0000
  C   C28       1.0  0.7869587383214592  0.0303224001537874  0.5849303285333352  1.0000
  H   H10       1.0  0.8304975583444165  0.35034635212346377  0.6295003102704804  1.0000
  H   H11       1.0  0.8087658293424786  0.13181036160923898  0.39056753063479555  1.0000
  H   H12       1.0  0.8103437231598157  0.7146805844144732  0.3894608973795979  1.0000
  H   H13       1.0  0.8407554650032207  0.8942649682377801  0.7483823224719484  1.0000
  H   H14       1.0  0.8484116274119814  0.5597191569151179  0.8323218892353275  1.0000
  H   H15       1.0  0.8673870277095616  0.09404829997315955  0.19051213624796692  1.0000
  H   H16       1.0  0.8453551058843323  0.11536471288963734  0.9562077397859219  1.0000
  H   H17       1.0  0.7000319828249713  0.8013320032818934  0.9985819516064094  1.0000
  H   H18       1.0  0.7199441976926244  0.7827065036293189  0.234522196624112  1.0000
  H   H19       1.0  0.7102078267425302  0.9392626886226488  0.7896617267053849  1.0000
  H   H20       1.0  0.7372950647733324  0.08459802086567025  0.579843547885218  1.0000
  H   H21       1.0  0.7805934322910884  0.9368381451957898  0.5396197153865359  1.0000
  H   H22       1.0  0.826126802425691  0.08978418829568202  0.5300272575579155  1.0000
  C   C29       1.0  0.8258899008259638  0.4082191686491148  0.19601302860545755  1.0000
  C   C30       1.0  0.7543601029943993  0.42927522501794124  0.19260591562447904  1.0000
  C   C31       1.0  0.7181225035037204  0.4398041374591559  0.07373314572621381  1.0000
  C   C32       1.0  0.7543396184896745  0.4290106875293398  0.9573460296311977  1.0000
  C   C33       1.0  0.8258703931125362  0.4079664953995539  0.9588465745886721  1.0000
  C   C34       1.0  0.8611875008723082  0.39770272991319944  0.07864103623295282  1.0000
  C   C35       1.0  0.6425011212648973  0.46205890068162114  0.07113881546839074  1.0000
  C   C36       1.0  0.6121067004678051  0.5505032417215552  0.15164163040553058  1.0000
  C   C37       1.0  0.5409243804157454  0.5714046035540923  0.1490801239116628  1.0000
  C   C38       1.0  0.4991893037683776  0.5042368860504043  0.06621958535463612  1.0000
  C   C39       1.0  0.5289046331201535  0.4160402195673929  0.9858120575088476  1.0000
  C   C40       1.0  0.6000796281228933  0.3950446082468384  0.9881368884508714  1.0000
  C   C41       1.0  0.4259070206907046  0.5258055584921564  0.06370316086134808  1.0000
  N   N5        1.0  0.36699300660402645  0.5431454397225162  0.06168016024478118  1.0000
  H   H23       1.0  0.9609963369724479  0.3676240197146372  0.40983798558193696  1.0000
  H   H24       1.0  0.726573264789622  0.4357467929587231  0.28276581576036874  1.0000
  H   H25       1.0  0.7268109032477488  0.4388175889644872  0.8652886397747004  1.0000
  H   H26       1.0  0.916316897774283  0.38147913341780937  0.08053208358785335  1.0000
  H   H27       1.0  0.9611036267332281  0.3690121366207981  0.7542947190794655  1.0000
  H   H28       1.0  0.6434783239279325  0.604752513274506  0.21532801350140574  1.0000
  H   H29       1.0  0.5184814669826618  0.6401741785939536  0.21148101315616374  1.0000
  H   H30       1.0  0.4970571915139779  0.3632491503634683  0.9215474547894495  1.0000
  H   H31       1.0  0.6218472557337607  0.3251560208575779  0.9262745128395116  1.0000
  Zn  Zn1       1.0  0.7504924140310764  0.40935133000938695  0.5764714308307932  1.0000
  Zn  Zn2       1.0  0.9012612911529294  0.40683385155212193  0.5783875220030608  1.0000
  C   C42       1.0  0.8258735859383242  0.4028402236096724  0.814656252731049  1.0000
  C   C43       1.0  0.8258817653037097  0.4133465691668292  0.3402028480187347  1.0000
  C   C44       1.0  0.825828946017195  0.6453053344135928  0.5721829964524638  1.0000
  C   C45       1.0  0.8259263540905698  0.17087989877415555  0.5826761733575636  1.0000
  O   O2        1.0  0.8830950392188359  0.4141063354799377  0.3893214169130361  1.0000
  O   O3        1.0  0.8830904014113016  0.4001687697225329  0.7669915791012776  1.0000
  O   O4        1.0  0.8830535827768116  0.5959624255180982  0.5711926989114304  1.0000
  O   O5        1.0  0.8831318064067399  0.218312689866621  0.5851201990593806  1.0000
  O   O6        1.0  0.7686218473272475  0.5978724925553958  0.569738753113773  1.0000
  O   O7        1.0  0.7686586656459881  0.4020803972090916  0.7655375635826751  1.0000
  O   O8        1.0  0.7686633035483367  0.4160179182234025  0.38786583981186395  1.0000
  O   O9        1.0  0.7687000707328081  0.22022426328834532  0.5836647193410109  1.0000
