data_image0
_chemical_formula_structural       NC10NC5H10C12NCOCH13C12SCH12Zn2C4O8
_chemical_formula_sum              "N3 C46 H35 O9 S1 Zn2"
_cell_length_a       19.4436361288709
_cell_length_b       10.299155265289647
_cell_length_c       10.299780138516091
_cell_angle_alpha    85.56043235920357
_cell_angle_beta     89.6968932683751
_cell_angle_gamma    89.39615277754326

_space_group_name_H-M_alt    "P 1"
_space_group_IT_number       1

loop_
  _space_group_symop_operation_xyz
  'x, y, z'

loop_
  _atom_site_type_symbol
  _atom_site_label
  _atom_site_symmetry_multiplicity
  _atom_site_fract_x
  _atom_site_fract_y
  _atom_site_fract_z
  _atom_site_occupancy
  N   N1        1.0  0.6474636514121364  0.4090087896088923  0.5617780657143296  1.0000
  C   C1        1.0  0.5886255044887702  0.418912946621941  0.5761588068082313  1.0000
  C   C2        1.0  0.515293461768078  0.431264763771382  0.5941470888700437  1.0000
  C   C3        1.0  0.47311748426127753  0.39925545090777503  0.499485796631439  1.0000
  C   C4        1.0  0.397210593948476  0.40969507502383284  0.504810874363375  1.0000
  C   C5        1.0  0.3574748019759604  0.3849566981400867  0.6118854606620736  1.0000
  C   C6        1.0  0.2813536445402652  0.38887223272125726  0.5989255755465455  1.0000
  C   C7        1.0  0.2407774387303781  0.4465477441494685  0.6926770205960884  1.0000
  C   C8        1.0  0.1691134522624582  0.450184648619145  0.6821325880447184  1.0000
  C   C9        1.0  0.1370309930410751  0.39575003138403364  0.5781233306256712  1.0000
  C   C10       1.0  0.063237751664791  0.3994481671816923  0.5674236062017699  1.0000
  N   N2        1.0  0.003912990695816801  0.40242127432407737  0.558821737130492  1.0000
  C   C11       1.0  0.1768824475010577  0.33736741789032343  0.4847552928341399  1.0000
  C   C12       1.0  0.2485628780737169  0.33367625878961604  0.49504797281148716  1.0000
  C   C13       1.0  0.3856138863960621  0.34450682103757635  0.7429854312798634  1.0000
  C   C14       1.0  0.4442678530615752  0.38763686402090936  0.7902144987283413  1.0000
  C   C15       1.0  0.48845628950887576  0.4854943869153385  0.7158241104627474  1.0000
  H   H1        1.0  0.49522392810405264  0.3701266674041608  0.40919046478465004  1.0000
  H   H2        1.0  0.37250901265863473  0.43218154261216135  0.41165039562886196  1.0000
  H   H3        1.0  0.2646376909405415  0.4898503570087622  0.7735104816491345  1.0000
  H   H4        1.0  0.1387581472158742  0.495510298664654  0.7550383734346926  1.0000
  H   H5        1.0  0.15255026715457  0.2942605122361299  0.40425624884440947  1.0000
  H   H6        1.0  0.2782530176551073  0.28610712837933283  0.42283908841806106  1.0000
  H   H7        1.0  0.354660617555859  0.2802918287429985  0.8072467642678016  1.0000
  H   H8        1.0  0.45942324226473524  0.3535774847813309  0.8881539442406001  1.0000
  H   H9        1.0  0.4583290130959117  0.5762126363741946  0.6905491142367501  1.0000
  H   H10       1.0  0.5317351106487878  0.5110889213403642  0.7788996717123746  1.0000
  C   C16       1.0  0.8257684211952078  0.024316102449296606  0.5604179611115523  1.0000
  C   C17       1.0  0.8140292742358928  0.0342064661350836  0.4255967643471579  1.0000
  C   C18       1.0  0.808010675723493  0.9220846132916024  0.35712241175508064  1.0000
  C   C19       1.0  0.8138648425188647  0.7989496745543533  0.42529035840022833  1.0000
  C   C20       1.0  0.8256148225971288  0.787103892982476  0.5601930518753238  1.0000
  C   C21       1.0  0.8314973346053981  0.9003054602294447  0.62692631047861  1.0000
  C   C22       1.0  0.7955929247734134  0.9335210774542656  0.214497858109294  1.0000
  C   C23       1.0  0.83047980828635  0.026971143587751323  0.13279492023198625  1.0000
  C   C24       1.0  0.8187995458658668  0.0376026279564865  0.9985756644489698  1.0000
  C   C25       1.0  0.7724265280489824  0.9541062932516873  0.9432124460136735  1.0000
  C   C26       1.0  0.7366995154026651  0.8624880255560498  0.024854195559902648  1.0000
  C   C27       1.0  0.7484048309994831  0.8516000513772343  0.15903590992829164  1.0000
  N   N3        1.0  0.7585331192150806  0.964576844725649  0.8057733763349488  1.0000
  C   C28       1.0  0.8087607215036433  0.0005656780690097563  0.7071439016302197  1.0000
  O   O1        1.0  0.8718559256465968  0.0019394460424069226  0.7344776565579689  1.0000
  C   C29       1.0  0.7868288567827567  0.02739033656040646  0.5687927158518606  1.0000
  H   H11       1.0  0.830305148642861  0.3479876367240453  0.6122700892127173  1.0000
  H   H12       1.0  0.8085913622783284  0.129341806741053  0.3738347725938955  1.0000
  H   H13       1.0  0.81016882020032  0.7122084828867079  0.37269514909819357  1.0000
  H   H14       1.0  0.8405542994101993  0.8919619080511312  0.7309162523458486  1.0000
  H   H15       1.0  0.8482041517115791  0.5574546454171637  0.8146806014222685  1.0000
  H   H16       1.0  0.8672038323911972  0.09134875017209199  0.1725806919971915  1.0000
  H   H17       1.0  0.845189728614235  0.11255875652466973  0.9387792857671262  1.0000
  H   H18       1.0  0.6999095483031911  0.798815516358813  0.9842019773763702  1.0000
  H   H19       1.0  0.7198045236851847  0.7803012809353348  0.21968352520286039  1.0000
  H   H20       1.0  0.7100920594296946  0.9365973515101232  0.7751032153005601  1.0000
  H   H21       1.0  0.7371807779310332  0.08175266571820838  0.5647510608106612  1.0000
  H   H22       1.0  0.7804676472306759  0.933889313525243  0.523623627521026  1.0000
  H   H23       1.0  0.8259873892599918  0.08674695888328254  0.513075379926248  1.0000
  C   C30       1.0  0.8257192778183722  0.40559815710840685  0.17895319907482277  1.0000
  C   C31       1.0  0.7603346811186347  0.3487906517158106  0.18300709835304496  1.0000
  C   C32       1.0  0.7271765529484061  0.3201206147764857  0.06791451668998394  1.0000
  C   C33       1.0  0.7602783268651416  0.3490171489759293  0.9477036023971737  1.0000
  C   C34       1.0  0.8256639496467404  0.40582181171227094  0.9416578571490981  1.0000
  C   C35       1.0  0.8580182533488978  0.4337950060172602  0.057808787849300325  1.0000
  C   C36       1.0  0.6580041866428155  0.2600380818478163  0.07326601480402584  1.0000
  C   C37       1.0  0.6070574461139959  0.30264371078220487  0.982719723347532  1.0000
  C   C38       1.0  0.5419674976299044  0.24606365102398153  0.9879929454804537  1.0000
  C   C39       1.0  0.5268748520993582  0.14652532704824583  0.08371044424562601  1.0000
  C   C40       1.0  0.5772096290242148  0.10313201530588967  0.1738563975846119  1.0000
  C   C41       1.0  0.6423421635754355  0.1595378452519549  0.16894528160142253  1.0000
  S   S1        1.0  0.44338373904276457  0.07379159840858263  0.090026300987881  1.0000
  C   C42       1.0  0.4080895412727554  0.18866763562538558  0.1990141117002142  1.0000
  H   H24       1.0  0.850643841701808  0.4271967061834798  0.5048654181369032  1.0000
  H   H25       1.0  0.7346347324066119  0.3283417326547502  0.2757757963892369  1.0000
  H   H26       1.0  0.735341935236634  0.32547480453677613  0.85884532491515  1.0000
  H   H27       1.0  0.9084598465318342  0.4776187917018937  0.053913003957352545  1.0000
  H   H28       1.0  0.8505636176869613  0.4275256770674214  0.611896417646272  1.0000
  H   H29       1.0  0.6172691041914833  0.3808286471453284  0.908933538104082  1.0000
  H   H30       1.0  0.5032076181387668  0.2801157303687567  0.917973220155357  1.0000
  H   H31       1.0  0.5659466060563331  0.02566253577015387  0.24777596072084296  1.0000
  H   H32       1.0  0.6807324049926126  0.1234414558586272  0.2388678656327876  1.0000
  H   H33       1.0  0.43717464368541137  0.18209956185892207  0.2917887870923743  1.0000
  H   H34       1.0  0.3535129912527726  0.16454563439139935  0.22024655137700822  1.0000
  H   H35       1.0  0.4107278639446795  0.289348396056462  0.15237107094558922  1.0000
  Zn  Zn1       1.0  0.7503272324210094  0.4071043055564121  0.5609324459810627  1.0000
  Zn  Zn2       1.0  0.9010494025637125  0.40431515299217424  0.5596780407063973  1.0000
  C   C43       1.0  0.8256739086875913  0.40060547374866173  0.7974918611057393  1.0000
  C   C44       1.0  0.8257043718392578  0.4108155931281321  0.3231187388614034  1.0000
  C   C45       1.0  0.8256406721708873  0.6429192841219848  0.5550606603572796  1.0000
  C   C46       1.0  0.8257375572342592  0.16850022330171743  0.5655500097335822  1.0000
  O   O2        1.0  0.8828976484716082  0.4115024772694369  0.3710259723884677  1.0000
  O   O3        1.0  0.8828752719443801  0.3978007074386234  0.7486321894592785  1.0000
  O   O4        1.0  0.8828476618786933  0.5934721884560883  0.5528672856331163  1.0000
  O   O5        1.0  0.8829252071112212  0.21583100646612063  0.5667907792695048  1.0000
  O   O6        1.0  0.7684513764394212  0.5955884530356785  0.5538197078391907  1.0000
  O   O7        1.0  0.7684789861927311  0.3999185324245176  0.7495845419628706  1.0000
  O   O8        1.0  0.7685013628880957  0.41362025653713586  0.37197676357229814  1.0000
  O   O9        1.0  0.7685289215197031  0.21794877647288402  0.5677416678196965  1.0000
