data_image0
_chemical_formula_structural       NC10NC3NH7C12BrH9C12NH11Zn2C4O8
_chemical_formula_sum              "N4 C41 H27 Br1 Zn2 O8"
_cell_length_a       19.210446455230148
_cell_length_b       10.299144633409057
_cell_length_c       10.299774167527174
_cell_angle_alpha    85.56689002636797
_cell_angle_beta     89.98397518987284
_cell_angle_gamma    89.92144945022245

_space_group_name_H-M_alt    "P 1"
_space_group_IT_number       1

loop_
  _space_group_symop_operation_xyz
  'x, y, z'

loop_
  _atom_site_type_symbol
  _atom_site_label
  _atom_site_symmetry_multiplicity
  _atom_site_fract_x
  _atom_site_fract_y
  _atom_site_fract_z
  _atom_site_occupancy
  N   N1        1.0  0.6552158291618357  0.4198644141488652  0.5671832402496553  1.0000
  C   C1        1.0  0.5949865606729543  0.42207210815336627  0.5674140584184877  1.0000
  C   C2        1.0  0.5201812295054199  0.42480924438724443  0.5677000130284591  1.0000
  C   C3        1.0  0.4845322912491012  0.5410499600410068  0.582794275781561  1.0000
  C   C4        1.0  0.411866764917868  0.5412014906233387  0.58274165909823  1.0000
  C   C5        1.0  0.3750142428365857  0.425518271929332  0.5677863895840993  1.0000
  C   C6        1.0  0.2976925586683315  0.42416168408009836  0.5676360008239856  1.0000
  C   C7        1.0  0.2599074895388919  0.5277202049176735  0.504262371268674  1.0000
  C   C8        1.0  0.1871295923317154  0.5263178709676011  0.5041535048301429  1.0000
  C   C9        1.0  0.1511352720325152  0.4216145253261514  0.5673672364473652  1.0000
  C   C10       1.0  0.0762061789513639  0.42031233813030333  0.5672306024466096  1.0000
  N   N2        1.0  0.0159686699330101  0.41926533542336575  0.5671207835905674  1.0000
  C   C11       1.0  0.1881966440392641  0.31818169666722107  0.6307158406153626  1.0000
  C   C12       1.0  0.2609764768389649  0.3193097621384784  0.6308749900483699  1.0000
  C   C13       1.0  0.413272442200563  0.3110979861091956  0.5529800143950796  1.0000
  N   N3        1.0  0.4840415910701953  0.31354313350504315  0.5531452159217731  1.0000
  H   H1        1.0  0.5126037985285719  0.6304915211957105  0.5948291932686411  1.0000
  H   H2        1.0  0.3845682103776413  0.6312253288289227  0.5961711472592928  1.0000
  H   H3        1.0  0.2866103146639556  0.6089638288546428  0.4532625168658917  1.0000
  H   H4        1.0  0.1589589424971413  0.6067341108704516  0.4544840979142648  1.0000
  H   H5        1.0  0.160854278524188  0.2368019826177108  0.6802859069344591  1.0000
  H   H6        1.0  0.2885021603342846  0.23901310754759586  0.681982035212582  1.0000
  H   H7        1.0  0.3870370846042524  0.2202111695963962  0.5395044061307048  1.0000
  C   C14       1.0  0.8356863758168189  0.038169964366205233  0.5672308023525199  1.0000
  C   C15       1.0  0.8060086294401867  0.04712346671567191  0.4422808361340036  1.0000
  C   C16       1.0  0.7908676908854516  0.9345267114527185  0.3788526232004794  1.0000
  C   C17       1.0  0.8058049695003217  0.8118581645810954  0.44205963810264515  1.0000
  C   C18       1.0  0.8355047838309934  0.8009498483184982  0.5670844567121003  1.0000
  C   C19       1.0  0.8502618096726574  0.914617811100398  0.6289014669710504  1.0000
  C   C20       1.0  0.7594732988433173  0.945043611174891  0.24666974934594843  1.0000
  C   C21       1.0  0.782776689382746  0.04028540927842017  0.15120257524386838  1.0000
  C   C22       1.0  0.7531665387260457  0.049977088219958166  0.02683913715894759  1.0000
  C   C23       1.0  0.7000114291945598  0.9649659993404663  0.9963149015358921  1.0000
  C   C24       1.0  0.6764381881165976  0.8700440370974867  0.09034162749101049  1.0000
  C   C25       1.0  0.7059270379490645  0.8599352589180536  0.21480536087289814  1.0000
  Br  Br1       1.0  0.6596474112814525  0.9784889173908013  0.826366252081383  1.0000
  H   H8        1.0  0.8471306474742482  0.36220340866407263  0.6152683706565165  1.0000
  H   H9        1.0  0.7937186638749023  0.1418500609579878  0.394724098745588  1.0000
  H   H10       1.0  0.7951180914901212  0.7247933604357291  0.39289860648043873  1.0000
  H   H11       1.0  0.8731551786862314  0.9069961183865648  0.7252767454693183  1.0000
  H   H12       1.0  0.8919621070898345  0.5730938012937703  0.8027281424920338  1.0000
  H   H13       1.0  0.8244837413979635  0.10610458781363641  0.17219652490837123  1.0000
  H   H14       1.0  0.7717028366585109  0.12339502388994972  0.9541810705261278  1.0000
  H   H15       1.0  0.6351481837660022  0.8042496101915841  0.06719909779933708  1.0000
  H   H16       1.0  0.6862588299720628  0.7867332903932711  0.2866038032397955  1.0000
  C   C26       1.0  0.8356192859606518  0.4194453236258724  0.18580555541277177  1.0000
  C   C27       1.0  0.7674569764985948  0.3702532702903232  0.18864758255834846  1.0000
  C   C28       1.0  0.7328941947649005  0.3454431335775301  0.07293982291541412  1.0000
  C   C29       1.0  0.7674090990292717  0.37048466665501967  0.953342835419031  1.0000
  C   C30       1.0  0.8355718518102186  0.41967449260497114  0.9485096642621622  1.0000
  C   C31       1.0  0.8692951403948613  0.44387986641979493  0.06526033883700189  1.0000
  C   C32       1.0  0.6607824216904915  0.29340135896855846  0.0769998714599942  1.0000
  C   C33       1.0  0.6412427160416069  0.19497320935380813  0.17232088920957467  1.0000
  C   C34       1.0  0.5733678689403928  0.14604702434588068  0.17600849236732174  1.0000
  C   C35       1.0  0.5239590692501931  0.1946580651472294  0.08470313280958663  1.0000
  C   C36       1.0  0.5430395206903088  0.2926967900176467  0.9895416341361769  1.0000
  C   C37       1.0  0.6108934416175926  0.3417242785471273  0.9855877350648594  1.0000
  N   N4        1.0  0.45453886722946407  0.1445583143613176  0.08861142939101274  1.0000
  H   H17       1.0  0.8616040978490287  0.43813605870320926  0.5121802218516236  1.0000
  H   H18       1.0  0.7407363197411371  0.35279330372468576  0.28094125149617755  1.0000
  H   H19       1.0  0.7413447266374708  0.3498509867398092  0.8640209007351634  1.0000
  H   H20       1.0  0.9218793752356522  0.48182838362838076  0.062299858766214244  1.0000
  H   H21       1.0  0.8615344889986556  0.4384731472744978  0.6192103916560652  1.0000
  H   H22       1.0  0.6786967116294055  0.1546400789109985  0.24297195234325653  1.0000
  H   H23       1.0  0.5593439113453578  0.07001846824052071  0.24984386318939422  1.0000
  H   H24       1.0  0.5052953285607484  0.33136497826339273  0.9186208877286561  1.0000
  H   H25       1.0  0.6241034349567068  0.418620740274791  0.9120843567078185  1.0000
  H   H26       1.0  0.41734439719885696  0.18017892943619107  0.020946504152851375  1.0000
  H   H27       1.0  0.4398249748962245  0.07147637593604417  0.15919921946177906  1.0000
  Zn  Zn1       1.0  0.7593213058370776  0.4196880709326338  0.5671727160076905  1.0000
  Zn  Zn2       1.0  0.9118631791761657  0.41943109856560534  0.5671419451705861  1.0000
  C   C38       1.0  0.8355805055470458  0.4144571191700863  0.8043432791479173  1.0000
  C   C39       1.0  0.8356056448206388  0.4246636862916293  0.3299715088407553  1.0000
  C   C40       1.0  0.8355358393991922  0.6567666407671291  0.56193717490387  1.0000
  C   C41       1.0  0.8356502592838089  0.1823526043941024  0.5723776826302573  1.0000
  O   O1        1.0  0.8934899140319521  0.4263118306707807  0.378343243498227  1.0000
  O   O2        1.0  0.8934719888779237  0.41261295880868243  0.7559478164955307  1.0000
  O   O3        1.0  0.8934351399453606  0.6082809636407251  0.560203172153378  1.0000
  O   O4        1.0  0.8935267109161491  0.23064383518802845  0.5740877904787289  1.0000
  O   O5        1.0  0.7776577220420393  0.6084753343993141  0.5602268707032165  1.0000
  O   O6        1.0  0.7776945706042316  0.4128088899568596  0.7559714455035846  1.0000
  O   O7        1.0  0.7777124959124099  0.42650771609076443  0.37836531118322236  1.0000
  O   O8        1.0  0.7777492927899182  0.230839711347826  0.5741099555290445  1.0000
