data_image0
_chemical_formula_structural       NC8NC6H8C12OCH12C12SCH12Zn2C4O8
_chemical_formula_sum              "N2 C44 H32 O9 S1 Zn2"
_cell_length_a       17.457602349358154
_cell_length_b       10.29979075500242
_cell_length_c       10.299780138516091
_cell_angle_alpha    85.57237843546018
_cell_angle_beta     92.86764560524759
_cell_angle_gamma    91.67079993281202

_space_group_name_H-M_alt    "P 1"
_space_group_IT_number       1

loop_
  _space_group_symop_operation_xyz
  'x, y, z'

loop_
  _atom_site_type_symbol
  _atom_site_label
  _atom_site_symmetry_multiplicity
  _atom_site_fract_x
  _atom_site_fract_y
  _atom_site_fract_z
  _atom_site_occupancy
  N   N1        1.0  0.7222734254014187  0.45241471456119786  0.6264255993696888  1.0000
  C   C1        1.0  0.6612046538728985  0.4064872393662997  0.6158150945885201  1.0000
  C   C2        1.0  0.5852325172533839  0.34935917723772114  0.6026251675431136  1.0000
  C   C3        1.0  0.5266905694547217  0.38954178431080333  0.6775150244726083  1.0000
  C   C4        1.0  0.4521560829257195  0.33453212479806527  0.664939288545584  1.0000
  C   C5        1.0  0.3900224755946261  0.3769591080336028  0.7442505004181421  1.0000
  C   C6        1.0  0.3154769835350168  0.395411238856725  0.6884878718997571  1.0000
  C   C7        1.0  0.2569350574131847  0.43540995447140385  0.7634856959449168  1.0000
  C   C8        1.0  0.18095147970311753  0.4544672940809984  0.7055076545388457  1.0000
  N   N2        1.0  0.11987360087268661  0.46978301558150504  0.6588934609405115  1.0000
  C   C9        1.0  0.2724463755579625  0.4571998221359841  0.8947546160200939  1.0000
  C   C10       1.0  0.3462070619309327  0.4391367823134593  0.9509047836678268  1.0000
  C   C11       1.0  0.4047373135576481  0.3993182489443723  0.8763646398136178  1.0000
  C   C12       1.0  0.4374524284045358  0.23866204022301618  0.5760409163460742  1.0000
  C   C13       1.0  0.49598257531923096  0.1987582228799898  0.5015510144024329  1.0000
  C   C14       1.0  0.5697322313894314  0.2538804134636321  0.5146766613448215  1.0000
  H   H1        1.0  0.5390156256723001  0.46475391081036665  0.7441347450501321  1.0000
  H   H2        1.0  0.303142941393957  0.3804120226951915  0.5864699862305816  1.0000
  H   H3        1.0  0.2275750613653746  0.4880989045189321  0.9535843758062885  1.0000
  H   H4        1.0  0.3580271416314805  0.45569352571368715  0.052549268184182485  1.0000
  H   H5        1.0  0.4612219088194633  0.3843398856776492  0.9224703352122832  1.0000
  H   H6        1.0  0.3809768312166898  0.1933242128504733  0.565394236219229  1.0000
  H   H7        1.0  0.4841712239820837  0.124662196148009  0.4337329180136329  1.0000
  H   H8        1.0  0.6146037053794712  0.22211179411254145  0.45635809000175853  1.0000
  C   C15       1.0  0.9211461213330918  0.0797342754367063  0.6427044088286578  1.0000
  C   C16       1.0  0.898927561563161  0.0676338096933875  0.7723225082019225  1.0000
  C   C17       1.0  0.8876083695981275  0.9443634579095685  0.8379628637114682  1.0000
  C   C18       1.0  0.8987897350495303  0.8323454777208811  0.7722454710682458  1.0000
  C   C19       1.0  0.9210082608383581  0.8424537269546007  0.6426264364451522  1.0000
  C   C20       1.0  0.9320638285471204  0.966584118189162  0.5785825011259558  1.0000
  C   C21       1.0  0.8641070658902922  0.9326161586013731  0.9750931736928357  1.0000
  C   C22       1.0  0.8081253412535364  0.8393169036374635  0.015585361981851564  1.0000
  C   C23       1.0  0.7860756362704812  0.828537311699733  0.1445182577245656  1.0000
  C   C24       1.0  0.8195112069775347  0.910367204209429  0.23459303308569934  1.0000
  C   C25       1.0  0.8756970231587887  0.004284974529908503  0.19598913665248574  1.0000
  C   C26       1.0  0.8975089330071122  0.01469284636339796  0.06651014545697231  1.0000
  O   O1        1.0  0.9111526786070856  0.08855677414000307  0.2827492784016522  1.0000
  C   C27       1.0  0.894693819086047  0.08885205323444789  0.41673557827254293  1.0000
  H   H9        1.0  0.9296459177135072  0.4117980219007882  0.593338381494948  1.0000
  H   H10       1.0  0.8893561638019405  0.15425568371029863  0.8219675197284229  1.0000
  H   H11       1.0  0.8911374362240603  0.7371249725270244  0.8229862684442917  1.0000
  H   H12       1.0  0.949205099119968  0.9751507455868091  0.4785876620157967  1.0000
  H   H13       1.0  0.9294363606768066  0.5188522956367975  0.5932169209128288  1.0000
  H   H14       1.0  0.7806900710768196  0.775871551632101  0.947138309296726  1.0000
  H   H15       1.0  0.74274381773608  0.7566835122448881  0.17465715992474762  1.0000
  H   H16       1.0  0.8013217834106852  0.8998503341483982  0.33376998168865957  1.0000
  H   H17       1.0  0.9414596446105301  0.08614787929254875  0.03793457478442497  1.0000
  H   H18       1.0  0.9079423971474531  0.9929154118901266  0.46843786931494813  1.0000
  H   H19       1.0  0.9308935493817351  0.16508377037960487  0.4619041436190974  1.0000
  H   H20       1.0  0.8334478329974074  0.11109121940945599  0.4261691266549087  1.0000
  C   C28       1.0  0.9211080362609125  0.460984059760567  0.26131585567161664  1.0000
  C   C29       1.0  0.8481724703041433  0.39978668040862986  0.25885945665107  1.0000
  C   C30       1.0  0.8111850670163074  0.36889042049872867  0.14046537293487882  1.0000
  C   C31       1.0  0.8481096200425486  0.4000093731576131  0.023550408127819056  1.0000
  C   C32       1.0  0.9210463304148346  0.4612039790273794  0.02401506255056529  1.0000
  C   C33       1.0  0.9571370792755096  0.4913494279998136  0.14338745939393194  1.0000
  C   C34       1.0  0.7340242998908014  0.304163704326716  0.13892943056943974  1.0000
  C   C35       1.0  0.6771977644286162  0.34334220656695247  0.043328883776683425  1.0000
  C   C36       1.0  0.6045908730149478  0.2823920574840322  0.04212113945405149  1.0000
  C   C37       1.0  0.5877514539911274  0.18184699045463937  0.13631749271019178  1.0000
  C   C38       1.0  0.6438953417262616  0.14183973806715877  0.2314567141533641  1.0000
  C   C39       1.0  0.7165497280086102  0.20261853258330786  0.23303075996513622  1.0000
  S   S1        1.0  0.494618324022661  0.10350774440946298  0.1343201566040504  1.0000
  C   C40       1.0  0.4552545468501621  0.21600309769463566  0.23982470312521986  1.0000
  H   H21       1.0  0.9489110220235932  0.4842560300968908  0.5897097840239094  1.0000
  H   H22       1.0  0.8195046340625506  0.37761214279252475  0.34906962866377533  1.0000
  H   H23       1.0  0.8202933557538946  0.37479296024884845  0.9322088324448194  1.0000
  H   H24       1.0  0.013403942261564827  0.5385598253966302  0.14451410925532815  1.0000
  H   H25       1.0  0.9488215507975406  0.48457958451043304  0.6967328804759303  1.0000
  H   H26       1.0  0.6885917620357116  0.4222074801834641  0.9705742079441317  1.0000
  H   H27       1.0  0.561357763666437  0.3138366813448572  0.9682565248106108  1.0000
  H   H28       1.0  0.631328633367487  0.06361920965401158  0.3042404306597075  1.0000
  H   H29       1.0  0.7593704358482859  0.16910491236017844  0.3067610622214134  1.0000
  H   H30       1.0  0.48769715812575487  0.21139019526951675  0.335488590278499  1.0000
  H   H31       1.0  0.3943762219191833  0.1882150970033134  0.25562794865766647  1.0000
  H   H32       1.0  0.4582018749678726  0.31685351817786667  0.1934652840667952  1.0000
  Zn  Zn1       1.0  0.8370122474610866  0.45742335055737215  0.6358026213189918  1.0000
  Zn  Zn2       1.0  0.00513476562769255  0.4647637349477851  0.6495270720677604  1.0000
  C   C41       1.0  0.9210572102920278  0.4559887066715378  0.8798489468448258  1.0000
  C   C42       1.0  0.9210916383828834  0.46620009762874903  0.40548102370507655  1.0000
  C   C43       1.0  0.9210307701498553  0.6982818737510175  0.6374659794118567  1.0000
  C   C44       1.0  0.9211180214330563  0.22390536777900727  0.6478640558493871  1.0000
  O   O2        1.0  0.9848877555958179  0.47073061952856365  0.45907252917462604  1.0000
  O   O3        1.0  0.9848621944846391  0.45702838685957037  0.8366736082044253  1.0000
  O   O4        1.0  0.984839983549845  0.6526831463291793  0.6409475767524617  1.0000
  O   O5        1.0  0.9849099091679842  0.2750758668162241  0.6547984585726818  1.0000
  O   O6        1.0  0.8572370465488309  0.6471112161854322  0.6305312301237582  1.0000
  O   O7        1.0  0.8572592572036603  0.4514580169825837  0.8262571921740685  1.0000
  O   O8        1.0  0.8572848185003803  0.4651602039481546  0.4486545518314944  1.0000
  O   O9        1.0  0.8573069720632102  0.26950544197504445  0.6443805785931456  1.0000
