data_image0
_chemical_formula_structural       NC10NC3NCH9C16H10C12NH11Zn2C4O8
_chemical_formula_sum              "N4 C46 H30 Zn2 O8"
_cell_length_a       19.437513618241372
_cell_length_b       10.29914801576943
_cell_length_c       10.299774167527174
_cell_angle_alpha    85.55390253719857
_cell_angle_beta     90.34073838346127
_cell_angle_gamma    89.53623586623313

_space_group_name_H-M_alt    "P 1"
_space_group_IT_number       1

loop_
  _space_group_symop_operation_xyz
  'x, y, z'

loop_
  _atom_site_type_symbol
  _atom_site_label
  _atom_site_symmetry_multiplicity
  _atom_site_fract_x
  _atom_site_fract_y
  _atom_site_fract_z
  _atom_site_occupancy
  N   N1        1.0  0.6481133183445253  0.4101757849357437  0.5752289390512504  1.0000
  C   C1        1.0  0.5891822478992828  0.4271863950709498  0.5722474776571629  1.0000
  C   C2        1.0  0.5157446056190377  0.4484396006360063  0.5685466569355784  1.0000
  C   C3        1.0  0.4739693283988264  0.3472393637519393  0.5569210907952298  1.0000
  C   C4        1.0  0.39808081922095173  0.35730319666999244  0.5496967613529118  1.0000
  C   C5        1.0  0.35851570705983504  0.4381730226325895  0.6154098234548275  1.0000
  C   C6        1.0  0.28233253019898413  0.42956216502459843  0.6069689206085542  1.0000
  C   C7        1.0  0.24918088396199733  0.3082095350320795  0.6116519078621991  1.0000
  C   C8        1.0  0.1774455076818046  0.30183564892259596  0.6044862587589976  1.0000
  C   C9        1.0  0.13789108371106104  0.4163417556943143  0.5929999931332219  1.0000
  C   C10       1.0  0.06404119321747472  0.4096296259016461  0.5856663710804022  1.0000
  N   N2        1.0  0.0046709793585353  0.4042336637626378  0.5797705971415723  1.0000
  C   C11       1.0  0.1703260811233744  0.5373839607889368  0.589062350777771  1.0000
  C   C12       1.0  0.2420458942658188  0.5440118710529442  0.5962899352157318  1.0000
  C   C13       1.0  0.3872102427659371  0.5304849784850347  0.7052954904115363  1.0000
  N   N3        1.0  0.4442040361314122  0.5936976317918772  0.6848714624672918  1.0000
  C   C14       1.0  0.48804491797716804  0.584410744262774  0.5717719801710512  1.0000
  H   H1        1.0  0.496340768544347  0.2521734509333726  0.5448316127220372  1.0000
  H   H2        1.0  0.3733580483827814  0.28777297529842705  0.49140403162748747  1.0000
  H   H3        1.0  0.2786190565586715  0.21829352295640447  0.6227017617365211  1.0000
  H   H4        1.0  0.1528392904284787  0.20760333286774668  0.6084041703687972  1.0000
  H   H5        1.0  0.1402025105779869  0.6266455262695079  0.580324756491529  1.0000
  H   H6        1.0  0.2661706451766996  0.6386570135974172  0.5923564290755923  1.0000
  H   H7        1.0  0.3572087429950455  0.5508906335495363  0.789651693605792  1.0000
  H   H8        1.0  0.5308068627210366  0.6547296112374257  0.5775120556922213  1.0000
  H   H9        1.0  0.4583826707080558  0.6125016118323294  0.4811212260219535  1.0000
  C   C15       1.0  0.8263464442924041  0.02580413332206133  0.5776647462103843  1.0000
  C   C16       1.0  0.8106457550102424  0.035625786199203535  0.4439969075985968  1.0000
  C   C17       1.0  0.8027357406277664  0.9234749215481814  0.3760605239194257  1.0000
  C   C18       1.0  0.8107376213631372  0.8003723224623432  0.4435935060366323  1.0000
  C   C19       1.0  0.8264444380488877  0.7885951499662087  0.5773461716985742  1.0000
  C   C20       1.0  0.8341533692811517  0.901828585674071  0.6435582473859265  1.0000
  C   C21       1.0  0.7861264746998314  0.9349106486253649  0.23465607321390225  1.0000
  C   C22       1.0  0.8186825157193419  0.8533582098051314  0.1498569818348714  1.0000
  C   C23       1.0  0.8030264112505074  0.8642466993440404  0.0167722565535533  1.0000
  C   C24       1.0  0.7546535334186055  0.9565900908390157  0.9666804029335099  1.0000
  C   C25       1.0  0.7219721203527928  0.03812456110310447  0.0501940154628715  1.0000
  C   C26       1.0  0.7375791700895661  0.027478160874393254  0.18329906151998387  1.0000
  C   C27       1.0  0.7385609494612482  0.9676756699293076  0.8296575531634418  1.0000
  C   C28       1.0  0.7250835838475046  0.976959736245632  0.7149028979865037  1.0000
  C   C29       1.0  0.7093017478809645  0.9878312529494859  0.5805263672246443  1.0000
  C   C30       1.0  0.6958266442062904  0.9971139097735705  0.4657902477728473  1.0000
  H   H10       1.0  0.8323502185647004  0.3495014984994651  0.6290927653132228  1.0000
  H   H11       1.0  0.8054587775419841  0.1307524566577707  0.3920231409369703  1.0000
  H   H12       1.0  0.803774785701575  0.7135801488246503  0.39209167800355993  1.0000
  H   H13       1.0  0.846261701554202  0.8935370357690939  0.7466605123500358  1.0000
  H   H14       1.0  0.8556641587844152  0.5590669433013595  0.8299701189134561  1.0000
  H   H15       1.0  0.8568992419192452  0.7823270642466874  0.18619181881453573  1.0000
  H   H16       1.0  0.8287704020326124  0.8008760807748575  0.9529282679936015  1.0000
  H   H17       1.0  0.6843027050532904  0.10971053896203364  0.0124963201748447  1.0000
  H   H18       1.0  0.7110332051170757  0.09047210397049477  0.2463300843751186  1.0000
  H   H19       1.0  0.6839944183560933  0.0052648657090808015  0.36504226095654113  1.0000
  C   C31       1.0  0.8264188383615834  0.4070847278045129  0.19615370043537705  1.0000
  C   C32       1.0  0.7590312447026628  0.3589016815885735  0.19813678286213166  1.0000
  C   C33       1.0  0.7248613434797394  0.3346031794481692  0.08199345191928709  1.0000
  C   C34       1.0  0.758984008146053  0.35913378964235476  0.9628313731471367  1.0000
  C   C35       1.0  0.8263720391585231  0.4073146018819058  0.9588571528630632  1.0000
  C   C36       1.0  0.8597119890989223  0.4310207681591365  0.07603281965418196  1.0000
  C   C37       1.0  0.6535691750327428  0.2836288759011951  0.08514478660506741  1.0000
  C   C38       1.0  0.6342208757346407  0.1854890345761946  0.18023836223583078  1.0000
  C   C39       1.0  0.5671174984598726  0.13756760203042706  0.18307063010781133  1.0000
  C   C40       1.0  0.5183009229500213  0.1869109790829122  0.09112387358009921  1.0000
  C   C41       1.0  0.5371951667135856  0.2846681933616122  0.9961840426696247  1.0000
  C   C42       1.0  0.6042778980032208  0.33269124049419707  0.9930851892501908  1.0000
  N   N4        1.0  0.4496697336657776  0.13783885600974344  0.09415737413332637  1.0000
  H   H20       1.0  0.8521082907180472  0.4253908088464855  0.5228558273476696  1.0000
  H   H21       1.0  0.7326149518371897  0.3418372813744075  0.290093326097715  1.0000
  H   H22       1.0  0.7332152136170645  0.3388859205213548  0.8731813954792269  1.0000
  H   H23       1.0  0.911698564283609  0.4681908805790964  0.07373497801650952  1.0000
  H   H24       1.0  0.8520396139289245  0.42572893214689667  0.6298850336885664  1.0000
  H   H25       1.0  0.6712246725242149  0.14460072299523397  0.2513764080195644  1.0000
  H   H26       1.0  0.5532289572049841  0.06174590946382308  0.25674396182667314  1.0000
  H   H27       1.0  0.4999039421851026  0.32389584233481106  0.9247729809780725  1.0000
  H   H28       1.0  0.6173622557518773  0.40939290399147854  0.9197332686295017  1.0000
  H   H29       1.0  0.4129207302327863  0.17401075595555415  0.02600982825353304  1.0000
  H   H30       1.0  0.43510035238335276  0.06497403255098089  0.16457366352204872  1.0000
  Zn  Zn1       1.0  0.7510081618434863  0.40845752987984785  0.5765470735446716  1.0000
  Zn  Zn2       1.0  0.9017761400439368  0.40594125160099903  0.5784631364970807  1.0000
  C   C43       1.0  0.8263786942440522  0.4020970422347998  0.8146920405450186  1.0000
  C   C44       1.0  0.8264072542277274  0.41230335056210055  0.3403183171963202  1.0000
  C   C45       1.0  0.8264226970278221  0.6444099209908489  0.5722313832149353  1.0000
  C   C46       1.0  0.8263631997926585  0.16998891225371326  0.5827790437598575  1.0000
  O   O1        1.0  0.8836190277517559  0.4130941873283689  0.38942841781278004  1.0000
  O   O2        1.0  0.8835963275376684  0.39939542856128707  0.7670358139547979  1.0000
  O   O3        1.0  0.8836310889647285  0.5950661559010251  0.5712471073450356  1.0000
  O   O4        1.0  0.8835842148849647  0.21742347010891572  0.5852170263945555  1.0000
  O   O5        1.0  0.7692000355527474  0.5969753122320256  0.5697931829865073  1.0000
  O   O6        1.0  0.7691652743272758  0.4013061453047204  0.7655818197021262  1.0000
  O   O7        1.0  0.7691879746770852  0.4150048583408166  0.3879728622492047  1.0000
  O   O8        1.0  0.769153161800314  0.219334131861173  0.5837615681982777  1.0000
