data_image0
_chemical_formula_structural       NC10NC5H10C12OCH12C12NCOH11Zn2C4O8
_chemical_formula_sum              "N3 C45 H33 O10 Zn2"
_cell_length_a       19.4436361288709
_cell_length_b       10.29979075500242
_cell_length_c       10.299148425239203
_cell_angle_alpha    85.53236164649607
_cell_angle_beta     89.68967150439464
_cell_angle_gamma    89.4004616021446

_space_group_name_H-M_alt    "P 1"
_space_group_IT_number       1

loop_
  _space_group_symop_operation_xyz
  'x, y, z'

loop_
  _atom_site_type_symbol
  _atom_site_label
  _atom_site_symmetry_multiplicity
  _atom_site_fract_x
  _atom_site_fract_y
  _atom_site_fract_z
  _atom_site_occupancy
  N   N1        1.0  0.6476097425259214  0.40990362994561136  0.5619051299534659  1.0000
  C   C1        1.0  0.5887710784290047  0.4197969497004739  0.5762896102160575  1.0000
  C   C2        1.0  0.5154383873462745  0.43213521387149223  0.594282561749047  1.0000
  C   C3        1.0  0.4732671192284782  0.4001946235288112  0.49960358539009286  1.0000
  C   C4        1.0  0.3973603037466593  0.4106297012850566  0.5049314617365297  1.0000
  C   C5        1.0  0.3576167879758325  0.38581839033790266  0.6120133258244531  1.0000
  C   C6        1.0  0.2814966016309886  0.38974268000467727  0.5990527522007194  1.0000
  C   C7        1.0  0.24091675319546  0.4473480836343766  0.6928271347229102  1.0000
  C   C8        1.0  0.169253574569855  0.45099207589010204  0.6822822361854859  1.0000
  C   C9        1.0  0.1371755321711935  0.3966344849833079  0.5782495259292006  1.0000
  C   C10       1.0  0.06338311083624151  0.40033981234747573  0.5675493302578252  1.0000
  N   N2        1.0  0.0040590091281428  0.4033187010285224  0.5589470823454983  1.0000
  C   C11       1.0  0.1770305772747046  0.3383217668467806  0.48485844757835417  1.0000
  C   C12       1.0  0.24871021374394  0.3346237002963981  0.4951515529572368  1.0000
  C   C13       1.0  0.3857460159328788  0.34528001453491486  0.7431200856722135  1.0000
  C   C14       1.0  0.4443987010940273  0.38837363078613674  0.7903636471396258  1.0000
  C   C15       1.0  0.4885956762768708  0.486275470890529  0.715985046548665  1.0000
  H   H1        1.0  0.4953781104784441  0.37113128233099  0.40929167824423907  1.0000
  H   H2        1.0  0.37266548042898  0.4331795494819617  0.41176485197515267  1.0000
  H   H3        1.0  0.2647736119825069  0.49059075495190085  0.7736790309966795  1.0000
  H   H4        1.0  0.138895455489867  0.49626316926719505  0.755205957929211  1.0000
  H   H5        1.0  0.1527017769636122  0.29527455344520614  0.40434104809407323  1.0000
  H   H6        1.0  0.2784030351887172  0.28710881588317894  0.4229243447597275  1.0000
  H   H7        1.0  0.3547861700702128  0.28102513895196735  0.807375478425884  1.0000
  H   H8        1.0  0.45954657587963316  0.3542484403014188  0.888307362626374  1.0000
  H   H9        1.0  0.45847356117620824  0.5770042510518492  0.6907260550253069  1.0000
  H   H10       1.0  0.5318715271796972  0.5118238775163666  0.7790732819366755  1.0000
  C   C16       1.0  0.825899468887991  0.02524219400436789  0.560464543707742  1.0000
  C   C17       1.0  0.8059722035635658  0.014388355206646608  0.692077572995262  1.0000
  C   C18       1.0  0.7958203308515507  0.8917533695653328  0.7587341950606916  1.0000
  C   C19       1.0  0.8058486459942118  0.7791083725168756  0.6920128084505952  1.0000
  C   C20       1.0  0.8257758809133086  0.7879699975042954  0.5603988468325727  1.0000
  C   C21       1.0  0.8356913119973315  0.9114797729749765  0.49536232169246475  1.0000
  C   C22       1.0  0.774742603047065  0.8813246484463844  0.8979746115960878  1.0000
  C   C23       1.0  0.724552045247299  0.7913664646022908  0.9434599642104506  1.0000
  C   C24       1.0  0.7047762026127404  0.7818238158919087  0.0743726638092469  1.0000
  C   C25       1.0  0.7347457448248536  0.8615783176502397  0.16147850651669782  1.0000
  C   C26       1.0  0.7851191530574004  0.9521414125541698  0.11786347886440729  1.0000
  C   C27       1.0  0.8046818451330946  0.9613270353209745  0.9864258099664167  1.0000
  O   O1        1.0  0.8168999242484698  0.03421855603753032  0.20147429564019204  1.0000
  C   C28       1.0  0.8021359947795857  0.03541074632464003  0.3369427936507786  1.0000
  H   H11       1.0  0.8335227078112862  0.3568288847129013  0.510335373735421  1.0000
  H   H12       1.0  0.7973882489725079  0.10155158667419206  0.7425812485874692  1.0000
  H   H13       1.0  0.7989851078361259  0.6843129530372442  0.7434413888217322  1.0000
  H   H14       1.0  0.8510648846027173  0.919084644783116  0.3938284258311051  1.0000
  H   H15       1.0  0.8333348461307907  0.46389585606626244  0.5102325723935437  1.0000
  H   H16       1.0  0.6999604505271285  0.7296202360731189  0.8774496785565431  1.0000
  H   H17       1.0  0.6659270262234289  0.7125569643257376  0.10837631048642637  1.0000
  H   H18       1.0  0.7184325473495508  0.8520868606773401  0.26228781637478304  1.0000
  H   H19       1.0  0.8440857648902198  0.030156777538385526  0.9539305277347299  1.0000
  H   H20       1.0  0.8140101772488949  0.9386405507559471  0.38747052944829463  1.0000
  H   H21       1.0  0.8345864565228217  0.10943211053087798  0.3788908971208771  1.0000
  H   H22       1.0  0.7472279482370717  0.061329546191450035  0.35183498852762307  1.0000
  C   C29       1.0  0.8258893713207478  0.40676099447670166  0.1790350630672477  1.0000
  C   C30       1.0  0.8956662895568521  0.44103075245850043  0.1744834785029814  1.0000
  C   C31       1.0  0.930935431178858  0.458194051682562  0.05504451785713327  1.0000
  C   C32       1.0  0.8955213515550731  0.44069328061600377  0.9392275560153225  1.0000
  C   C33       1.0  0.8257859488117263  0.4064512292737996  0.9418283374193375  1.0000
  C   C34       1.0  0.7913790775207074  0.38967686793453327  0.06223449229015898  1.0000
  C   C35       1.0  0.004709480966370805  0.4944238459738046  0.051322496783675176  1.0000
  C   C36       1.0  0.05093556116272291  0.436199117959571  0.9673458627975067  1.0000
  C   C37       1.0  0.12032360263797148  0.47043050943398  0.963992824214277  1.0000
  C   C38       1.0  0.14511045719105797  0.5622452761201073  0.04528804994063629  1.0000
  C   C39       1.0  0.09881582004268519  0.6223174802953322  0.127696694797655  1.0000
  C   C40       1.0  0.029396678786953734  0.5881933315646983  0.1311468233806532  1.0000
  N   N3        1.0  0.2165342500770524  0.5971326720962962  0.0381567742071478  1.0000
  C   C41       1.0  0.2560905272374445  0.6330748411527831  0.14655540822800095  1.0000
  O   O2        1.0  0.23282072710399215  0.619342220373343  0.26110992706858216  1.0000
  H   H23       1.0  0.6942984278415218  0.34131260895569504  0.3949779824765789  1.0000
  H   H24       1.0  0.9229526590719149  0.45272205115244635  0.26418238037245034  1.0000
  H   H25       1.0  0.9222047862492847  0.45559197177120314  0.8467718801051451  1.0000
  H   H26       1.0  0.7375912232259032  0.363261567597881  0.06495562919586129  1.0000
  H   H27       1.0  0.7989658632028382  0.3932444820081822  0.61535551633435  1.0000
  H   H28       1.0  0.033606888518093125  0.3630097040069542  0.9053232466325052  1.0000
  H   H29       1.0  0.15508354790483114  0.42425057060026417  0.8987534357652462  1.0000
  H   H30       1.0  0.11575383825793706  0.6976786418689753  0.18731575495294894  1.0000
  H   H31       1.0  0.9947174589328187  0.6370380238136115  0.19449273479617357  1.0000
  H   H32       1.0  0.24298859968850461  0.5877046749583683  0.9507549497090197  1.0000
  H   H33       1.0  0.3077278956724996  0.6691605606300839  0.13029978529252384  1.0000
  Zn  Zn1       1.0  0.7504733019503768  0.4079998872821582  0.5610590142956184  1.0000
  Zn  Zn2       1.0  0.9011954414897684  0.405211831671177  0.5598038808731571  1.0000
  C   C42       1.0  0.8258048079222794  0.4013361296310538  0.7976445630572477  1.0000
  C   C43       1.0  0.8258655811161031  0.41187719744458806  0.32321844574019276  1.0000
  C   C44       1.0  0.8257963860262683  0.6438003984891143  0.5552357843266533  1.0000
  C   C45       1.0  0.8258739518246604  0.1694113692072241  0.5656272942770422  1.0000
  O   O3        1.0  0.883055864284465  0.4125305235820895  0.3711313899917221  1.0000
  O   O4        1.0  0.8830091414008648  0.3985657542253769  0.7487786277909794  1.0000
  O   O5        1.0  0.8830015693702475  0.5943587314220846  0.5530318301885371  1.0000
  O   O6        1.0  0.8830633848955228  0.2167375566665244  0.5668780906399058  1.0000
  O   O7        1.0  0.7686053071105541  0.5964741632396537  0.5539848049503531  1.0000
  O   O8        1.0  0.7686128788945565  0.4006827463750924  0.7497315331680245  1.0000
  O   O9        1.0  0.7686596020429343  0.41464747110911926  0.3720827338580188  1.0000
  O   O10       1.0  0.7686671226394833  0.21885449486525443  0.5678295318819448  1.0000
