data_image0
_chemical_formula_structural       NC12NC2H8C12ClH9C12OCH12Zn2C4O8
_chemical_formula_sum              "N2 C43 H29 Cl1 O9 Zn2"
_cell_length_a       19.240039667572717
_cell_length_b       10.299768534541528
_cell_length_c       10.299794127170987
_cell_angle_alpha    85.578860457747
_cell_angle_beta     89.99328814946611
_cell_angle_gamma    90.01670575511149

_space_group_name_H-M_alt    "P 1"
_space_group_IT_number       1

loop_
  _space_group_symop_operation_xyz
  'x, y, z'

loop_
  _atom_site_type_symbol
  _atom_site_label
  _atom_site_symmetry_multiplicity
  _atom_site_fract_x
  _atom_site_fract_y
  _atom_site_fract_z
  _atom_site_occupancy
  N   N1        1.0  0.654788721547018  0.42084682098250115  0.5676005470702572  1.0000
  C   C1        1.0  0.5946403527479791  0.42084690493929666  0.5676004651420545  1.0000
  C   C2        1.0  0.5198223156337254  0.4208470221842473  0.5676003278506383  1.0000
  C   C3        1.0  0.483332060380661  0.3564121528908293  0.6710037103623008  1.0000
  C   C4        1.0  0.4106612895511882  0.3563012976543569  0.6710902419859073  1.0000
  C   C5        1.0  0.3734900807251078  0.42084711468292  0.5676001001850064  1.0000
  C   C6        1.0  0.4106945503032372  0.4853931187519771  0.4641101529269056  1.0000
  C   C7        1.0  0.4833652159930542  0.48528202805366205  0.46419680703131294  1.0000
  C   C8        1.0  0.2962849902791815  0.42084703599506934  0.5676000047691476  1.0000
  C   C9        1.0  0.25907687977986443  0.3075994324387772  0.6094618364377853  1.0000
  C   C10       1.0  0.18640621380317426  0.3077063053177014  0.6093705218060024  1.0000
  C   C11       1.0  0.1499527033320064  0.42084690684100723  0.5676000656686706  1.0000
  C   C12       1.0  0.0751346661437202  0.4208467931708013  0.5676003143109274  1.0000
  N   N2        1.0  0.014986349272189997  0.4208467524075967  0.5676005227180807  1.0000
  C   C13       1.0  0.18644670373260047  0.5339875841759592  0.5258295566476989  1.0000
  C   C14       1.0  0.25911742239622654  0.5340946371272703  0.5257380794399646  1.0000
  H   H1        1.0  0.5110340772032769  0.3065254702872797  0.7517381598494897  1.0000
  H   H2        1.0  0.38355518831897295  0.30721301269000856  0.7529401955133126  1.0000
  H   H3        1.0  0.3836141207547324  0.534481430753867  0.3822601485550974  1.0000
  H   H4        1.0  0.5110929706005904  0.5351686104749818  0.3834626333205646  1.0000
  H   H5        1.0  0.28615428607588705  0.21845389614497246  0.6406225160841514  1.0000
  H   H6        1.0  0.15867557856295839  0.2194602368984815  0.6415641754954429  1.0000
  H   H7        1.0  0.15874751552028518  0.6222336280627498  0.4936359175065066  1.0000
  H   H8        1.0  0.2862264949325774  0.6232402525840324  0.49457735502901645  1.0000
  C   C15       1.0  0.8348253206772371  0.03948140312364301  0.5675983961330375  1.0000
  C   C16       1.0  0.8394113178702335  0.049007693477164604  0.43113604578390907  1.0000
  C   C17       1.0  0.841801896010235  0.9366953754724419  0.361996876071377  1.0000
  C   C18       1.0  0.8395440606419777  0.8137199804810297  0.43115153496965974  1.0000
  C   C19       1.0  0.8349564284175226  0.8022021610722806  0.567613823272362  1.0000
  C   C20       1.0  0.8326232612716448  0.9156397659365823  0.6350730641140347  1.0000
  C   C21       1.0  0.8466544228465107  0.9478270643245108  0.2176310854593595  1.0000
  C   C22       1.0  0.8071190368239224  0.041345645458667146  0.1431708777904932  1.0000
  C   C23       1.0  0.8117482989103485  0.05162731563147016  0.007297677337938957  1.0000
  C   C24       1.0  0.855845933282183  0.9689120509145169  0.9441929082773632  1.0000
  C   C25       1.0  0.8953700228823107  0.8757052778261191  0.017141968259434037  1.0000
  C   C26       1.0  0.8908641858212735  0.86503136062457  0.15302981124782122  1.0000
  Cl  Cl1       1.0  0.8615765892236441  0.9820579767697366  0.7737161256996958  1.0000
  H   H9        1.0  0.833042168729548  0.3633051669217908  0.6195940161954121  1.0000
  H   H10       1.0  0.8420941794087627  0.1440048343466227  0.3784059970747966  1.0000
  H   H11       1.0  0.840413135817487  0.7268709044308369  0.37820794159380844  1.0000
  H   H12       1.0  0.8290846716532939  0.9075224827345555  0.7403474856610064  1.0000
  H   H13       1.0  0.8332359985683521  0.47035958826904706  0.6196172439296184  1.0000
  H   H14       1.0  0.7719748621568546  0.10533506808391246  0.18991209797639108  1.0000
  H   H15       1.0  0.7808931139484601  0.12372503521185396  0.9511886275967458  1.0000
  H   H16       1.0  0.92973918898585  0.8116687523550344  0.968711351662384  1.0000
  H   H17       1.0  0.9226014149842326  0.7932265184908751  0.2076446276918651  1.0000
  C   C27       1.0  0.8349142942062596  0.4207283284387504  0.18625469781528303  1.0000
  C   C28       1.0  0.7668003385914312  0.37160622491491924  0.18906035971973423  1.0000
  C   C29       1.0  0.7322673636017076  0.3468182544387175  0.07333514502800598  1.0000
  C   C30       1.0  0.7667531262508762  0.3718326891132424  0.9537554726839033  1.0000
  C   C31       1.0  0.834867471109982  0.42095530005930315  0.948957548954743  1.0000
  C   C32       1.0  0.868567348437982  0.4451251734274153  0.0657268440215697  1.0000
  C   C33       1.0  0.6602086456417037  0.29484275653927083  0.07735807313105503  1.0000
  C   C34       1.0  0.6104613140907316  0.34350929427698706  0.9862107492717671  1.0000
  C   C35       1.0  0.542737297693902  0.29457983304195756  0.9902610335215671  1.0000
  C   C36       1.0  0.5237762492660807  0.19664704795414  0.08494575176582031  1.0000
  C   C37       1.0  0.5728376641063961  0.146575929551519  0.17695562958452493  1.0000
  C   C38       1.0  0.640656267835234  0.1961449295139044  0.17245398256263922  1.0000
  O   O1        1.0  0.5564612876292608  0.04800418346802293  0.27377529054431426  1.0000
  C   C39       1.0  0.4898300692548861  0.9887313131043551  0.2898113080712763  1.0000
  H   H18       1.0  0.8608778670148971  0.43938764630159066  0.5126431774775448  1.0000
  H   H19       1.0  0.740095817345376  0.3541775955948858  0.28133703524838105  1.0000
  H   H20       1.0  0.7406958821661339  0.35123848176175865  0.8644235320657208  1.0000
  H   H21       1.0  0.9211146944585509  0.4830199711260661  0.06279400242546473  1.0000
  H   H22       1.0  0.8608079742086316  0.4397344114109687  0.6196719616304329  1.0000
  H   H23       1.0  0.6236924328708083  0.42057451417341163  0.9128936039294331  1.0000
  H   H24       1.0  0.5047438017544185  0.33297479000880736  0.9199239432880413  1.0000
  H   H25       1.0  0.4709688060629791  0.1606132619074272  0.08577348527903617  1.0000
  H   H26       1.0  0.6783430923324741  0.15599997299789914  0.24261727110857656  1.0000
  H   H27       1.0  0.4754964927176689  0.9402761274891214  0.20094979642740496  1.0000
  H   H28       1.0  0.4916031958923903  0.9142563401238595  0.3734816882411025  1.0000
  H   H29       1.0  0.4502574536105237  0.06298880563385478  0.31008988242661717  1.0000
  Zn  Zn1       1.0  0.7587339843271068  0.4208433362512911  0.567608028055022  1.0000
  Zn  Zn2       1.0  0.9110411027913566  0.4208396469101454  0.567603639932438  1.0000
  C   C40       1.0  0.8348738618947835  0.415738750021178  0.8047902882469629  1.0000
  C   C41       1.0  0.8349028886865011  0.4259458717423461  0.33042150718642893  1.0000
  C   C42       1.0  0.8349283808450515  0.6580301978079579  0.5624360097343801  1.0000
  C   C43       1.0  0.8348483174920157  0.1836528636892596  0.5727758549043132  1.0000
  O   O2        1.0  0.8926988176179936  0.4276898611630582  0.3788035400068652  1.0000
  O   O3        1.0  0.8926755115853902  0.4139909806512123  0.7564045510942454  1.0000
  O   O4        1.0  0.8927187570758983  0.6096443893532866  0.560701756548448  1.0000
  O   O5        1.0  0.8926555201629606  0.23203646172340542  0.5745062371841436  1.0000
  O   O6        1.0  0.7771195149805591  0.6096465214407021  0.5607054307979833  1.0000
  O   O7        1.0  0.7770762697593243  0.41399467300760495  0.7564081561331457  1.0000
  O   O8        1.0  0.7770995759262741  0.4276935077993105  0.3788055837157276  1.0000
  O   O9        1.0  0.777056278460822  0.23204009909990675  0.5745083782561915  1.0000
