data_image0
_chemical_formula_structural       NC10NC5H10C12OCH12C12OCH12Zn2C4O8
_chemical_formula_sum              "N2 C45 H34 O10 Zn2"
_cell_length_a       19.4436361288709
_cell_length_b       10.29979075500242
_cell_length_c       10.299794127170987
_cell_angle_alpha    85.57270427699777
_cell_angle_beta     89.69815743819767
_cell_angle_gamma    89.4004616021446

_space_group_name_H-M_alt    "P 1"
_space_group_IT_number       1

loop_
  _space_group_symop_operation_xyz
  'x, y, z'

loop_
  _atom_site_type_symbol
  _atom_site_label
  _atom_site_symmetry_multiplicity
  _atom_site_fract_x
  _atom_site_fract_y
  _atom_site_fract_z
  _atom_site_occupancy
  N   N1        1.0  0.6475023189086702  0.4088901340071054  0.5620749600988832  1.0000
  C   C1        1.0  0.5886647293117285  0.4187935912102183  0.5764577416429653  1.0000
  C   C2        1.0  0.5153333822765844  0.4311445358960484  0.594448568319216  1.0000
  C   C3        1.0  0.4731550417755053  0.3991372206383421  0.4997807729641428  1.0000
  C   C4        1.0  0.3972486242783823  0.40957605321017754  0.5051080201212035  1.0000
  C   C5        1.0  0.3575131073687028  0.3848402081009188  0.6121772385006072  1.0000
  C   C6        1.0  0.2813919528876607  0.38875536381624065  0.5992181954407807  1.0000
  C   C7        1.0  0.2408191092635572  0.44642685484935174  0.6929815037860507  1.0000
  C   C8        1.0  0.1691551429492064  0.45006341559825347  0.6824378505361863  1.0000
  C   C9        1.0  0.1370693294568007  0.3956325077417142  0.578417425902136  1.0000
  C   C10       1.0  0.0632761088326306  0.3993302941535566  0.5677184938579554  1.0000
  N   N2        1.0  0.0039513645489922  0.40230312040888805  0.5591172618181168  1.0000
  C   C11       1.0  0.1769173983811567  0.3372539723350103  0.485037376462349  1.0000
  C   C12       1.0  0.2485978037305513  0.3335631598404718  0.4953292662888926  1.0000
  C   C13       1.0  0.385652128812036  0.34439422965737077  0.7432685154476539  1.0000
  C   C14       1.0  0.4443083429992386  0.3875211407618495  0.7905064977414793  1.0000
  C   C15       1.0  0.488499762207655  0.4853705626209781  0.7161366808050726  1.0000
  H   H1        1.0  0.4952592868559739  0.3700102322132084  0.40947953109819757  1.0000
  H   H2        1.0  0.3725468415490285  0.43206024233092233  0.4119524127625285  1.0000
  H   H3        1.0  0.2646820075709028  0.48972650646087557  0.7738238519489216  1.0000
  H   H4        1.0  0.1388024711662892  0.4953859018961806  0.7553529604375873  1.0000
  H   H5        1.0  0.1525825835361943  0.2941500143757185  0.40452948558695545  1.0000
  H   H6        1.0  0.27828522990681714  0.2859973733736516  0.42311058767974785  1.0000
  H   H7        1.0  0.3546970827347397  0.28018463799896787  0.8075163200352564  1.0000
  H   H8        1.0  0.4594635340394418  0.35346497601383087  0.8884386466787668  1.0000
  H   H9        1.0  0.45837576029667554  0.5760815415329836  0.6908806722130172  1.0000
  H   H10       1.0  0.5317803257108755  0.5109634306183601  0.7792174658611104  1.0000
  C   C16       1.0  0.8257919376610204  0.024227682814129015  0.5606345439775213  1.0000
  C   C17       1.0  0.8058745036404804  0.013466598168734967  0.6922320305770253  1.0000
  C   C18       1.0  0.7957276100822089  0.8908785887159499  0.758880780905997  1.0000
  C   C19       1.0  0.805750941233308  0.7781865698362154  0.6921672736806517  1.0000
  C   C20       1.0  0.8256683447788756  0.7869554400142489  0.5605688548607479  1.0000
  C   C21       1.0  0.8355789177280638  0.9104193810581083  0.4955400101336309  1.0000
  C   C22       1.0  0.7746602833364598  0.8805479971429543  0.8981047540059277  1.0000
  C   C23       1.0  0.7244731232270768  0.7906218690561659  0.9435847350803392  1.0000
  C   C24       1.0  0.7047070595827836  0.7811714809414552  0.07448197469574114  1.0000
  C   C25       1.0  0.7346831084759943  0.860987370456354  0.16157753073974457  1.0000
  C   C26       1.0  0.7850532587287413  0.9515197277126477  0.11796765375354945  1.0000
  C   C27       1.0  0.8046061325997187  0.9606127199121868  0.986545506834593  1.0000
  O   O1        1.0  0.8168402755275006  0.03365579583650469  0.20156859660691961  1.0000
  C   C28       1.0  0.8020864653604672  0.03494345741371396  0.33702109662238344  1.0000
  H   H11       1.0  0.8334114320074586  0.3557790450396632  0.5105112939513756  1.0000
  H   H12       1.0  0.7972943216013101  0.10066542205174489  0.74272974199625  1.0000
  H   H13       1.0  0.7988912447161659  0.6834273945977775  0.7435897806532499  1.0000
  H   H14       1.0  0.8509449058975448  0.9179526969534776  0.3940181047999187  1.0000
  H   H15       1.0  0.8332235626478509  0.46284594394388034  0.5104085047497038  1.0000
  H   H16       1.0  0.6998765976335625  0.7288291198434125  0.8775822448345407  1.0000
  H   H17       1.0  0.6658604232169447  0.7119285934116767  0.1084816057517125  1.0000
  H   H18       1.0  0.7183774413110646  0.8515669587449551  0.2623749356393259  1.0000
  H   H19       1.0  0.8440076250060247  0.029419561111557302  0.9540540620955655  1.0000
  H   H20       1.0  0.8139644221789267  0.938208871216892  0.38754286540555516  1.0000
  H   H21       1.0  0.8345400605666657  0.10899438450441856  0.3789642462798647  1.0000
  H   H22       1.0  0.7471795312434794  0.06087275254014668  0.3519115328227498  1.0000
  C   C29       1.0  0.8257533478604828  0.405477671236919  0.17925010780906625  1.0000
  C   C30       1.0  0.7583645770263506  0.3576005680070371  0.18262020983885052  1.0000
  C   C31       1.0  0.7241992235472919  0.33344379947951075  0.06718114744665371  1.0000
  C   C32       1.0  0.7583177808051076  0.3578278983666938  0.947315686700001  1.0000
  C   C33       1.0  0.8257069366640682  0.40570550190691046  0.9419533195961645  1.0000
  C   C34       1.0  0.8590480679148622  0.42925940063678936  0.058443367810544045  1.0000
  C   C35       1.0  0.6529076916665953  0.2827854049120464  0.07180120564431758  1.0000
  C   C36       1.0  0.6036619196951094  0.3323622742374961  0.9810572513686537  1.0000
  C   C37       1.0  0.5366589659571223  0.28467068482096836  0.9856687537278659  1.0000
  C   C38       1.0  0.5179277768381524  0.1870834369454173  0.08051943847293841  1.0000
  C   C39       1.0  0.5664952370503391  0.1361145130818302  0.17213172618072914  1.0000
  C   C40       1.0  0.6335915813082449  0.18444391936837867  0.16706801727863274  1.0000
  O   O2        1.0  0.550322033209446  0.037841030275777676  0.2690961978882116  1.0000
  C   C41       1.0  0.4844039403781786  0.9797859204112143  0.2856855459499632  1.0000
  H   H23       1.0  0.8514405174309423  0.4236624210038584  0.5054234418705581  1.0000
  H   H24       1.0  0.7319437613423939  0.34066007169824153  0.2751179857679693  1.0000
  H   H25       1.0  0.7325385575090041  0.337709948280815  0.8581998638631387  1.0000
  H   H26       1.0  0.9110359615960075  0.4661937275841499  0.05507508207098488  1.0000
  H   H27       1.0  0.8513712368217324  0.424010468513776  0.6124527635261487  1.0000
  H   H28       1.0  0.6167297425620926  0.409186483823474  0.907623377917949  1.0000
  H   H29       1.0  0.4990481182435245  0.3237609038102225  0.9156395999262212  1.0000
  H   H30       1.0  0.46568187466396893  0.15201490095962988  0.08178455650309013  1.0000
  H   H31       1.0  0.6708995304277797  0.14360928742295243  0.23692607112081832  1.0000
  H   H32       1.0  0.4702356298425425  0.9315922577935831  0.19694681244243406  1.0000
  H   H33       1.0  0.4861833520019206  0.905277605936232  0.3693491821878694  1.0000
  H   H34       1.0  0.4452184946756417  0.0547679936218437  0.30628125958510877  1.0000
  Zn  Zn1       1.0  0.7503658151295034  0.4069857950444786  0.561228944362083  1.0000
  Zn  Zn2       1.0  0.9010878609122347  0.40419685487945833  0.5599739591631474  1.0000
  C   C42       1.0  0.8257149937014318  0.4004887708250646  0.7977865538277822  1.0000
  C   C43       1.0  0.8257403279470314  0.41069548730125893  0.32341646331269436  1.0000
  C   C44       1.0  0.8256884642184962  0.6427822023358687  0.5554064020807059  1.0000
  C   C45       1.0  0.8257668062477277  0.16840049646034672  0.565796684857782  1.0000
  O   O3        1.0  0.8829341901433784  0.41138258003887307  0.37132374934065404  1.0000
  O   O4        1.0  0.882915676964975  0.3976839571997992  0.748926389327452  1.0000
  O   O5        1.0  0.8828934829302731  0.593338982034338  0.5532027082159972  1.0000
  O   O6        1.0  0.8829563327512783  0.21572756541714821  0.5670473335092998  1.0000
  O   O7        1.0  0.7684972918564229  0.595455085459929  0.5541555704373642  1.0000
  O   O8        1.0  0.7685194856393271  0.39980162090863747  0.7498791821722424  1.0000
  O   O9        1.0  0.7685379989658653  0.41350019802455207  0.3722749808591004  1.0000
  O   O10       1.0  0.7685601415665303  0.21784517414315308  0.5679986623919895  1.0000
