data_image0
_chemical_formula_structural       NC12NC2H8C12SCH12C12SCH12Zn2C4O8
_chemical_formula_sum              "N2 C44 H32 S2 Zn2 O8"
_cell_length_a       19.240039667572717
_cell_length_b       10.299776766347529
_cell_length_c       10.299780138516091
_cell_angle_alpha    85.57845135651907
_cell_angle_beta     89.99202709574732
_cell_angle_gamma    89.97991714870845

_space_group_name_H-M_alt    "P 1"
_space_group_IT_number       1

loop_
  _space_group_symop_operation_xyz
  'x, y, z'

loop_
  _atom_site_type_symbol
  _atom_site_label
  _atom_site_symmetry_multiplicity
  _atom_site_fract_x
  _atom_site_fract_y
  _atom_site_fract_z
  _atom_site_occupancy
  N   N1        1.0  0.6543172154848209  0.42085402385586  0.5675960035722607  1.0000
  C   C1        1.0  0.594168846657889  0.42085410781306565  0.5675959216437945  1.0000
  C   C2        1.0  0.5193508095049527  0.4208542250587195  0.5675957843519688  1.0000
  C   C3        1.0  0.4828814839449364  0.3564188101070256  0.6709994421153389  1.0000
  C   C4        1.0  0.4102107501998055  0.35630795445228247  0.6710859740480231  1.0000
  C   C5        1.0  0.3730185745672232  0.420854317558627  0.5675955566857993  1.0000
  C   C6        1.0  0.4102020772722681  0.48540086770423096  0.4641053338664676  1.0000
  C   C7        1.0  0.4828727801259182  0.48528977658710604  0.46419198828049857  1.0000
  C   C8        1.0  0.2958134841494681  0.4208542388713732  0.5675954612698777  1.0000
  C   C9        1.0  0.2586438065810666  0.30760647313009626  0.6094575249127039  1.0000
  C   C10       1.0  0.1859731049452237  0.3077133464572217  0.6093662099687407  1.0000
  C   C11       1.0  0.149481197245969  0.42085410971705084  0.5675955221696891  1.0000
  C   C12       1.0  0.07466316009382488  0.4208539960455051  0.5675957708125507  1.0000
  N   N2        1.0  0.0145148432338508  0.4208539552811408  0.5675959792201355  1.0000
  C   C13       1.0  0.18593680039304109  0.5339949487887761  0.5258247814867971  1.0000
  C   C14       1.0  0.2586074833375345  0.5341020021890936  0.5257333039663408  1.0000
  H   H1        1.0  0.5105996969446868  0.3065317011843973  0.7517341059273572  1.0000
  H   H2        1.0  0.3831205575727266  0.3072192362762014  0.7529361428041719  1.0000
  H   H3        1.0  0.3831057391099326  0.5344896129181249  0.38225511426578684  1.0000
  H   H4        1.0  0.5105843385875063  0.5351767853260012  0.38345760024555586  1.0000
  H   H5        1.0  0.28575148738039174  0.21846081937634176  0.6406183839374602  1.0000
  H   H6        1.0  0.1582724228681828  0.21946715408746553  0.6415600436521438  1.0000
  H   H7        1.0  0.1582076590258118  0.6222411166260369  0.49363096235170256  1.0000
  H   H8        1.0  0.2856862813438995  0.6232477351060066  0.4945724001768128  1.0000
  C   C15       1.0  0.8344848997636218  0.03948886292835163  0.5675943800443113  1.0000
  C   C16       1.0  0.8386513640681014  0.02796616023791576  0.7041014555344185  1.0000
  C   C17       1.0  0.8406956281418807  0.9049888956055098  0.7732760355583856  1.0000
  C   C18       1.0  0.8385184642531194  0.7926783882167266  0.7041166451269356  1.0000
  C   C19       1.0  0.8343538562492927  0.8022091431818108  0.5676088202918534  1.0000
  C   C20       1.0  0.832359995439065  0.926053447518758  0.5001118204111403  1.0000
  C   C21       1.0  0.8450956178812445  0.8938630824289097  0.917685119211231  1.0000
  C   C22       1.0  0.8053125161890581  0.8004238472146662  0.991724117106727  1.0000
  C   C23       1.0  0.8094742954364688  0.7901876099079458  0.12762663374444694  1.0000
  C   C24       1.0  0.8532457549678764  0.8731125564880253  0.19129673458422414  1.0000
  C   C25       1.0  0.8931946160875717  0.9659783978118736  0.11863073291338089  1.0000
  C   C26       1.0  0.8891347514591674  0.9765645208887244  0.9827178017759786  1.0000
  S   S1        1.0  0.8586625337480253  0.8595175180353392  0.3656783610503018  1.0000
  C   C27       1.0  0.7888200678209941  0.9755849373390675  0.3852061117302876  1.0000
  H   H9        1.0  0.8329246311548903  0.3713330176690304  0.5155789877099974  1.0000
  H   H10       1.0  0.8393578898414721  0.11481239442980651  0.7570571417301646  1.0000
  H   H11       1.0  0.8410372156042988  0.6976797584029845  0.7568762044514352  1.0000
  H   H12       1.0  0.8291462205837988  0.9341742344168392  0.39480241592996257  1.0000
  H   H13       1.0  0.8327322519928122  0.47838702511148473  0.5155980934984432  1.0000
  H   H14       1.0  0.7703286372811224  0.73644629088179  0.9446123477341382  1.0000
  H   H15       1.0  0.7783962755052518  0.7181412860562715  0.183345352549098  1.0000
  H   H16       1.0  0.9274386664098755  0.030012284791811394  0.16733135756234774  1.0000
  H   H17       1.0  0.921089871895512  0.04824229848855288  0.928412054960774  1.0000
  H   H18       1.0  0.802737139202453  0.07190064583707056  0.33633089310555586  1.0000
  H   H19       1.0  0.780758793280449  0.9862944769928179  0.4904801316897336  1.0000
  H   H20       1.0  0.7399165345068592  0.9400403786453339  0.34308613537217847  1.0000
  C   C28       1.0  0.8344473216448747  0.4207377038374793  0.18624946800416553  1.0000
  C   C29       1.0  0.7683733214602789  0.3627267558626881  0.18974279996578192  1.0000
  C   C30       1.0  0.7348655843082083  0.33344641202625724  0.07436598457008126  1.0000
  C   C31       1.0  0.7683163817463676  0.36295219254974187  0.9544389077440552  1.0000
  C   C32       1.0  0.8343914187133207  0.4209603170703182  0.9489537374318182  1.0000
  C   C33       1.0  0.8670868560647007  0.44952902327241984  0.06538201085280892  1.0000
  C   C34       1.0  0.664963877455742  0.272090719007569  0.07912444636480309  1.0000
  C   C35       1.0  0.6134827163249514  0.3137512823960176  0.9881687677838329  1.0000
  C   C36       1.0  0.5477064701693298  0.2559732056512045  0.9928839397276579  1.0000
  C   C37       1.0  0.5324519518342086  0.15616441525503433  0.08844478448577742  1.0000
  C   C38       1.0  0.5833146888143262  0.1137049271929893  0.17899479760754256  1.0000
  C   C39       1.0  0.6491339633635078  0.17130957584491013  0.17464203029759062  1.0000
  S   S2        1.0  0.4480805172489645  0.08189399929141183  0.0940447783035987  1.0000
  C   C40       1.0  0.4124187956574897  0.1961080942234832  0.20277590227708364  1.0000
  H   H21       1.0  0.8596346838805572  0.44279500918961534  0.5123753571475382  1.0000
  H   H22       1.0  0.7424024566538984  0.3418046546170519  0.28229175532421835  1.0000
  H   H23       1.0  0.7431170057866392  0.3389510379618115  0.8653662489373994  1.0000
  H   H24       1.0  0.9180602963486283  0.4942812167066182  0.0619186818642119  1.0000
  H   H25       1.0  0.8595536266311476  0.4431224697236327  0.619405794608002  1.0000
  H   H26       1.0  0.62380424068228  0.39211829762747596  0.9144919925556141  1.0000
  H   H27       1.0  0.5085400595940877  0.28930614777131725  0.9225532725461543  1.0000
  H   H28       1.0  0.5719307657800985  0.03603387977437578  0.2527964507355345  1.0000
  H   H29       1.0  0.687926783863586  0.13592566626812408  0.24487184364420855  1.0000
  H   H30       1.0  0.4418095573075653  0.19007804673512996  0.2957898936752317  1.0000
  H   H31       1.0  0.35726753844206993  0.17097960518506494  0.22354778359417127  1.0000
  H   H32       1.0  0.41508805406677585  0.29682907820569526  0.15618651300659225  1.0000
  Zn  Zn1       1.0  0.7582624793745657  0.4208505390843802  0.5676034845753117  1.0000
  Zn  Zn2       1.0  0.9105695991586349  0.42084684977071807  0.5675990964499309  1.0000
  C   C41       1.0  0.834401317191037  0.4157446051166509  0.8047861787886339  1.0000
  C   C42       1.0  0.8344324242402537  0.42595442233870484  0.3304165296805037  1.0000
  C   C43       1.0  0.8343754095884549  0.658037270316358  0.5624311289243416  1.0000
  C   C44       1.0  0.8344582801341066  0.18366019687334778  0.5727716487523797  1.0000
  O   O1        1.0  0.8922271837115968  0.42769813496245424  0.3787986471836413  1.0000
  O   O2        1.0  0.8922041376847007  0.4139971125672972  0.7564003569517741  1.0000
  O   O3        1.0  0.8921824377005966  0.6096515043380142  0.560696939532147  1.0000
  O   O4        1.0  0.8922488317291396  0.23204375245470765  0.5745019672345617  1.0000
  O   O5        1.0  0.7765831948291163  0.6096536364030611  0.5607006137853476  1.0000
  O   O6        1.0  0.7766048945470048  0.41400080490066493  0.7564039619920582  1.0000
  O   O7        1.0  0.7766279407423567  0.4277017815846076  0.3788006908911392  1.0000
  O   O8        1.0  0.7766495887515161  0.2320473898165618  0.5745041083054336  1.0000
