data_image0
_chemical_formula_structural       NC12NC2H8C12ClH9C13NH13Zn2C4O8
_chemical_formula_sum              "N3 C43 H30 Cl1 Zn2 O8"
_cell_length_a       17.80743265337812
_cell_length_b       10.299768534541528
_cell_length_c       10.299780419254978
_cell_angle_alpha    85.5745780732884
_cell_angle_beta     91.52098048016336
_cell_angle_gamma    89.45366305101135

_space_group_name_H-M_alt    "P 1"
_space_group_IT_number       1

loop_
  _space_group_symop_operation_xyz
  'x, y, z'

loop_
  _atom_site_type_symbol
  _atom_site_label
  _atom_site_symmetry_multiplicity
  _atom_site_fract_x
  _atom_site_fract_y
  _atom_site_fract_z
  _atom_site_occupancy
  N   N1        1.0  0.707860523941908  0.40631225149143413  0.6014906609276944  1.0000
  C   C1        1.0  0.6570549097039932  0.4358532983023531  0.5327976534261063  1.0000
  C   C2        1.0  0.5938477093130059  0.4726002171460193  0.44735219945690585  1.0000
  C   C3        1.0  0.6056004740975417  0.5265881858728061  0.3207429847560124  1.0000
  C   C4        1.0  0.5443000447220603  0.5618321397338852  0.23769328822996316  1.0000
  C   C5        1.0  0.47109268007271216  0.5433514190757074  0.2805929582254034  1.0000
  C   C6        1.0  0.4583630605971174  0.4892447673790583  0.4076702808062964  1.0000
  C   C7        1.0  0.5205208087640635  0.45400406319781816  0.4907034668160406  1.0000
  C   C8        1.0  0.38058692010822737  0.4696506576977133  0.453430011797624  1.0000
  C   C9        1.0  0.3617901835328541  0.49686895560310096  0.5804681811890906  1.0000
  C   C10       1.0  0.2885528754818218  0.47842981804885576  0.623408413906237  1.0000
  C   C11       1.0  0.23316918395295072  0.4325183270814108  0.5401483813670889  1.0000
  C   C12       1.0  0.15779499568408034  0.4135267271182861  0.5844894270075462  1.0000
  N   N2        1.0  0.0971994859842655  0.39825875800592025  0.6201365773331498  1.0000
  C   C13       1.0  0.2512743292098206  0.4051312569398666  0.41365313960398975  1.0000
  C   C14       1.0  0.3244588165135637  0.4235851146381311  0.37045703609595537  1.0000
  H   H1        1.0  0.6620731136131911  0.5414029985247408  0.2863088691390985  1.0000
  H   H2        1.0  0.5535178932354551  0.6039037780151626  0.13992239485323665  1.0000
  H   H3        1.0  0.4244668475788284  0.572969865185271  0.21500771343570113  1.0000
  H   H4        1.0  0.5120011091743665  0.4105471017739726  0.5883498477726474  1.0000
  H   H5        1.0  0.40346519946067466  0.5340644725724397  0.6460393344223998  1.0000
  H   H6        1.0  0.2751013528359141  0.5003000726222475  0.7214125664854134  1.0000
  H   H7        1.0  0.2088826115626531  0.36920311155376173  0.3484949839813001  1.0000
  H   H8        1.0  0.3373816308400723  0.40017940908427296  0.2727561183472078  1.0000
  C   C15       1.0  0.9024627455836695  0.020921512573113477  0.610808256352771  1.0000
  C   C16       1.0  0.9074290067805181  0.03035531132602265  0.47458277275461613  1.0000
  C   C17       1.0  0.9100176729471219  0.9179946326325046  0.4055670841700152  1.0000
  C   C18       1.0  0.9075724878814383  0.7950646292805797  0.4746051335421826  1.0000
  C   C19       1.0  0.9026044593772796  0.7836393380336145  0.6108304704548875  1.0000
  C   C20       1.0  0.9000779627145672  0.8971241436156164  0.6781691955570293  1.0000
  C   C21       1.0  0.915272562163294  0.9290284524199498  0.26145192667186534  1.0000
  C   C22       1.0  0.8725436599127988  0.02343645986013443  0.18494484652648469  1.0000
  C   C23       1.0  0.8775566464000844  0.03362462773885544  0.049310754762211806  1.0000
  C   C24       1.0  0.9252262142947226  0.9499280572543111  0.9884884912575713  1.0000
  C   C25       1.0  0.9679430085217597  0.8558322216508106  0.06348383306427996  1.0000
  C   C26       1.0  0.963063431606451  0.8452490460857798  0.19913895662190795  1.0000
  Cl  Cl1       1.0  0.9314320444844444  0.9629584023153134  0.8183076972348169  1.0000
  H   H9        1.0  0.9005318094243775  0.34478131779057364  0.6627117724748071  1.0000
  H   H10       1.0  0.9103324920710746  0.1252963488091099  0.421991399352295  1.0000
  H   H11       1.0  0.9085154592872237  0.7082000188305976  0.4217063224612081  1.0000
  H   H12       1.0  0.896245959974554  0.8890782291636393  0.7832608488717923  1.0000
  H   H13       1.0  0.9007413192365473  0.4518314037129596  0.6627450340644951  1.0000
  H   H14       1.0  0.8345530274998381  0.08820820804011742  0.2298669808432614  1.0000
  H   H15       1.0  0.8442089627967815  0.10641634799715849  0.9916042419148328  1.0000
  H   H16       1.0  0.00509604572129807  0.7910308228781658  0.01683217678754989  1.0000
  H   H17       1.0  0.9973646212033239  0.772730592198238  0.25539689011680267  1.0000
  C   C27       1.0  0.9025847385017781  0.40219451575909626  0.2294676792175523  1.0000
  C   C28       1.0  0.9569949086200826  0.5000972755720687  0.22341388238518434  1.0000
  C   C29       1.0  0.9845070646648104  0.5498018612817062  0.10319968412888447  1.0000
  C   C30       1.0  0.9568917612934489  0.5002716402209821  0.9881087701730209  1.0000
  C   C31       1.0  0.9024824831892723  0.40236634263461646  0.992171056321415  1.0000
  C   C32       1.0  0.8756315829924967  0.3538794910348855  0.11331937002933978  1.0000
  C   C33       1.0  0.0420708853051055  0.6533719470596  0.09788698465255119  1.0000
  C   C34       1.0  0.037011846845273366  0.7580532784440328  0.001820526187927607  1.0000
  C   C35       1.0  0.09121656361059216  0.8554477509178764  0.9969069310242524  1.0000
  C   C36       1.0  0.15110069015095018  0.8505059878412324  0.08844924523611963  1.0000
  C   C37       1.0  0.1568798549905286  0.7455309258557901  0.1834934131775332  1.0000
  C   C38       1.0  0.10269066687386985  0.6481114334222204  0.18858052219513577  1.0000
  C   C39       1.0  0.21044402520700545  0.9534952652064665  0.08083793899674574  1.0000
  N   N3        1.0  0.2680286912110086  0.9196525060483192  0.9907171907776573  1.0000
  H   H18       1.0  0.8818824386876145  0.3648414864732712  0.5592327387939497  1.0000
  H   H19       1.0  0.9773664969606729  0.5391813793333602  0.3122601818972819  1.0000
  H   H20       1.0  0.978676966448579  0.5369756560018748  0.8953453438428269  1.0000
  H   H21       1.0  0.8336568643855935  0.27835091815322444  0.11722104651337628  1.0000
  H   H22       1.0  0.8817358036103425  0.365083225527177  0.6662629820593033  1.0000
  H   H23       1.0  0.9906809750395179  0.7653579859767285  0.9313001138506545  1.0000
  H   H24       1.0  0.08639271274379112  0.9349468794288303  0.9218382612394005  1.0000
  H   H25       1.0  0.20348981011364242  0.7388726985905136  0.25350067997289294  1.0000
  H   H26       1.0  0.10882368006946419  0.5675680765621456  0.26224598101608043  1.0000
  H   H27       1.0  0.18450354245333966  0.04905744503974496  0.046317014246021415  1.0000
  H   H28       1.0  0.23635371712401354  0.96426955577371  0.17893569641779838  1.0000
  H   H29       1.0  0.3059532931494411  0.9965587657584265  0.9825955049368496  1.0000
  H   H30       1.0  0.29815320644519705  0.8387267769293056  0.0329307278899762  1.0000
  Zn  Zn1       1.0  0.8202153398933918  0.40398472168879773  0.606878956121718  1.0000
  Zn  Zn2       1.0  0.984844664150238  0.40057569687482264  0.6147588744030339  1.0000
  C   C40       1.0  0.9024991535008547  0.3971603166742448  0.8480035846543095  1.0000
  C   C41       1.0  0.9025626485772207  0.40740170328979985  0.3736344594274257  1.0000
  C   C42       1.0  0.9025744932472671  0.6394683829575449  0.605651184852946  1.0000
  C   C43       1.0  0.9024872523551558  0.16509207790319436  0.615986925729894  1.0000
  O   O1        1.0  0.9650312045266546  0.4078499101754265  0.42500853560153207  1.0000
  O   O2        1.0  0.9649804452672142  0.3941237590403537  0.8026098102690655  1.0000
  O   O3        1.0  0.9650404406781963  0.5897906047119248  0.6069084924729933  1.0000
  O   O4        1.0  0.9649711529536193  0.2121830749352842  0.6207097533387191  1.0000
  O   O5        1.0  0.8400887949101026  0.5923773447930811  0.6009280744901724  1.0000
  O   O6        1.0  0.8400287997948653  0.396712059389561  0.7966293230892803  1.0000
  O   O7        1.0  0.8400795593052403  0.41043816491640506  0.41902648709258394  1.0000
  O   O8        1.0  0.8400195077143507  0.21477132040957914  0.6147278021927967  1.0000
