data_image0
_chemical_formula_structural       NC10NC3NH7C12NH11C12SCH12Zn2C4O8
_chemical_formula_sum              "N4 C42 H30 S1 Zn2 O8"
_cell_length_a       19.210446455230148
_cell_length_b       10.299770795358612
_cell_length_c       10.299780138516091
_cell_angle_alpha    85.57228714023374
_cell_angle_beta     89.98277112440113
_cell_angle_gamma    89.96457025778629

_space_group_name_H-M_alt    "P 1"
_space_group_IT_number       1

loop_
  _space_group_symop_operation_xyz
  'x, y, z'

loop_
  _atom_site_type_symbol
  _atom_site_label
  _atom_site_symmetry_multiplicity
  _atom_site_fract_x
  _atom_site_fract_y
  _atom_site_fract_z
  _atom_site_occupancy
  N   N1        1.0  0.6558048442121942  0.4197778214723382  0.5673290201798071  1.0000
  C   C1        1.0  0.5955764638651331  0.42198536014386057  0.5675600652035129  1.0000
  C   C2        1.0  0.5207722338332474  0.42472230379512643  0.567846301071963  1.0000
  C   C3        1.0  0.48517002537703496  0.5409548160179252  0.5829525085361251  1.0000
  C   C4        1.0  0.4125045607767958  0.5411063365147812  0.5828999074183336  1.0000
  C   C5        1.0  0.3756055322639134  0.4254312813470824  0.5679327504857123  1.0000
  C   C6        1.0  0.2982833024450196  0.4240747890191465  0.5677822223267499  1.0000
  C   C7        1.0  0.2605407301161693  0.527626648008986  0.5044192284337476  1.0000
  C   C8        1.0  0.1877622683333689  0.5262244124091711  0.5043102178991836  1.0000
  C   C9        1.0  0.1517249911304364  0.42152780950351953  0.5675131962128657  1.0000
  C   C10       1.0  0.0767953741928242  0.42022571393345154  0.5673764284038949  1.0000
  N   N2        1.0  0.0165574439756489  0.4191787848964186  0.5672665019615091  1.0000
  C   C11       1.0  0.1887439173317234  0.31810163416987436  0.6308511776313346  1.0000
  C   C12       1.0  0.2615242034810837  0.3192296199238054  0.6310104429835199  1.0000
  C   C13       1.0  0.4138177330766393  0.31101907005167084  0.553114617654026  1.0000
  N   N3        1.0  0.4845878666329401  0.31346404616857204  0.5532800704285854  1.0000
  H   H1        1.0  0.5132774842203995  0.6303900614924769  0.5949966169277847  1.0000
  H   H2        1.0  0.3852421770235063  0.6311238068462575  0.5963386464182214  1.0000
  H   H3        1.0  0.2872769092290064  0.6088650563903468  0.453427717812217  1.0000
  H   H4        1.0  0.1596246236736837  0.6066354830452214  0.4546490698533221  1.0000
  H   H5        1.0  0.1613681590263078  0.23672715716532577  0.6804128860773049  1.0000
  H   H6        1.0  0.2890169138564333  0.23893811419105204  0.6821092416743437  1.0000
  H   H7        1.0  0.3875458570256549  0.22013868176077045  0.5396296698775664  1.0000
  C   C14       1.0  0.8361213874518739  0.038109891370467386  0.5673373637438845  1.0000
  C   C15       1.0  0.8159272805880575  0.047281891839785706  0.4359363561600831  1.0000
  C   C16       1.0  0.8057586177269432  0.9347931432394192  0.369319324997778  1.0000
  C   C17       1.0  0.8160546951301585  0.8120000476585626  0.43586778430934703  1.0000
  C   C18       1.0  0.8362475422573968  0.8008367576218108  0.5672693426341027  1.0000
  C   C19       1.0  0.8461681466945593  0.9144464254103458  0.6322681760742863  1.0000
  C   C20       1.0  0.7843947294962442  0.9455499920504262  0.2303046855766917  1.0000
  C   C21       1.0  0.7337117311022938  0.036799389881974065  0.18512833572236387  1.0000
  C   C22       1.0  0.713633886880314  0.04679446082635552  0.05428669109824913  1.0000
  C   C23       1.0  0.74385906109074  0.9659596263887988  0.9665414166739108  1.0000
  C   C24       1.0  0.7943750865834572  0.8749083380485988  0.01082727661097449  1.0000
  C   C25       1.0  0.814508695381122  0.8646571403457258  0.14163893990070764  1.0000
  N   N4        1.0  0.7232923691604664  0.9763147282249244  0.8327154852133529  1.0000
  H   H8        1.0  0.8437866715707977  0.3620672468178969  0.6174243762564273  1.0000
  H   H9        1.0  0.8089819920234669  0.14218435216412884  0.38458762218397236  1.0000
  H   H10       1.0  0.8073620116845492  0.7249714256984813  0.3854594141776446  1.0000
  H   H11       1.0  0.8617464562822338  0.9066026072639972  0.7336382341984342  1.0000
  H   H12       1.0  0.8439722181914665  0.4691305314643404  0.617324724854303  1.0000
  H   H13       1.0  0.7089450175318465  0.09927014104344423  0.2513328868229483  1.0000
  H   H14       1.0  0.6743910363875432  0.11733157099637515  0.021383398339218207  1.0000
  H   H15       1.0  0.8182809811988183  0.8120932684392717  0.9439336325119299  1.0000
  H   H16       1.0  0.854285288551576  0.7946290125104556  0.1731026621668028  1.0000
  H   H17       1.0  0.7455274397954573  0.9164639790978417  0.7665749817843173  1.0000
  H   H18       1.0  0.6856788860560202  0.04390882724279588  0.7987887881228448  1.0000
  C   C26       1.0  0.8362124279714019  0.4193619699376201  0.185951263256668  1.0000
  C   C27       1.0  0.7700170516313944  0.36146041041936017  0.18946232045537958  1.0000
  C   C28       1.0  0.7364478083898924  0.3322355412902418  0.07409447900279575  1.0000
  C   C29       1.0  0.7699601002813665  0.3616859436665105  0.9541584137477579  1.0000
  C   C30       1.0  0.8361565140480937  0.419584677983021  0.9486555183237324  1.0000
  C   C31       1.0  0.8689119658347483  0.4480992542891853  0.06507503554588179  1.0000
  C   C32       1.0  0.6664176993425118  0.2709955737994465  0.07887169115412074  1.0000
  C   C33       1.0  0.6148712849211382  0.3127420899432487  0.9879204376885702  1.0000
  C   C34       1.0  0.5489741999409995  0.2550729084721266  0.9926532580776315  1.0000
  C   C35       1.0  0.5336624929935376  0.15528865291162997  0.08822753252364368  1.0000
  C   C36       1.0  0.5845892608434358  0.11274423379123322  0.17877331408851171  1.0000
  C   C37       1.0  0.6505293819744103  0.17023991417504347  0.1744029096117241  1.0000
  S   S1        1.0  0.4491360045846597  0.08115791600086197  0.09385018116827393  1.0000
  C   C38       1.0  0.4134578896481295  0.19543226247848833  0.2025751476179929  1.0000
  H   H19       1.0  0.8614460396669767  0.4413775760173879  0.5120704016492676  1.0000
  H   H20       1.0  0.7439991134108694  0.34058132075293246  0.28201803975930795  1.0000
  H   H21       1.0  0.7447138002779806  0.3377264921390071  0.8650927178131518  1.0000
  H   H22       1.0  0.9199790426406332  0.4927670589100759  0.06159803234800365  1.0000
  H   H23       1.0  0.861364968059248  0.4417051740651967  0.61910081778178  1.0000
  H   H24       1.0  0.625235161006693  0.3910925946264965  0.9142334049776726  1.0000
  H   H25       1.0  0.5097586980728611  0.28847125632727133  0.9223257804992113  1.0000
  H   H26       1.0  0.5731615841982903  0.03509146933380958  0.25258533371416303  1.0000
  H   H27       1.0  0.6893700259683789  0.1347912030088123  0.2446298197470087  1.0000
  H   H28       1.0  0.44289189685809327  0.18935329214593555  0.2955846943248077  1.0000
  H   H29       1.0  0.3582131826308864  0.17039527279704236  0.22335930716899544  1.0000
  H   H30       1.0  0.4161652551076442  0.2961496467054352  0.1559744123342255  1.0000
  Zn  Zn1       1.0  0.7599102498565031  0.41960149059698804  0.5673184778180351  1.0000
  Zn  Zn2       1.0  0.9124520198611529  0.41934453634334945  0.5672876805750566  1.0000
  C   C39       1.0  0.8361646674040085  0.4143689061313671  0.8044885215358968  1.0000
  C   C40       1.0  0.836199268326725  0.4245787566577137  0.33011776383569447  1.0000
  C   C41       1.0  0.8362204968702743  0.6566636323080524  0.5621072957895448  1.0000
  C   C42       1.0  0.836143386545455  0.1822824702883683  0.5724990589671872  1.0000
  O   O1        1.0  0.8940836576312566  0.4262263794027139  0.3784896715189765  1.0000
  O   O2        1.0  0.8940559518220665  0.41252528122298604  0.7560928657155404  1.0000
  O   O3        1.0  0.8941002543543272  0.6081813385544907  0.560368311075188  1.0000
  O   O4        1.0  0.8940393030554991  0.23057033142066952  0.5742141287986315  1.0000
  O   O5        1.0  0.778322914607138  0.6083756956087656  0.5603920295981393  1.0000
  O   O6        1.0  0.7782786123348627  0.4127211985590189  0.7561165148570295  1.0000
  O   O7        1.0  0.7783063182973402  0.4264222510268709  0.37851175933258996  1.0000
  O   O8        1.0  0.7782619637100607  0.23076619378446406  0.5742363139766209  1.0000
