data_image0
_chemical_formula_structural       NC10NC3NCH9C12NCOCH13C13NH13Zn2C4O8
_chemical_formula_sum              "N5 C45 H35 O9 Zn2"
_cell_length_a       19.437513618241372
_cell_length_b       10.299155265289647
_cell_length_c       10.299780419254978
_cell_angle_alpha    85.55647119552991
_cell_angle_beta     90.33405371402336
_cell_angle_gamma    89.500514822395

_space_group_name_H-M_alt    "P 1"
_space_group_IT_number       1

loop_
  _space_group_symop_operation_xyz
  'x, y, z'

loop_
  _atom_site_type_symbol
  _atom_site_label
  _atom_site_symmetry_multiplicity
  _atom_site_fract_x
  _atom_site_fract_y
  _atom_site_fract_z
  _atom_site_occupancy
  N   N1        1.0  0.6477355917742095  0.4102785146428356  0.5753895789924786  1.0000
  C   C1        1.0  0.5887990919877142  0.4272892741304799  0.5724101214269464  1.0000
  C   C2        1.0  0.5153546647511045  0.44854266443779056  0.5687118044190951  1.0000
  C   C3        1.0  0.473613492366546  0.34734379180658004  0.5570741804518149  1.0000
  C   C4        1.0  0.3977221066230739  0.35740813201982924  0.5498510111201929  1.0000
  C   C5        1.0  0.3581262738266526  0.4382725389166473  0.6155739711375174  1.0000
  C   C6        1.0  0.2819464567664987  0.4296623690993324  0.6071320076654325  1.0000
  C   C7        1.0  0.2488345623635776  0.30830994618995566  0.6118006225880326  1.0000
  C   C8        1.0  0.1771017294431862  0.30193663959091444  0.604634184126124  1.0000
  C   C9        1.0  0.1375102306742346  0.4164430931940133  0.5931614470967126  1.0000
  C   C10       1.0  0.06366300546403521  0.4097315573776332  0.5858269947835424  1.0000
  N   N2        1.0  0.004294934270044901  0.4043360727576528  0.5799305533875294  1.0000
  C   C11       1.0  0.1699055328736018  0.5374850354699812  0.5892381437181544  1.0000
  C   C12       1.0  0.24162271503647292  0.5441123602861777  0.5964665479336815  1.0000
  C   C13       1.0  0.38678482821407956  0.5305771677318485  0.7054710056311189  1.0000
  N   N3        1.0  0.44375901999256057  0.5937910929868919  0.6850543805964642  1.0000
  C   C14       1.0  0.48760991601079734  0.5845129260136241  0.5719532707260071  1.0000
  H   H1        1.0  0.496017041870205  0.2522792502032807  0.5449733700102957  1.0000
  H   H2        1.0  0.3730258589996002  0.2878827074880459  0.4915497630259311  1.0000
  H   H3        1.0  0.2783017232151341  0.21839350599957585  0.6228398625638338  1.0000
  H   H4        1.0  0.1525263628457926  0.2077044627427016  0.6085409366933514  1.0000
  H   H5        1.0  0.1397530479147877  0.6267468547185993  0.5805110964581597  1.0000
  H   H6        1.0  0.2657164800399747  0.6387573628937333  0.592544249730554  1.0000
  H   H7        1.0  0.35677141198518  0.5509762555878945  0.7898300215566549  1.0000
  H   H8        1.0  0.5303483067165089  0.6548310244097362  0.5777017137405835  1.0000
  H   H9        1.0  0.45794397085271177  0.6126106173812496  0.48130542693273726  1.0000
  C   C15       1.0  0.8260953892675822  0.025908470069808676  0.5777798056513361  1.0000
  C   C16       1.0  0.8143594081179751  0.035786829315328283  0.44271105996499727  1.0000
  C   C17       1.0  0.8083424001041505  0.9236587775056069  0.3741097934062416  1.0000
  C   C18       1.0  0.8141949411361233  0.800529761261294  0.4424011940312125  1.0000
  C   C19       1.0  0.8259417546428871  0.7886959981463514  0.5775516646688952  1.0000
  C   C20       1.0  0.8318227218180613  0.901903637397503  0.644408966678228  1.0000
  C   C21       1.0  0.7959279984605276  0.93508254395637  0.23122338075045712  1.0000
  C   C22       1.0  0.8308297465198449  0.028601314034929493  0.15025384377640272  1.0000
  C   C23       1.0  0.8191526377695542  0.03922085926839336  0.015788280446835223  1.0000
  C   C24       1.0  0.7727681121688416  0.9556444275886056  0.9594494232883464  1.0000
  C   C25       1.0  0.737025979100292  0.8639559403621916  0.0403401009547848  1.0000
  C   C26       1.0  0.748728150638194  0.8530799532098194  0.1747686496436176  1.0000
  N   N4        1.0  0.7588773368629613  0.9660992568592539  0.8217174811038577  1.0000
  C   C27       1.0  0.809125383943359  0.002185704161845825  0.7241439934003018  1.0000
  O   O1        1.0  0.8722386606268194  0.0036717384042475043  0.752804977600015  1.0000
  C   C28       1.0  0.7871937209372354  0.02898016151176175  0.5853308555613825  1.0000
  H   H10       1.0  0.830630905885408  0.3495846607883555  0.6297276006771102  1.0000
  H   H11       1.0  0.8089224246805075  0.13091587708250474  0.3908344468283176  1.0000
  H   H12       1.0  0.8105004261715819  0.7137854848471311  0.3897279971026195  1.0000
  H   H13       1.0  0.8408772455047491  0.8935693487152174  0.7485898969011895  1.0000
  H   H14       1.0  0.8485252407209859  0.5590701890198089  0.8325155427141264  1.0000
  H   H15       1.0  0.8675630881340135  0.09304262938663377  0.19081223061166996  1.0000
  H   H16       1.0  0.8455539637711593  0.11422882145745916  0.9565466923426951  1.0000
  H   H17       1.0  0.7002267177652628  0.8002196624351092  0.9989138766155614  1.0000
  H   H18       1.0  0.7201159760049576  0.7817252927941503  0.23481499214302604  1.0000
  H   H19       1.0  0.7104228893038077  0.9380342348527984  0.7900283000717945  1.0000
  H   H20       1.0  0.7375305423251499  0.08325295511118913  0.5802449185299778  1.0000
  H   H21       1.0  0.7808328235607952  0.935470723985916  0.5400277569494385  1.0000
  H   H22       1.0  0.8263671270269941  0.0884114358244692  0.5304368899811851  1.0000
  C   C29       1.0  0.8260654260219334  0.4072165553285447  0.19631221067412663  1.0000
  C   C30       1.0  0.8758578415406895  0.5054232642746079  0.188255414790077  1.0000
  C   C31       1.0  0.9010349848034236  0.5552815580446748  0.0670283482903038  1.0000
  C   C32       1.0  0.8757633144933041  0.5055970852127019  0.9529539839904895  1.0000
  C   C33       1.0  0.8259717168235416  0.4073878431022604  0.9590192376850037  1.0000
  C   C34       1.0  0.8013996986990493  0.35875097990572247  0.08115606788277074  1.0000
  C   C35       1.0  0.9537134053120471  0.6591732094058353  0.059596556883113605  1.0000
  C   C36       1.0  0.9490414408409401  0.7638365518782306  0.9636797494724179  1.0000
  C   C37       1.0  0.9986458912017968  0.8615338132571906  0.9567707631700548  1.0000
  C   C38       1.0  0.05348957020738587  0.856916404486664  0.046144802360553516  1.0000
  C   C39       1.0  0.05882113508304587  0.7519632107283833  0.14101332036553704  1.0000
  C   C40       1.0  0.009230915145763685  0.6542410113554771  0.14809526589602529  1.0000
  C   C41       1.0  0.10779788464835405  0.9602368467585445  0.03635011135127608  1.0000
  N   N5        1.0  0.16054645910411458  0.9267033609453645  0.9441537006838518  1.0000
  H   H23       1.0  0.8071201545487608  0.36974786845278973  0.5268394159779786  1.0000
  H   H24       1.0  0.8944996043879825  0.5446213881851301  0.2763509950757945  1.0000
  H   H25       1.0  0.8957005511246161  0.5424225734706152  0.8593893822210306  1.0000
  H   H26       1.0  0.7629873468308042  0.2829879253696075  0.08660295820557229  1.0000
  H   H27       1.0  0.806985776411839  0.3699888340087505  0.6338748947433785  1.0000
  H   H28       1.0  0.9066089452692554  0.7708906287749422  0.8948357586113529  1.0000
  H   H29       1.0  0.9941986692892986  0.941013955081708  0.8818513198456936  1.0000
  H   H30       1.0  0.10150897473056575  0.745557186158111  0.20933384540014943  1.0000
  H   H31       1.0  0.014877455078089685  0.5737236475659815  0.22156439734408417  1.0000
  H   H32       1.0  0.08400609636256906  0.05566695732958138  0.0027383960286473386  1.0000
  H   H33       1.0  0.13152195917360987  0.9711526393838992  0.13350558277034263  1.0000
  H   H34       1.0  0.19524920490511866  0.0038222595997638997  0.9346331114674973  1.0000
  H   H35       1.0  0.1881645424781324  0.8459337158510274  0.9853017162377165  1.0000
  Zn  Zn1       1.0  0.7506309212016011  0.40856016647644977  0.5767075158075072  1.0000
  Zn  Zn2       1.0  0.9013996118906897  0.4060437529373704  0.5786232892057936  1.0000
  C   C42       1.0  0.8259889180869648  0.40218143757113056  0.8148528359658587  1.0000
  C   C43       1.0  0.8260432610489621  0.4124240931398908  0.3404781169388402  1.0000
  C   C44       1.0  0.82596787044588  0.6445117874701873  0.5724197926442192  1.0000
  C   C45       1.0  0.8260642575490585  0.17009218369046275  0.5829112293092709  1.0000
  O   O2        1.0  0.8832517558018396  0.4132111583926492  0.3895885397681844  1.0000
  O   O3        1.0  0.8832103712603868  0.399483492784966  0.7671960672799063  1.0000
  O   O4        1.0  0.8831926035599452  0.5951683281907256  0.5714296593389987  1.0000
  O   O5        1.0  0.8832694720652348  0.21752633311464775  0.5853548496818495  1.0000
  O   O6        1.0  0.7687610095771019  0.5970775871593139  0.5699759546708607  1.0000
  O   O7        1.0  0.768778776968578  0.40139431216406596  0.7657422929023865  1.0000
  O   O8        1.0  0.7688201617567846  0.4151219321607642  0.3881332040670753  1.0000
  O   O9        1.0  0.768837878007272  0.2194370976151454  0.5838996113473922  1.0000
