data_image0
_chemical_formula_structural       NC12NC2H8C12SCH12C15H12Zn2C4O8
_chemical_formula_sum              "N2 C46 H32 S1 Zn2 O8"
_cell_length_a       17.80743265337812
_cell_length_b       10.299776766347529
_cell_length_c       10.299157797200024
_cell_angle_alpha    85.5458752322557
_cell_angle_beta     91.55653286904399
_cell_angle_gamma    89.41689066054833

_space_group_name_H-M_alt    "P 1"
_space_group_IT_number       1

loop_
  _space_group_symop_operation_xyz
  'x, y, z'

loop_
  _atom_site_type_symbol
  _atom_site_label
  _atom_site_symmetry_multiplicity
  _atom_site_fract_x
  _atom_site_fract_y
  _atom_site_fract_z
  _atom_site_occupancy
  N   N1        1.0  0.7068308508952358  0.40703351789743314  0.6013005237402718  1.0000
  C   C1        1.0  0.6559893495061281  0.4366097148095769  0.5325989351713281  1.0000
  C   C2        1.0  0.5927375094313653  0.47340035596538543  0.44714280740434487  1.0000
  C   C3        1.0  0.604424300785622  0.5274531071961055  0.3205177856116297  1.0000
  C   C4        1.0  0.543080658959698  0.562739554145228  0.23745772362901163  1.0000
  C   C5        1.0  0.4698957181724657  0.5442368815706844  0.28036275322465776  1.0000
  C   C6        1.0  0.4572322859812669  0.4900652084201891  0.40745593978836014  1.0000
  C   C7        1.0  0.5194332394037585  0.4547820195722738  0.4904994892660446  1.0000
  C   C8        1.0  0.37948002022166294  0.4704476841523173  0.4532213854205438  1.0000
  C   C9        1.0  0.3607192409197522  0.4976015515321348  0.5802738545278368  1.0000
  C   C10       1.0  0.2875043559908447  0.4791404417200935  0.623219450780194  1.0000
  C   C11       1.0  0.2321075285673174  0.4332709810124611  0.5399505846923327  1.0000
  C   C12       1.0  0.15675647668606363  0.41425669234853824  0.5842971678983035  1.0000
  N   N2        1.0  0.0961795670611259  0.3989704830813572  0.619948770046193  1.0000
  C   C13       1.0  0.2501769761484117  0.4059480640356521  0.41344110979436466  1.0000
  C   C14       1.0  0.3233389420699452  0.4244240242511379  0.3702396126159966  1.0000
  H   H1        1.0  0.6608789484980395  0.5422855397759301  0.28607936838983106  1.0000
  H   H2        1.0  0.5522474196310591  0.6048612218162737  0.13967461630719336  1.0000
  H   H3        1.0  0.4232350967924895  0.5738888974716321  0.21476928847030585  1.0000
  H   H4        1.0  0.5109650972107364  0.4112750823686455  0.5881580962092638  1.0000
  H   H5        1.0  0.4024042162839326  0.5347639750031592  0.6458519446832391  1.0000
  H   H6        1.0  0.2740802485393619  0.5009609972088338  0.7212346182029672  1.0000
  H   H7        1.0  0.20777497795289074  0.37005281096336984  0.34827604112818666  1.0000
  H   H8        1.0  0.3362350216572633  0.4010678527518179  0.27252774485029874  1.0000
  C   C15       1.0  0.9015796412276619  0.021635333347287178  0.6106265975185112  1.0000
  C   C16       1.0  0.9061253038144657  0.009940621190260623  0.7473656761630012  1.0000
  C   C17       1.0  0.9083562967178512  0.8868776928173046  0.8166543502469821  1.0000
  C   C18       1.0  0.9059816529910701  0.7746558153479123  0.7473739870381515  1.0000
  C   C19       1.0  0.9014379967061577  0.7843585386588549  0.6106342550642088  1.0000
  C   C20       1.0  0.8992620024313351  0.908286410758656  0.5430259708797236  1.0000
  C   C21       1.0  0.9131568155745143  0.8755700844872184  0.9613084705157735  1.0000
  C   C22       1.0  0.8701768192383169  0.7829786783403394  0.03329664374993979  1.0000
  C   C23       1.0  0.8747172315802814  0.7725708851798467  0.16943084881600257  1.0000
  C   C24       1.0  0.9220507396096553  0.8544792867257565  0.23537469998076854  1.0000
  C   C25       1.0  0.9652103328793364  0.9464927964740435  0.16476826862276472  1.0000
  C   C26       1.0  0.9607800799788101  0.957248200069938  0.028628924169195602  1.0000
  S   S1        1.0  0.9279595595529403  0.840662402859159  0.4100575825835693  1.0000
  C   C27       1.0  0.852470698872959  0.9582819699558905  0.42597175849545243  1.0000
  H   H9        1.0  0.8998770937839515  0.35354441942478654  0.5585242170830866  1.0000
  H   H10       1.0  0.9069053036994674  0.09674049253438399  0.8003642624682175  1.0000
  H   H11       1.0  0.9087204828883159  0.6795703694444745  0.8002702461666809  1.0000
  H   H12       1.0  0.8957557306828585  0.9165398850091604  0.4375376104317883  1.0000
  H   H13       1.0  0.8996691511100581  0.46060272222262494  0.5585333652383697  1.0000
  H   H14       1.0  0.8323471723523782  0.7198114068258659  0.98436805408211  1.0000
  H   H15       1.0  0.841141188692354  0.7011880965606364  0.22354723816393207  1.0000
  H   H16       1.0  0.002240765184572391  0.009732043051159156  0.21524760060202408  1.0000
  H   H17       1.0  0.9953046425482035  0.02824199361385271  0.9759710850063297  1.0000
  H   H18       1.0  0.867499050446775  0.054314340627913626  0.3778112243004311  1.0000
  H   H19       1.0  0.8437894120876971  0.969111232831246  0.530840994826389  1.0000
  H   H20       1.0  0.7995964054260538  0.9238564057939194  0.3813149050562882  1.0000
  C   C28       1.0  0.9014216821738302  0.40310499349062967  0.22923421654966014  1.0000
  C   C29       1.0  0.8231739857482706  0.38674624189213525  0.22566129394070455  1.0000
  C   C30       1.0  0.7836609751497966  0.378339557406981  0.10671509829026093  1.0000
  C   C31       1.0  0.8233972430332748  0.38653288884175985  0.9904046884728968  1.0000
  C   C32       1.0  0.9015959042592698  0.4028888612299617  0.9920265791981193  1.0000
  C   C33       1.0  0.9401514948903495  0.4110736432793791  0.11194975793894768  1.0000
  C   C34       1.0  0.7009356358967092  0.3610500495263673  0.1039840174503428  1.0000
  C   C35       1.0  0.6671474329387795  0.27477165470986487  0.021257014303204036  1.0000
  C   C36       1.0  0.5892994055205905  0.2585945516646999  0.018719212858567147  1.0000
  C   C37       1.0  0.5438531532135306  0.3277154864912959  0.0993738965174773  1.0000
  C   C38       1.0  0.5772391391936166  0.41484774905401434  0.1811049357934662  1.0000
  C   C39       1.0  0.6550864083493482  0.43102906611437675  0.18379065172711861  1.0000
  C   C40       1.0  0.4599883783192558  0.31263725775901907  0.09429384186009337  1.0000
  C   C41       1.0  0.4261835903313075  0.4071037725022548  0.9952655988294468  1.0000
  C   C42       1.0  0.3984010859341346  0.48478320992369794  0.913837688792881  1.0000
  H   H21       1.0  0.049170024853946837  0.4331853414728002  0.4433354364650086  1.0000
  H   H22       1.0  0.7929574387074333  0.37874722709870445  0.31575161587093037  1.0000
  H   H23       1.0  0.7930719546192295  0.38192291726758043  0.8983198279754263  1.0000
  H   H24       1.0  0.0004684896690483331  0.4236857185764924  0.11391650511464668  1.0000
  H   H25       1.0  0.9316768229726939  0.4091384159746163  0.6651781957020835  1.0000
  H   H26       1.0  0.701016281264193  0.21870524686979698  0.9595060531015425  1.0000
  H   H27       1.0  0.5644387261425802  0.19195439596681485  0.9539680869662455  1.0000
  H   H28       1.0  0.5429316179042969  0.4706140660235769  0.24248988124028537  1.0000
  H   H29       1.0  0.6793339337005686  0.49978912526521535  0.24687120901012127  1.0000
  H   H30       1.0  0.44501312758273137  0.21270823532684058  0.07012943925622839  1.0000
  H   H31       1.0  0.43607092281698623  0.3285773364014384  0.1903699034473223  1.0000
  H   H32       1.0  0.37403147942463677  0.5529826476912767  0.8423524170069161  1.0000
  Zn  Zn1       1.0  0.8191884856786323  0.4047032308403469  0.6066894922331652  1.0000
  Zn  Zn2       1.0  0.983821934171443  0.4012901737422858  0.6145703952561412  1.0000
  C   C43       1.0  0.9015622780963839  0.3977561229006201  0.8478423840032836  1.0000
  C   C44       1.0  0.9014499392705922  0.40823888298504896  0.3734177170372097  1.0000
  C   C45       1.0  0.9014597011993051  0.6401891700663491  0.6054570614709074  1.0000
  C   C46       1.0  0.9015524602954106  0.1658042766712402  0.6158031061083507  1.0000
  O   O1        1.0  0.963936959371347  0.40866096010961983  0.42479777850221345  1.0000
  O   O2        1.0  0.964028236139549  0.39474263480075833  0.8024433716984491  1.0000
  O   O3        1.0  0.9639445620793273  0.5905104034492408  0.6067154685332192  1.0000
  O   O4        1.0  0.9640205772293537  0.21289320194353767  0.6205255815966839  1.0000
  O   O5        1.0  0.8389897864394037  0.5931002038052202  0.6007343031964254  1.0000
  O   O6        1.0  0.8390734601905674  0.3973339954709425  0.7964621371266936  1.0000
  O   O7        1.0  0.8389821831240334  0.4112522759654704  0.4188149824200069  1.0000
  O   O8        1.0  0.839065801002937  0.21548450848311274  0.6145428828890405  1.0000
