data_image0
_chemical_formula_structural       NC12NC2H8C12OCH12C15H12Zn2C4O8
_chemical_formula_sum              "N2 C46 H32 O9 Zn2"
_cell_length_a       17.80743265337812
_cell_length_b       10.29979075500242
_cell_length_c       10.299157797200024
_cell_angle_alpha    85.53980185155037
_cell_angle_beta     91.55653286904399
_cell_angle_gamma    89.41792083348325

_space_group_name_H-M_alt    "P 1"
_space_group_IT_number       1

loop_
  _space_group_symop_operation_xyz
  'x, y, z'

loop_
  _atom_site_type_symbol
  _atom_site_label
  _atom_site_symmetry_multiplicity
  _atom_site_fract_x
  _atom_site_fract_y
  _atom_site_fract_z
  _atom_site_occupancy
  N   N1        1.0  0.7068430748140089  0.4070429717522859  0.6011515098714193  1.0000
  C   C1        1.0  0.656001830374735  0.4366193673868255  0.5324467889936342  1.0000
  C   C2        1.0  0.5927503099269059  0.47341025573886464  0.4469867648619188  1.0000
  C   C3        1.0  0.6044375708765436  0.527463370149891  0.3203560185363621  1.0000
  C   C4        1.0  0.5430942356095292  0.5627500541885668  0.2372922194928202  1.0000
  C   C5        1.0  0.4699091340761855  0.5442472572946104  0.2801992086400964  1.0000
  C   C6        1.0  0.4572452312564452  0.49007522016477223  0.407298132331235  1.0000
  C   C7        1.0  0.5194458781483325  0.454791794249195  0.4903454185247891  1.0000
  C   C8        1.0  0.37949279506520606  0.47045756408680117  0.4530656555849897  1.0000
  C   C9        1.0  0.360732251668599  0.49761161391338904  0.580115248923667  1.0000
  C   C10       1.0  0.2875172063546659  0.47915038006119515  0.623062800325892  1.0000
  C   C11       1.0  0.2321199804299267  0.4332806111567653  0.5397987921079497  1.0000
  C   C12       1.0  0.1567687633577821  0.41426619473588255  0.5841473890489748  1.0000
  N   N2        1.0  0.0961917209304783  0.39897988276069807  0.6198006101044122  1.0000
  C   C13       1.0  0.25018919063706124  0.40595751059734253  0.41329221088203383  1.0000
  C   C14       1.0  0.3233513170726365  0.4244335949527609  0.37008875698104493  1.0000
  H   H1        1.0  0.6608923474490405  0.542295902388795  0.2859160304648747  1.0000
  H   H2        1.0  0.5522613622223106  0.6048720048749971  0.1395046512163891  1.0000
  H   H3        1.0  0.4232487703047376  0.5738994724273816  0.21460260354718663  1.0000
  H   H4        1.0  0.5109773579790506  0.4112845647225596  0.5880086331315446  1.0000
  H   H5        1.0  0.40241754988965517  0.534774287078648  0.6456894033402065  1.0000
  H   H6        1.0  0.2740932884741452  0.500971082162196  0.7210756568119656  1.0000
  H   H7        1.0  0.20778688059349093  0.3700620163449404  0.3481309437532505  1.0000
  H   H8        1.0  0.3362471937479843  0.40107726652338016  0.27237936278362573  1.0000
  C   C15       1.0  0.901588516913402  0.021642197712656408  0.6105183997878656  1.0000
  C   C16       1.0  0.8798715067696397  0.010887060335284193  0.7409244146935805  1.0000
  C   C17       1.0  0.86880770704989  0.8883023097205791  0.8069661249091391  1.0000
  C   C18       1.0  0.8797365203708972  0.7756075819807042  0.7408521599353743  1.0000
  C   C19       1.0  0.9014534969518594  0.7843705055598799  0.6104452108494891  1.0000
  C   C20       1.0  0.9122596413239399  0.9078312242664875  0.5460092764656286  1.0000
  C   C21       1.0  0.8458369178427589  0.8779779918990542  0.9449298426043253  1.0000
  C   C22       1.0  0.7910308648801461  0.7882334497701946  0.9873730871776336  1.0000
  C   C23       1.0  0.7694789901520902  0.7787887891090326  0.11708794633109099  1.0000
  C   C24       1.0  0.8022475376645375  0.8584296879697615  0.20601108317079542  1.0000
  C   C25       1.0  0.8572540224867722  0.9487786116834137  0.16544926068680144  1.0000
  C   C26       1.0  0.8785728750594065  0.9578670659278916  0.03519650786960171  1.0000
  O   O1        1.0  0.8919996606524698  0.030734216020648075  0.2509871392241544  1.0000
  C   C27       1.0  0.8759240172912255  0.03200417254809307  0.38556163879321537  1.0000
  H   H9        1.0  0.9098965111913141  0.3531911567441033  0.5608509785672648  1.0000
  H   H10       1.0  0.8705142631490054  0.09809205223347184  0.7909081079440305  1.0000
  H   H11       1.0  0.872258836987265  0.6808469033912157  0.791865051911806  1.0000
  H   H12       1.0  0.9290139752969876  0.9153599499038827  0.4454065732904062  1.0000
  H   H13       1.0  0.9096912710484193  0.4602588943787623  0.5607367887861232  1.0000
  H   H14       1.0  0.7641445957981937  0.7265811063306539  0.9198716540716563  1.0000
  H   H15       1.0  0.7270568124305106  0.7096871563018579  0.14873689079317132  1.0000
  H   H16       1.0  0.7844665780123623  0.849018184148684  0.3058322374787742  1.0000
  H   H17       1.0  0.9216015672514053  0.02652947386028348  0.0050895656675559175  1.0000
  H   H18       1.0  0.8889132191974716  0.9351909240331231  0.4368095145547546  1.0000
  H   H19       1.0  0.9113854720893435  0.10589612907046986  0.42947710538564043  1.0000
  H   H20       1.0  0.8159535293958238  0.05815243296045969  0.3971255474005162  1.0000
  C   C28       1.0  0.9014338719626677  0.40311442094973615  0.22908561873672473  1.0000
  C   C29       1.0  0.8231860334167904  0.38675555943682793  0.22551442862442528  1.0000
  C   C30       1.0  0.7836729497833623  0.3783488184671815  0.10656912329575685  1.0000
  C   C31       1.0  0.8234092888482422  0.38654220495293456  0.9902578457520725  1.0000
  C   C32       1.0  0.90160809217041  0.4028982872368754  0.9918780042749757  1.0000
  C   C33       1.0  0.9401637539086166  0.4110831242798243  0.11180031619491837  1.0000
  C   C34       1.0  0.7009474603238032  0.3610591944184054  0.10383987352555168  1.0000
  C   C35       1.0  0.6671585078029978  0.27478021989757373  0.021122007813482613  1.0000
  C   C36       1.0  0.5893103398426034  0.258603008158492  0.018585919627755576  1.0000
  C   C37       1.0  0.5438646880391435  0.3277244074084842  0.0992332829365914  1.0000
  C   C38       1.0  0.5772514310002727  0.41485725541266705  0.1809550943474434  1.0000
  C   C39       1.0  0.6550988407348198  0.4310386811952607  0.1836390965758945  1.0000
  C   C40       1.0  0.4599997821493801  0.31264607736562455  0.0941548251602844  1.0000
  C   C41       1.0  0.4261958148604332  0.40711322682914775  0.9951165775201818  1.0000
  C   C42       1.0  0.39841398532076827  0.48479318617854594  0.913680440733255  1.0000
  H   H21       1.0  0.04918247597254366  0.4331949710416929  0.44318365295040185  1.0000
  H   H22       1.0  0.7929694168827207  0.3787564908980361  0.3156055977015926  1.0000
  H   H23       1.0  0.7930839603840365  0.381932202404367  0.8981734734801434  1.0000
  H   H24       1.0  0.00048085825754395906  0.42369528431744174  0.11376572767099846  1.0000
  H   H25       1.0  0.9316890651782403  0.40914788397227353  0.6650289589110314  1.0000
  H   H26       1.0  0.701026869038938  0.21871343534744514  0.9593769844038058  1.0000
  H   H27       1.0  0.5644490815133173  0.19196240470555948  0.9538418513550964  1.0000
  H   H28       1.0  0.5429443941933196  0.47062394707598076  0.2423341337838245  1.0000
  H   H29       1.0  0.6793469634544519  0.4997992023447726  0.24671237172787053  1.0000
  H   H30       1.0  0.4450236632570955  0.2127163835105823  0.07000100568045586  1.0000
  H   H31       1.0  0.43608246513011323  0.32858626310939454  0.1902291985910065  1.0000
  H   H32       1.0  0.3740449713091581  0.5529930821779843  0.8421879461896613  1.0000
  Zn  Zn1       1.0  0.8192006893525149  0.40471266903800607  0.6065407251566493  1.0000
  Zn  Zn2       1.0  0.9838341081936276  0.40129958900762275  0.6144219896442502  1.0000
  C   C43       1.0  0.9015744214157103  0.39776551442067754  0.8476943526700307  1.0000
  C   C44       1.0  0.9014621736612444  0.4082483449387464  0.3732685755124674  1.0000
  C   C45       1.0  0.9014739507100185  0.6402001904934722  0.6052833549239254  1.0000
  C   C46       1.0  0.9015625884811306  0.16581210970739568  0.6156796399624613  1.0000
  O   O2        1.0  0.9639491974288888  0.40867042489925276  0.4246485922767982  1.0000
  O   O3        1.0  0.9640403532785229  0.3947520060731966  0.8022956595129029  1.0000
  O   O4        1.0  0.9639583799946309  0.5905210900848492  0.6065470232860708  1.0000
  O   O5        1.0  0.9640311145106569  0.21290135137006994  0.6203971284317606  1.0000
  O   O6        1.0  0.8390036268541777  0.5931109078416912  0.6005655836728183  1.0000
  O   O7        1.0  0.8390855998425674  0.3973433841547269  0.7963141504994415  1.0000
  O   O8        1.0  0.8389944436942118  0.4112617581661482  0.4186655217576327  1.0000
  O   O9        1.0  0.8390763607967958  0.21549267532062766  0.6144141552881444  1.0000
