data_image0
_chemical_formula_structural       NC10NC5H10C12OCH12C12SCH12Zn2C4O8
_chemical_formula_sum              "N2 C45 H34 O9 S1 Zn2"
_cell_length_a       19.4436361288709
_cell_length_b       10.29979075500242
_cell_length_c       10.299780138516091
_cell_angle_alpha    85.57237843546018
_cell_angle_beta     89.6968932683751
_cell_angle_gamma    89.4004616021446

_space_group_name_H-M_alt    "P 1"
_space_group_IT_number       1

loop_
  _space_group_symop_operation_xyz
  'x, y, z'

loop_
  _atom_site_type_symbol
  _atom_site_label
  _atom_site_symmetry_multiplicity
  _atom_site_fract_x
  _atom_site_fract_y
  _atom_site_fract_z
  _atom_site_occupancy
  N   N1        1.0  0.6475190833814926  0.40889801581742136  0.562072231656209  1.0000
  C   C1        1.0  0.5886813260986538  0.4188013941830748  0.5764550404914182  1.0000
  C   C2        1.0  0.5153497693121551  0.4311522402543879  0.5944459013050112  1.0000
  C   C3        1.0  0.4731725325234661  0.39914544390662887  0.4997779263191189  1.0000
  C   C4        1.0  0.3972660529170621  0.40958424727780995  0.5051051835845564  1.0000
  C   C5        1.0  0.3575292877093477  0.3848478152817203  0.6121746051263066  1.0000
  C   C6        1.0  0.281408284315128  0.3887630420304522  0.5992155374768768  1.0000
  C   C7        1.0  0.2408343475238629  0.4464340191114522  0.6929790237367142  1.0000
  C   C8        1.0  0.16917050413580073  0.4500706376540997  0.6824353504804153  1.0000
  C   C9        1.0  0.1370859033961695  0.39564029997280126  0.578414728469062  1.0000
  C   C10       1.0  0.06329280750865152  0.3993381450295317  0.5677157761238076  1.0000
  N   N2        1.0  0.0039681635050116  0.4023110184314651  0.5591145277632514  1.0000
  C   C11       1.0  0.1769350610193503  0.3372622764174229  0.48503450184193575  1.0000
  C   C12       1.0  0.2486153463777143  0.33357140750914804  0.4953264111971969  1.0000
  C   C13       1.0  0.38566678078639716  0.3444011182773641  0.7432661308172197  1.0000
  C   C14       1.0  0.4443224442356625  0.3875277704526179  0.7905042027444564  1.0000
  C   C15       1.0  0.4885147305065057  0.4853775999608061  0.7161342446923609  1.0000
  H   H1        1.0  0.49527783040757395  0.37001895045671307  0.4094765131078284  1.0000
  H   H2        1.0  0.3725653562698088  0.4320689470196284  0.4119493994644179  1.0000
  H   H3        1.0  0.2646963033068688  0.4897332275955273  0.7738215252968113  1.0000
  H   H4        1.0  0.13881698225058714  0.49539272427676595  0.7553505987372182  1.0000
  H   H5        1.0  0.1526011847993586  0.2941587597522921  0.4045264582039447  1.0000
  H   H6        1.0  0.278303614536727  0.2860060169001861  0.42310759555411837  1.0000
  H   H7        1.0  0.3547109856571377  0.280191174452475  0.8075140573141337  1.0000
  H   H8        1.0  0.4594764935050475  0.3534710689014975  0.8884365375066283  1.0000
  H   H9        1.0  0.45839102305014523  0.5760887173105356  0.6908781881773822  1.0000
  H   H10       1.0  0.5317945585638043  0.5109701221885767  0.7792151494433073  1.0000
  C   C16       1.0  0.8258087189273585  0.02423557251990971  0.5606318128016776  1.0000
  C   C17       1.0  0.8058897506387405  0.013473766538980803  0.6922295491055737  1.0000
  C   C18       1.0  0.7957420800363725  0.890885391759219  0.7588784258996184  1.0000
  C   C19       1.0  0.8057661889865556  0.7781937385614183  0.6921647920863252  1.0000
  C   C20       1.0  0.8256851268110699  0.7869633300800963  0.5605661235602604  1.0000
  C   C21       1.0  0.8355964579182076  0.9104276275716179  0.49553715544181864  1.0000
  C   C22       1.0  0.7746731301069049  0.8805540370470352  0.898102663175093  1.0000
  C   C23       1.0  0.7244854397557599  0.7906276596672909  0.9435827305471327  1.0000
  C   C24       1.0  0.7047178500074242  0.7811765540553637  0.07448021853821851  1.0000
  C   C25       1.0  0.7346928834714284  0.8609919661666197  0.16157593984482266  1.0000
  C   C26       1.0  0.7850635421627777  0.9515245624651227  0.1179659801094951  1.0000
  C   C27       1.0  0.804617948257584  0.9606182750390931  0.9865435838188512  1.0000
  O   O1        1.0  0.8168495842753083  0.03366017234063179  0.20156708159448633  1.0000
  C   C28       1.0  0.8020941948953866  0.03494709145152175  0.3370198386291766  1.0000
  H   H11       1.0  0.8334287976504782  0.3557872094899106  0.5105084676673655  1.0000
  H   H12       1.0  0.7973089798571202  0.10067231362495921  0.7427273563435006  1.0000
  H   H13       1.0  0.7989058929449618  0.6834342814567949  0.7435873966324116  1.0000
  H   H14       1.0  0.8509636297107396  0.9179614999468999  0.3940150574717096  1.0000
  H   H15       1.0  0.8332409294892685  0.4628541089575546  0.5104056782706525  1.0000
  H   H16       1.0  0.6998896836717282  0.7288352722391185  0.8775801150625313  1.0000
  H   H17       1.0  0.6658708172468674  0.711933480160764  0.10847991410801461  1.0000
  H   H18       1.0  0.7183860411302495  0.8515710019465685  0.2623735360060717  1.0000
  H   H19       1.0  0.8440198194749734  0.029425294336345775  0.954052077427761  1.0000
  H   H20       1.0  0.8139715626909164  0.9382122283258006  0.3875417032766988  1.0000
  H   H21       1.0  0.8345473010950146  0.1089977886359792  0.37896306787319833  1.0000
  H   H22       1.0  0.7471870871738603  0.06087630495784868  0.35191030308393756  1.0000
  C   C29       1.0  0.8257745756096609  0.4054876514548609  0.17924665296158326  1.0000
  C   C30       1.0  0.7603877440396222  0.3486846121683691  0.18328869224755184  1.0000
  C   C31       1.0  0.7272284879583253  0.320016829216895  0.06819012499484667  1.0000
  C   C32       1.0  0.7603313986967828  0.34891109162167133  0.9479852435786675  1.0000
  C   C33       1.0  0.8257192562368495  0.4057112884753937  0.9419513577293679  1.0000
  C   C34       1.0  0.8580746604355124  0.4336822835770735  0.05810812853582936  1.0000
  C   C35       1.0  0.6580537579392159  0.25993901987123147  0.07352907937245456  1.0000
  C   C36       1.0  0.607108693563118  0.30254129922605033  0.9829916829101268  1.0000
  C   C37       1.0  0.5420165191566889  0.24596568769255556  0.9882530925357798  1.0000
  C   C38       1.0  0.5269199576780201  0.1464351892446838  0.08394981017805159  1.0000
  C   C39       1.0  0.5772530274618393  0.10304528900813348  0.17408670407431792  1.0000
  C   C40       1.0  0.6423877810810034  0.15944668442711118  0.16918736422355285  1.0000
  S   S1        1.0  0.4434259831958293  0.07370717880276989  0.09025048192930418  1.0000
  C   C41       1.0  0.408136304776602  0.18857418466768539  0.19926227589705547  1.0000
  H   H23       1.0  0.8506999892039852  0.4270845024900145  0.5051633812627674  1.0000
  H   H24       1.0  0.7346869908444315  0.3282373007653392  0.27605312105875335  1.0000
  H   H25       1.0  0.7353940808863201  0.3253705980402086  0.8591220510414805  1.0000
  H   H26       1.0  0.908517977694809  0.47750262391279796  0.05422149395883835  1.0000
  H   H27       1.0  0.8506197781312183  0.4274134475108444  0.6121944494530629  1.0000
  H   H28       1.0  0.6173234275227634  0.3807200888270663  0.9092218207340821  1.0000
  H   H29       1.0  0.5032579793121401  0.28001508992277735  0.9182404764367336  1.0000
  H   H30       1.0  0.5659869567586648  0.02558189998654825  0.24799009351270995  1.0000
  H   H31       1.0  0.6807766024261657  0.12335313286839544  0.23910241222784556  1.0000
  H   H32       1.0  0.4372211487939472  0.18200662727162253  0.29203558003900065  1.0000
  H   H33       1.0  0.3535588057703224  0.16445407986298632  0.2204896795007849  1.0000
  H   H34       1.0  0.41077858834136666  0.28924702975455396  0.15264025477760912  1.0000
  Zn  Zn1       1.0  0.7503825894658496  0.4069936814921258  0.5612262143141058  1.0000
  Zn  Zn2       1.0  0.9011046498801957  0.40420474820615393  0.5599712267338532  1.0000
  C   C42       1.0  0.8257290100611763  0.4004953606110957  0.7977842726445643  1.0000
  C   C43       1.0  0.8257598748902693  0.4107046772889478  0.32341328201885644  1.0000
  C   C44       1.0  0.8257053064386675  0.64279012069907  0.5554036609845359  1.0000
  C   C45       1.0  0.825783527329725  0.16840835787048336  0.5657939634770284  1.0000
  O   O2        1.0  0.8829531785454041  0.4113915074286303  0.37132065895022226  1.0000
  O   O3        1.0  0.8829302629753462  0.39769081480684876  0.7489240154327543  1.0000
  O   O4        1.0  0.8829103508428588  0.593346912476818  0.5531999629383488  1.0000
  O   O5        1.0  0.8829730392522199  0.21573541997200674  0.5670446145016348  1.0000
  O   O6        1.0  0.7685141486597835  0.595463010679411  0.5541528269677587  1.0000
  O   O7        1.0  0.7685340605412821  0.39980847329306957  0.7498768100854556  1.0000
  O   O8        1.0  0.7685569762776782  0.4135091202002501  0.372271892273617  1.0000
  O   O9        1.0  0.7685768369761239  0.21785302348341862  0.5679959451894576  1.0000
