data_image0
_chemical_formula_structural       NC10NC3NCH9C16H10C12SCH12Zn2C4O8
_chemical_formula_sum              "N3 C47 H31 S1 Zn2 O8"
_cell_length_a       19.437513618241372
_cell_length_b       10.29914801576943
_cell_length_c       10.299780138516091
_cell_angle_alpha    85.5534209466543
_cell_angle_beta     90.3395305496005
_cell_angle_gamma    89.53623586623313

_space_group_name_H-M_alt    "P 1"
_space_group_IT_number       1

loop_
  _space_group_symop_operation_xyz
  'x, y, z'

loop_
  _atom_site_type_symbol
  _atom_site_label
  _atom_site_symmetry_multiplicity
  _atom_site_fract_x
  _atom_site_fract_y
  _atom_site_fract_z
  _atom_site_occupancy
  N   N1        1.0  0.6481291807133356  0.41018753986684  0.5752290314777797  1.0000
  C   C1        1.0  0.5891981434615242  0.42719817460029463  0.572247570277103  1.0000
  C   C2        1.0  0.5157605423835359  0.4484514106986026  0.5685467497955952  1.0000
  C   C3        1.0  0.4739853945939558  0.347251269730106  0.5569211844094102  1.0000
  C   C4        1.0  0.3980969658465315  0.35731516225176674  0.5496968554357424  1.0000
  C   C5        1.0  0.3585311220837875  0.43818444605531903  0.6154099132747772  1.0000
  C   C6        1.0  0.2823480391978337  0.42957365808815196  0.6069690109760744  1.0000
  C   C7        1.0  0.24919634082385964  0.30822098945911525  0.6116519979259292  1.0000
  C   C8        1.0  0.1774610443208127  0.3018471624691028  0.6044863492875712  1.0000
  C   C9        1.0  0.1379067482298294  0.41635336400710665  0.593000084406923  1.0000
  C   C10       1.0  0.0640569393834781  0.4096412947197534  0.5856664628298436  1.0000
  N   N2        1.0  0.0046867911638145  0.40424538122323805  0.5797706892734793  1.0000
  C   C11       1.0  0.170341789481  0.5373956015888535  0.5890624423069115  1.0000
  C   C12       1.0  0.24206152215675542  0.5440234522223983  0.5962900262760102  1.0000
  C   C13       1.0  0.3872246570679917  0.5304956603150617  0.7052955744004998  1.0000
  N   N3        1.0  0.4442186778197978  0.5937084821283032  0.6848715477811853  1.0000
  C   C14       1.0  0.488060818833254  0.5844225277151633  0.5717720728218376  1.0000
  H   H1        1.0  0.496356969334967  0.2521854566545685  0.5448317071204756  1.0000
  H   H2        1.0  0.3733748439973835  0.2877854218185356  0.49140412949183454  1.0000
  H   H3        1.0  0.2786343903994657  0.21830488621772637  0.6227018510834339  1.0000
  H   H4        1.0  0.1528547834482973  0.2076148140899159  0.6084042606432114  1.0000
  H   H5        1.0  0.1402183162136573  0.626657239158072  0.5803248485874872  1.0000
  H   H6        1.0  0.2661863168604439  0.6386686272198705  0.5923565203910419  1.0000
  H   H7        1.0  0.3572222181362461  0.5509006194071484  0.7896517721224716  1.0000
  H   H8        1.0  0.53082269967128  0.6547413473318966  0.5775121479706427  1.0000
  H   H9        1.0  0.458399580803966  0.6125141431896963  0.4811213245533581  1.0000
  C   C15       1.0  0.8263622795427021  0.02581586815677439  0.5776648384789003  1.0000
  C   C16       1.0  0.810663078421419  0.0356386238470463  0.4439970085382987  1.0000
  C   C17       1.0  0.802753820393422  0.9234883196983611  0.37606062926623807  1.0000
  C   C18       1.0  0.8107549492654945  0.8003851634384102  0.44359360700250283  1.0000
  C   C19       1.0  0.8264602768459632  0.7886068874292884  0.5773462639877562  1.0000
  C   C20       1.0  0.8341684709209446  0.901839776861045  0.6435583353798553  1.0000
  C   C21       1.0  0.7861461287602002  0.9349252134188176  0.23465618773378338  1.0000
  C   C22       1.0  0.8187031138713607  0.853373474225004  0.14985710185576684  1.0000
  C   C23       1.0  0.8030484910714436  0.8642630617661243  0.016772385207807217  1.0000
  C   C24       1.0  0.7546761709259509  0.9566068665389265  0.9666805348372791  1.0000
  C   C25       1.0  0.7219938280800781  0.0381406477823103  0.05019414194901772  1.0000
  C   C26       1.0  0.7375993959216972  0.027493149383733373  0.18329917937145312  1.0000
  C   C27       1.0  0.738585112481736  0.9676935761225319  0.8296576939560398  1.0000
  C   C28       1.0  0.7251090244631886  0.976978589210658  0.7149030462233679  1.0000
  C   C29       1.0  0.7093286845475921  0.9878512145746352  0.5805265241786683  1.0000
  C   C30       1.0  0.695854858261751  0.9971348180175946  0.4657904121699352  1.0000
  H   H10       1.0  0.8323654812526908  0.3495128090324513  0.6290928542455443  1.0000
  H   H11       1.0  0.8054766795914263  0.13076572310997503  0.3920232452482695  1.0000
  H   H12       1.0  0.8037926869879748  0.7135934147113965  0.3920917823104133  1.0000
  H   H13       1.0  0.8462756553280696  0.8935473763211454  0.7466605936556028  1.0000
  H   H14       1.0  0.855677185049477  0.559076596515837  0.8299701948146336  1.0000
  H   H15       1.0  0.8569194355455121  0.7823420288896227  0.18619193647834886  1.0000
  H   H16       1.0  0.8287931926462655  0.8008929699353817  0.9529284007894878  1.0000
  H   H17       1.0  0.6843248324794048  0.10972693666230282  0.012496449106483176  1.0000
  H   H18       1.0  0.7110527292074614  0.09048657244868652  0.24633019813769352  1.0000
  H   H19       1.0  0.6840237540666517  0.005286605164290803  0.3650424318892651  1.0000
  C   C31       1.0  0.8264389210794773  0.4070996102579405  0.1961538174529509  1.0000
  C   C32       1.0  0.7610153194241347  0.35017346616328315  0.19883922159521927  1.0000
  C   C33       1.0  0.727837456563292  0.32144326528145606  0.08305262615718245  1.0000
  C   C34       1.0  0.760959022437611  0.35039986245340726  0.9635345134754059  1.0000
  C   C35       1.0  0.8263836495548798  0.4073231657362124  0.958857285282027  1.0000
  C   C36       1.0  0.8587572089360154  0.43535506547163494  0.07568540558378323  1.0000
  C   C37       1.0  0.6586238309560082  0.2612352209122035  0.08695634949462172  1.0000
  C   C38       1.0  0.6076753599429238  0.303748812998649  0.9953334423455074  1.0000
  C   C39       1.0  0.5425465728545243  0.24705064903710205  0.9992443396960056  1.0000
  C   C40       1.0  0.5274164086362786  0.14748453717570986  0.09465620169174982  1.0000
  C   C41       1.0  0.5777524665173333  0.10418215069606918  0.18586599273168058  1.0000
  C   C42       1.0  0.6429237953844118  0.16070616113267389  0.1823181179091411  1.0000
  S   S1        1.0  0.4438754249379209  0.07459931510854223  0.09922461826758755  1.0000
  C   C43       1.0  0.4086081921048128  0.18941198997345388  0.20745646072144175  1.0000
  H   H20       1.0  0.8513783350058809  0.4287433840627892  0.5225877126258069  1.0000
  H   H21       1.0  0.7353006596955107  0.32967792395107653  0.2910697985003985  1.0000
  H   H22       1.0  0.7360071357653167  0.3268122628149688  0.8741545416709902  1.0000
  H   H23       1.0  0.9092288925719457  0.4792703761509185  0.0728453608962325  1.0000
  H   H24       1.0  0.8512981946711848  0.4290722112397083  0.6296169857640832  1.0000
  H   H25       1.0  0.6179159788156822  0.3819526010899015  0.921752764940404  1.0000
  H   H26       1.0  0.5037859172831773  0.28103271510361205  0.9284053393239411  1.0000
  H   H27       1.0  0.5664603930066279  0.026691919346269355  0.2595578498235762  1.0000
  H   H28       1.0  0.6813140238360847  0.12467910629035228  0.25305244487871814  1.0000
  H   H29       1.0  0.4377001405698106  0.18289654205792294  0.30084366172576327  1.0000
  H   H30       1.0  0.3540067706624405  0.16519106949933082  0.22754385379944542  1.0000
  H   H31       1.0  0.411280550955667  0.2900979959716776  0.16085696963104534  1.0000
  Zn  Zn1       1.0  0.7510240095371419  0.40846927393580734  0.5765471658856924  1.0000
  Zn  Zn2       1.0  0.9017919664055357  0.40595297984867273  0.5784632287138038  1.0000
  C   C44       1.0  0.8263918906041705  0.4021068214995338  0.8146921174373027  1.0000
  C   C45       1.0  0.8264257319212195  0.4123170435997805  0.3403184248617708  1.0000
  C   C46       1.0  0.8264385927692472  0.6444217006529795  0.5722314758359197  1.0000
  C   C47       1.0  0.8263789781040726  0.17000060489342572  0.5827791356966032  1.0000
  O   O1        1.0  0.8836369586889655  0.41310747518807656  0.3894285222924021  1.0000
  O   O2        1.0  0.8836100544676888  0.3994056010089515  0.7670358939385962  1.0000
  O   O3        1.0  0.8836469956643682  0.5950779436838254  0.571247200029871  1.0000
  O   O4        1.0  0.8835999660536461  0.21743514263429664  0.5852171181731465  1.0000
  O   O5        1.0  0.7692159584393277  0.596987112010283  0.5697932757656605  1.0000
  O   O6        1.0  0.7691790174450148  0.40131632974841835  0.7655818997802466  1.0000
  O   O7        1.0  0.7692059218193958  0.4150181582094401  0.3879729668232501  1.0000
  O   O8        1.0  0.7691689291730128  0.219345816394666  0.583761660071286  1.0000
