data_image0
_chemical_formula_structural       NC10NC3NH7C12NH11C12ClH9Zn2C4O8
_chemical_formula_sum              "N4 C41 H27 Cl1 Zn2 O8"
_cell_length_a       19.210446455230148
_cell_length_b       10.299770795358612
_cell_length_c       10.299771906710086
_cell_angle_alpha    85.53968522419491
_cell_angle_beta     89.99986541556282
_cell_angle_gamma    89.96457025778629

_space_group_name_H-M_alt    "P 1"
_space_group_IT_number       1

loop_
  _space_group_symop_operation_xyz
  'x, y, z'

loop_
  _atom_site_type_symbol
  _atom_site_label
  _atom_site_symmetry_multiplicity
  _atom_site_fract_x
  _atom_site_fract_y
  _atom_site_fract_z
  _atom_site_occupancy
  N   N1        1.0  0.655575399072749  0.4205957649550056  0.5672645617132659  1.0000
  C   C1        1.0  0.5953470557280133  0.42280317171782444  0.5674956171321066  1.0000
  C   C2        1.0  0.5205428715373778  0.42553995195071526  0.5677818658788274  1.0000
  C   C3        1.0  0.4849430823706791  0.5417638397062658  0.5828887529986695  1.0000
  C   C4        1.0  0.412277609346265  0.5419153902342604  0.5828361495142582  1.0000
  C   C5        1.0  0.3753761838130912  0.42624888014679296  0.5678683191820932  1.0000
  C   C6        1.0  0.29805392988681  0.42489247375870565  0.5677177842505956  1.0000
  C   C7        1.0  0.2603012098470238  0.5284805080802344  0.5043519395415446  1.0000
  C   C8        1.0  0.187522730605967  0.5270783347169397  0.5042429241023989  1.0000
  C   C9        1.0  0.1514955754871535  0.4223456478360246  0.5674487460327384  1.0000
  C   C10       1.0  0.0765659366459015  0.4210436303497169  0.5673119720703359  1.0000
  N   N2        1.0  0.0163279888237854  0.41999676407211606  0.5672020406821601  1.0000
  C   C11       1.0  0.1885246453935783  0.31888331145086357  0.6307895771418996  1.0000
  C   C12       1.0  0.261304957049605  0.3200112062766898  0.630948849659722  1.0000
  C   C13       1.0  0.4135860114720353  0.311845128850464  0.5530495196557277  1.0000
  N   N3        1.0  0.4843561715259307  0.31429001050672434  0.5532149798743073  1.0000
  H   H1        1.0  0.5130524701022309  0.6311922089335129  0.5949334032766158  1.0000
  H   H2        1.0  0.3850173778340603  0.6319251880930372  0.5962754931473941  1.0000
  H   H3        1.0  0.287029222566858  0.6097480286404358  0.45335813471944264  1.0000
  H   H4        1.0  0.1593771326135217  0.6075177579984739  0.45457954171139137  1.0000
  H   H5        1.0  0.1611568244954709  0.23748053857309293  0.6803535154590481  1.0000
  H   H6        1.0  0.2888058510003577  0.2396905271119687  0.6820499473782022  1.0000
  H   H7        1.0  0.3873119757795377  0.22097243941387346  0.5395639651670028  1.0000
  C   C14       1.0  0.8358919436486676  0.03892783008960965  0.5672729056527357  1.0000
  C   C15       1.0  0.815676792649154  0.04817485029429114  0.4358659860992149  1.0000
  C   C16       1.0  0.8054974609364893  0.9357241348273108  0.3692459577158207  1.0000
  C   C17       1.0  0.8158041962093352  0.8128930452622511  0.4357974111633065  1.0000
  C   C18       1.0  0.8360180875604727  0.8016547351757056  0.5672048814825603  1.0000
  C   C19       1.0  0.8459491016915656  0.915227293695649  0.6322066393381818  1.0000
  C   C20       1.0  0.7841113092316389  0.9465603501641365  0.2302250637739056  1.0000
  C   C21       1.0  0.7334210757543803  0.03783554017089741  0.1850466813536389  1.0000
  C   C22       1.0  0.713322276979807  0.04790531149798327  0.05419914992655883  1.0000
  C   C23       1.0  0.7435333986080214  0.9671205727742092  0.966449927683136  1.0000
  C   C24       1.0  0.7940565165702951  0.876044000659144  0.010737780121382379  1.0000
  C   C25       1.0  0.8142110751189824  0.8657181196905723  0.14155532886516609  1.0000
  N   N4        1.0  0.722945274185614  0.9775520787882598  0.832617975151134  1.0000
  H   H8        1.0  0.8435652493034023  0.362856589756132  0.6173621716708395  1.0000
  H   H9        1.0  0.8087232804815218  0.14310662674417252  0.38451494185040525  1.0000
  H   H10       1.0  0.8071034397618456  0.7258932025532345  0.3853867730675806  1.0000
  H   H11       1.0  0.861543645897969  0.907325601145793  0.7335812582851509  1.0000
  H   H12       1.0  0.8437507799646986  0.4699199312957602  0.6172625157852176  1.0000
  H   H13       1.0  0.7086649649759719  0.10026849369295232  0.25125421111708546  1.0000
  H   H14       1.0  0.674074156958511  0.11846120688404316  0.02129437678869328  1.0000
  H   H15       1.0  0.8179516980339874  0.8132671221076337  0.943841126355931  1.0000
  H   H16       1.0  0.853992707267851  0.7956720285218287  0.1730204667412074  1.0000
  H   H17       1.0  0.7451697522859294  0.9177390907343628  0.7664744959408569  1.0000
  H   H18       1.0  0.6853263576523804  0.04516554730629152  0.798689751636974  1.0000
  C   C26       1.0  0.8359219044169884  0.4203976503990514  0.18586964591294564  1.0000
  C   C27       1.0  0.8990713289649681  0.48917580983842135  0.17952487358128066  1.0000
  C   C28       1.0  0.931103582883007  0.5239180462709132  0.05917959270798079  1.0000
  C   C29       1.0  0.8991384416793469  0.4889605360291478  0.9442551048459196  1.0000
  C   C30       1.0  0.8359881225593606  0.420184937967399  0.9486082211438918  1.0000
  C   C31       1.0  0.8047338131421993  0.38628780757944603  0.06988341946712873  1.0000
  C   C32       1.0  0.9979108704530648  0.5966782072988097  0.05352110014143463  1.0000
  C   C33       1.0  0.008929487637963307  0.69966513568101  0.13331211552876554  1.0000
  C   C34       1.0  0.0718414207405298  0.7680480703723707  0.1277988435173223  1.0000
  C   C35       1.0  0.12444865046354692  0.7344898844207177  0.0428046418139747  1.0000
  C   C36       1.0  0.11409471429991291  0.6323613200579161  0.963142229836905  1.0000
  C   C37       1.0  0.051245141172135744  0.5637779598122794  0.9682798776573867  1.0000
  Cl  Cl1       1.0  0.20333946448871498  0.8204092173609379  0.03612369849246866  1.0000
  H   H19       1.0  0.8118404560165727  0.39424706361250395  0.5157362582517488  1.0000
  H   H20       1.0  0.9239805103483485  0.514333988169962  0.2684991167657047  1.0000
  H   H21       1.0  0.9231311762356256  0.5170618169458052  0.8511388735237717  1.0000
  H   H22       1.0  0.7560165160979547  0.3332297441477925  0.0740099167431767  1.0000
  H   H23       1.0  0.8119382044541834  0.3939323293826693  0.6228170845670866  1.0000
  H   H24       1.0  0.9685801947425502  0.7283852870280958  0.19869049276687578  1.0000
  H   H25       1.0  0.07955142717828334  0.8473092984145747  0.18942406231497588  1.0000
  H   H26       1.0  0.15476202721481513  0.6057877896777797  0.8974200310956766  1.0000
  H   H27       1.0  0.04469042090400355  0.48397453518726374  0.9068740418211907  1.0000
  Zn  Zn1       1.0  0.7596808030286776  0.4204194400985217  0.5672540188771742  1.0000
  Zn  Zn2       1.0  0.9122225681010868  0.4201625034277092  0.5672232202485719  1.0000
  C   C38       1.0  0.8359732038357865  0.41505145002039434  0.8044347333055777  1.0000
  C   C39       1.0  0.8359318333273912  0.4255321292820853  0.3300426328043802  1.0000
  C   C40       1.0  0.835990215461164  0.657484556988422  0.56204260238815  1.0000
  C   C41       1.0  0.8359147693981219  0.18309746208178423  0.5724348331100706  1.0000
  O   O1        1.0  0.8938239694902457  0.42715213543737907  0.37841671682754585  1.0000
  O   O2        1.0  0.8938567375922101  0.4132354552600557  0.7560369000768661  1.0000
  O   O3        1.0  0.8938696944433164  0.6090032560596146  0.5603035394337161  1.0000
  O   O4        1.0  0.8938109605800495  0.23138434404286556  0.5741499801056182  1.0000
  O   O5        1.0  0.7780923584946963  0.609197599572461  0.5603272590238069  1.0000
  O   O6        1.0  0.7780794018924637  0.4134313590942713  0.7560605502823732  1.0000
  O   O7        1.0  0.7780466336937369  0.4273479944511158  0.3784388056349297  1.0000
  O   O8        1.0  0.7780336247876123  0.23158019374065253  0.5741721662817589  1.0000
