data_image0
_chemical_formula_structural       NC8NC6H8C12OCH12C13NH13Zn2C4O8
_chemical_formula_sum              "N3 C44 H33 O9 Zn2"
_cell_length_a       17.457602349358154
_cell_length_b       10.29979075500242
_cell_length_c       10.299780419254978
_cell_angle_alpha    85.56841767701755
_cell_angle_beta     92.86230706440833
_cell_angle_gamma    91.67079993281202

_space_group_name_H-M_alt    "P 1"
_space_group_IT_number       1

loop_
  _space_group_symop_operation_xyz
  'x, y, z'

loop_
  _atom_site_type_symbol
  _atom_site_label
  _atom_site_symmetry_multiplicity
  _atom_site_fract_x
  _atom_site_fract_y
  _atom_site_fract_z
  _atom_site_occupancy
  N   N1        1.0  0.7223505030493705  0.45251327643391326  0.6264245542984836  1.0000
  C   C1        1.0  0.6612823269256219  0.40658656260383164  0.615814041444412  1.0000
  C   C2        1.0  0.5853109304542585  0.3494594469284702  0.6026241043635732  1.0000
  C   C3        1.0  0.5267647802374202  0.3896366802230793  0.6775140182723138  1.0000
  C   C4        1.0  0.45223099939144906  0.33462792309180833  0.6649382727771582  1.0000
  C   C5        1.0  0.3900929415393903  0.3770492152911946  0.7442495449929085  1.0000
  C   C6        1.0  0.3155505785802127  0.39550534740401244  0.6884868740480505  1.0000
  C   C7        1.0  0.2570044439816674  0.43549868149295556  0.7634847551546011  1.0000
  C   C8        1.0  0.1810241196891525  0.45456018136087595  0.7055066696364805  1.0000
  N   N2        1.0  0.1199488565979215  0.46987924769819234  0.6588924405721746  1.0000
  C   C9        1.0  0.2725083960168234  0.4572791298566323  0.8947537751045054  1.0000
  C   C10       1.0  0.3462659315427392  0.43921206093624887  0.950903985473567  1.0000
  C   C11       1.0  0.4048003659636035  0.3993988762517089  0.8763637849061885  1.0000
  C   C12       1.0  0.4375323333713853  0.23876421748686893  0.5760398329401557  1.0000
  C   C13       1.0  0.4960666602609222  0.19886574522324385  0.5015498743215705  1.0000
  C   C14       1.0  0.5698155797900268  0.2539869939661361  0.5146755312504849  1.0000
  H   H1        1.0  0.5390860981126364  0.4648440263740732  0.7441337895368272  1.0000
  H   H2        1.0  0.3032222611371909  0.38051345161322647  0.5864689107595229  1.0000
  H   H3        1.0  0.2276337806128037  0.4881739908655558  0.9535835796507712  1.0000
  H   H4        1.0  0.3580803074985244  0.45576151075941196  0.052548547325175665  1.0000
  H   H5        1.0  0.4612823740204178  0.3844172046358494  0.92246951538394  1.0000
  H   H6        1.0  0.3810573336182778  0.19342715407493216  0.5653931447128839  1.0000
  H   H7        1.0  0.4842591145125774  0.12477458483019621  0.4337317263340079  1.0000
  H   H8        1.0  0.6146903263063376  0.222222559308356  0.45635691553628344  1.0000
  C   C15       1.0  0.9212222855013339  0.07983166921110452  0.6427033761430323  1.0000
  C   C16       1.0  0.8989964522570089  0.067721902622774  0.7723215741350129  1.0000
  C   C17       1.0  0.8876735769063423  0.9444468407654696  0.8379619795864075  1.0000
  C   C18       1.0  0.8988586300662902  0.832433576178126  0.7722445369427231  1.0000
  C   C19       1.0  0.9210844293819934  0.8425511263239666  0.6426254037002024  1.0000
  C   C20       1.0  0.9321435908938276  0.966686113079672  0.578581419653778  1.0000
  C   C21       1.0  0.864164578179037  0.9326897015678942  0.9750923939020855  1.0000
  C   C22       1.0  0.8081805813372718  0.8393875410563079  0.015584612999203551  1.0000
  C   C23       1.0  0.7861236413297849  0.8285986974408721  0.14451760683930248  1.0000
  C   C24       1.0  0.8195541575222658  0.9104221265667571  0.23459245073298463  1.0000
  C   C25       1.0  0.8757421399476909  0.004342666939099127  0.19598852492835817  1.0000
  C   C26       1.0  0.8975613154644019  0.014759829635787147  0.0665094352199681  1.0000
  O   O1        1.0  0.9111929268809229  0.08860824100943132  0.282748732688165  1.0000
  C   C27       1.0  0.8947265487654441  0.08889390581532508  0.41673513450127597  1.0000
  H   H9        1.0  0.9297248520391388  0.41189895797191234  0.5933373112496434  1.0000
  H   H10       1.0  0.8894222686832985  0.15434021432423695  0.8219666234334548  1.0000
  H   H11       1.0  0.8912034839386899  0.7372094300398759  0.822985372924429  1.0000
  H   H12       1.0  0.9492904726421615  0.9752599156828268  0.4785865044634827  1.0000
  H   H13       1.0  0.9295153018181561  0.5189532404234181  0.5932158505751122  1.0000
  H   H14       1.0  0.7807491520430208  0.7759471005211153  0.9471375082367797  1.0000
  H   H15       1.0  0.7427901315614089  0.756742735346245  0.17465653197038578  1.0000
  H   H16       1.0  0.8013591686755699  0.8998981399885725  0.33376947479379626  1.0000
  H   H17       1.0  0.9415136305759916  0.08621691302668055  0.03793384280596612  1.0000
  H   H18       1.0  0.9079722255708386  0.9929535545339037  0.46843746488088445  1.0000
  H   H19       1.0  0.9309237444428569  0.16512238185582406  0.46190373421390984  1.0000
  H   H20       1.0  0.8334800333165304  0.11113239507891626  0.4261686900610686  1.0000
  C   C28       1.0  0.9212056019146656  0.4611088203598084  0.2613145328100863  1.0000
  C   C29       1.0  0.9767333309801413  0.5625629547444275  0.25717870259697695  1.0000
  C   C30       1.0  0.004810499237646093  0.6140632683827019  0.1379342842646989  1.0000
  C   C31       1.0  0.9766279316887614  0.562730583320737  0.021869904769202808  1.0000
  C   C32       1.0  0.921101114493892  0.4612739694263319  0.024014256313472426  1.0000
  C   C33       1.0  0.8936987736249616  0.41103455006451295  0.14421609561514637  1.0000
  C   C34       1.0  0.06355665596488436  0.7213905688933857  0.13465071905044423  1.0000
  C   C35       1.0  0.058351549630440536  0.8257405556739119  0.03839023214052584  1.0000
  C   C36       1.0  0.11366965678306107  0.9266729940806022  0.035387380455426554  1.0000
  C   C37       1.0  0.1748255284277671  0.9256410211347224  0.12905616525471975  1.0000
  C   C38       1.0  0.18076614110731204  0.8210443226150219  0.22431996547420496  1.0000
  C   C39       1.0  0.1254639011768406  0.7200878783401765  0.2274968857064561  1.0000
  C   C40       1.0  0.23538915148367767  0.03250370075104003  0.12353724326095938  1.0000
  N   N3        1.0  0.29420750775551663  0.0024208928689009035  0.035465325431590644  1.0000
  H   H21       1.0  0.9000781246798886  0.42240454432743024  0.5903498473556248  1.0000
  H   H22       1.0  0.9975224422395  0.602976696290006  0.34674276861940156  1.0000
  H   H23       1.0  0.9988615190234387  0.6008565535357662  0.9298747543757724  1.0000
  H   H24       1.0  0.8508619148710982  0.332766269750022  0.14663815720927276  1.0000
  H   H25       1.0  0.8999282904658277  0.4226367073872703  0.6973748519667904  1.0000
  H   H26       1.0  0.011035470130993152  0.8300203201573393  0.9662241416954358  1.0000
  H   H27       1.0  0.10871405560354885  0.00585638510500619  0.9601365048953445  1.0000
  H   H28       1.0  0.22836698269383526  0.8174292528392684  0.295982728198003  1.0000
  H   H29       1.0  0.13175681392175065  0.6399457425742909  0.30139116748279093  1.0000
  H   H30       1.0  0.20886316367334756  0.12637131053440553  0.08808229082353947  1.0000
  H   H31       1.0  0.26184429731940706  0.04496948659315336  0.22255326618999494  1.0000
  H   H32       1.0  0.3329078518581854  0.08180242045793129  0.0286792918890455  1.0000
  H   H33       1.0  0.3250008325570588  0.9234627561961681  0.07875939745925664  1.0000
  Zn  Zn1       1.0  0.8370887989207254  0.457521239574767  0.6358015833822062  1.0000
  Zn  Zn2       1.0  0.005210546944569128  0.4648606391568091  0.6495260445730946  1.0000
  C   C41       1.0  0.9211200671773105  0.45606908395978074  0.8798480945883991  1.0000
  C   C42       1.0  0.9211811142585629  0.4663145135470361  0.4054798105302626  1.0000
  C   C43       1.0  0.9211072282707357  0.6983796434128908  0.6374649427406212  1.0000
  C   C44       1.0  0.9211938960695075  0.224002391319021  0.6478630270894308  1.0000
  O   O2        1.0  0.9849742242028777  0.4708411899477367  0.4590713567744069  1.0000
  O   O3        1.0  0.9849274741389766  0.4571118622269781  0.8366727230984468  1.0000
  O   O4        1.0  0.9849162463021062  0.6527806661663955  0.6409465427301675  1.0000
  O   O5        1.0  0.9849853946828473  0.27517239277291217  0.6547974350887009  1.0000
  O   O6        1.0  0.8573138938107465  0.6472094834554996  0.6305301881762839  1.0000
  O   O7        1.0  0.8573251213715466  0.4515422397878224  0.8262562991428575  1.0000
  O   O8        1.0  0.8573718717086017  0.4652715219171921  0.4486533715048546  1.0000
  O   O9        1.0  0.8573830421737714  0.26960271547461034  0.6443795471828186  1.0000
