data_image0
_chemical_formula_structural       NC10NC3NH7C16H10C13OH12Zn2C4O8
_chemical_formula_sum              "N3 C46 H29 O9 Zn2"
_cell_length_a       19.210446455230148
_cell_length_b       10.29914801576943
_cell_length_c       10.299153481560891
_cell_angle_alpha    85.55882765748771
_cell_angle_beta     90.00736926035154
_cell_angle_gamma    89.9607823085547

_space_group_name_H-M_alt    "P 1"
_space_group_IT_number       1

loop_
  _space_group_symop_operation_xyz
  'x, y, z'

loop_
  _atom_site_type_symbol
  _atom_site_label
  _atom_site_symmetry_multiplicity
  _atom_site_fract_x
  _atom_site_fract_y
  _atom_site_fract_z
  _atom_site_occupancy
  N   N1        1.0  0.6554247488708717  0.4197647788713028  0.5667834634830977  1.0000
  C   C1        1.0  0.5951963433777667  0.42197252926531403  0.5670137917787568  1.0000
  C   C2        1.0  0.5203920821193015  0.42470973539315215  0.567299139024052  1.0000
  C   C3        1.0  0.48478922654315687  0.5409536728708837  0.5823677662784756  1.0000
  C   C4        1.0  0.4121237444612506  0.5411052014399049  0.5823151123036927  1.0000
  C   C5        1.0  0.3752253752925056  0.42541878209793715  0.5673853589071371  1.0000
  C   C6        1.0  0.297903158956452  0.4240621588630993  0.5672352707068335  1.0000
  C   C7        1.0  0.2601423300117282  0.5276169476315138  0.5038346867922365  1.0000
  C   C8        1.0  0.1873638928897933  0.5262145811070718  0.5037261335451289  1.0000
  C   C9        1.0  0.151344876089564  0.4215149348379825  0.566967071396935  1.0000
  C   C10       1.0  0.0764152738717683  0.4202127143393699  0.566830726317034  1.0000
  N   N2        1.0  0.0161773554989201  0.41916568485927574  0.566721139765284  1.0000
  C   C11       1.0  0.188382048691131  0.3180858381784384  0.6303425999891061  1.0000
  C   C12       1.0  0.2611623314755543  0.3192139360046884  0.6305015013193789  1.0000
  C   C13       1.0  0.4134382249428826  0.3109953293364007  0.5526042205018613  1.0000
  N   N3        1.0  0.48420830983340846  0.3134405314137547  0.5527688746204291  1.0000
  H   H1        1.0  0.5128962842631698  0.6303977492120278  0.5943829810347381  1.0000
  H   H2        1.0  0.3848612598970425  0.6311316843287567  0.595724839984328  1.0000
  H   H3        1.0  0.2868638914061242  0.6088575335045732  0.4528136174967181  1.0000
  H   H4        1.0  0.1592119660422322  0.606627883592614  0.4540357712423797  1.0000
  H   H5        1.0  0.1610205838681658  0.23670903705658075  0.6799338355584137  1.0000
  H   H6        1.0  0.2886696506665931  0.23892034436879084  0.6816295516883284  1.0000
  H   H7        1.0  0.3871664696830832  0.2201058498885775  0.5391485665702886  1.0000
  C   C14       1.0  0.8357548350384761  0.038064013623180015  0.5669178617379234  1.0000
  C   C15       1.0  0.8198402124543973  0.04763891648919705  0.43344560606182814  1.0000
  C   C16       1.0  0.811822288259515  0.9353636879792906  0.3656077253052592  1.0000
  C   C17       1.0  0.819933071067297  0.8123867946238619  0.43304099660924145  1.0000
  C   C18       1.0  0.8358539116942801  0.8008564712434201  0.5665980047565067  1.0000
  C   C19       1.0  0.8436680101237483  0.9142111095487272  0.6327140817433958  1.0000
  C   C20       1.0  0.7949867086965713  0.9465383858476992  0.22441017556549125  1.0000
  C   C21       1.0  0.8279071218388953  0.8654664845118124  0.13918614208199154  1.0000
  C   C22       1.0  0.812037736119957  0.8761089422220574  0.0062964552497972726  1.0000
  C   C23       1.0  0.7630849189882283  0.9677232007263827  0.9568265609636097  1.0000
  C   C24       1.0  0.7300373777710049  0.04877514442855113  0.040766665666421176  1.0000
  C   C25       1.0  0.7458571362104773  0.03837404273009781  0.17367730781101232  1.0000
  C   C26       1.0  0.7467730578046357  0.978555869239401  0.820004174950121  1.0000
  C   C27       1.0  0.7331120499878088  0.987628125716573  0.705417406035699  1.0000
  C   C28       1.0  0.7171151711298164  0.9982516155843625  0.5712374680946146  1.0000
  C   C29       1.0  0.703456455914744  0.0073224980556461094  0.4566692066897935  1.0000
  H   H8        1.0  0.8418404840197954  0.3618557604062602  0.6182711089051971  1.0000
  H   H9        1.0  0.8145808482115743  0.14268339746716108  0.3815360347306842  1.0000
  H   H10       1.0  0.8128770637973387  0.7254858622896878  0.38162632099804683  1.0000
  H   H11       1.0  0.8559413311553765  0.906109854178454  0.7356655145994297  1.0000
  H   H12       1.0  0.8654726176421212  0.5717878098509599  0.8188581698358275  1.0000
  H   H13       1.0  0.8665813167264361  0.7950111080062824  0.17502942992520354  1.0000
  H   H14       1.0  0.838070560509143  0.81311858914409  0.9421166118562945  1.0000
  H   H15       1.0  0.6919166331001998  0.11979343710814039  0.0035533790264521414  1.0000
  H   H16       1.0  0.7190127266463235  0.10097563354005334  0.23705449790467026  1.0000
  H   H17       1.0  0.6914630042546308  0.01528749902277693  0.3560686127288619  1.0000
  C   C30       1.0  0.8357445747518036  0.4193129039219703  0.1853854412888798  1.0000
  C   C31       1.0  0.7637735300793316  0.39505017374393336  0.18607958120420198  1.0000
  C   C32       1.0  0.7274089780645445  0.38291102994409343  0.06926387706133696  1.0000
  C   C33       1.0  0.7639378030271035  0.39536722625767773  0.9507714521530142  1.0000
  C   C34       1.0  0.8358641942652807  0.41960759451740204  0.948130381984789  1.0000
  C   C35       1.0  0.8713475975674504  0.4314352858603969  0.06597098074985941  1.0000
  C   C36       1.0  0.6513178362842342  0.3572724330601589  0.07097082139808708  1.0000
  C   C37       1.0  0.6073014723150046  0.4225877074547766  0.9782834388934663  1.0000
  C   C38       1.0  0.5356952217917127  0.39850422084267834  0.9799677107003313  1.0000
  C   C39       1.0  0.5068999895386231  0.3078322657492014  0.07347073459644204  1.0000
  C   C40       1.0  0.5504495193924116  0.24361413743993565  0.1670762682918474  1.0000
  C   C41       1.0  0.6220590682914374  0.2676679687245709  0.16557015800855357  1.0000
  C   C42       1.0  0.4297571529918572  0.28467175536656475  0.07741023113360779  1.0000
  O   O1        1.0  0.398503278876745  0.3723189816151615  0.15688607492882523  1.0000
  H   H18       1.0  0.9715050689195573  0.46593986051015546  0.3913032540731365  1.0000
  H   H19       1.0  0.7357085684263798  0.3873324278692829  0.27756326660984043  1.0000
  H   H20       1.0  0.7363182293477902  0.3843599042445165  0.8606017402126924  1.0000
  H   H21       1.0  0.9268261992038141  0.45013625377881117  0.06464966355923796  1.0000
  H   H22       1.0  0.8635204161485475  0.42901723110800916  0.6196324471135726  1.0000
  H   H23       1.0  0.6281187403713682  0.49381525925388603  0.9056922924880819  1.0000
  H   H24       1.0  0.5026751828654232  0.4508437000403476  0.9084706561347251  1.0000
  H   H25       1.0  0.5289906671103259  0.17459423048834477  0.24110648069324925  1.0000
  H   H26       1.0  0.6546607301397277  0.21512866738572511  0.23759058241065345  1.0000
  H   H27       1.0  0.41869600175277744  0.18289426253295815  0.1162737171787378  1.0000
  H   H28       1.0  0.4077257923673576  0.29807472962220816  0.9772775711243846  1.0000
  H   H29       1.0  0.3478987308791023  0.35304780840292094  0.15619955182563405  1.0000
  Zn  Zn1       1.0  0.7595301583448524  0.41958843183092576  0.5667729787944968  1.0000
  Zn  Zn2       1.0  0.9120719303779871  0.4193314525647165  0.566742264768759  1.0000
  C   C43       1.0  0.83583934531507  0.4143777770749013  0.803957438605202  1.0000
  C   C44       1.0  0.8357644093920334  0.42454374332220235  0.32955793140307055  1.0000
  C   C45       1.0  0.8358307954145576  0.6566704769064524  0.5614832229865003  1.0000
  C   C46       1.0  0.8357729070488635  0.18224948317031142  0.5720322169259131  1.0000
  O   O2        1.0  0.8936598728509138  0.4261960722954987  0.3779318826808382  1.0000
  O   O3        1.0  0.8937195570671004  0.41252942683469773  0.7555598026539363  1.0000
  O   O4        1.0  0.8937118727572461  0.6081838479944606  0.5597601575873263  1.0000
  O   O5        1.0  0.8936675050945319  0.23054166047681335  0.5737314303784549  1.0000
  O   O6        1.0  0.7779345315732864  0.6083782240079352  0.5597838131884505  1.0000
  O   O7        1.0  0.7779422160718016  0.41272536325761777  0.7555833883545693  1.0000
  O   O8        1.0  0.7778825316511906  0.4263919628552806  0.3779539069851663  1.0000
  O   O9        1.0  0.7778901639060236  0.23073754178462336  0.5737535520554258  1.0000
