data_image0
_chemical_formula_structural       NC12NC2H8C12NH11C12NH11Zn2C4O8
_chemical_formula_sum              "N4 C42 H30 Zn2 O8"
_cell_length_a       19.240039667572717
_cell_length_b       10.299770795358612
_cell_length_c       10.299774167527174
_cell_angle_alpha    85.57276865105108
_cell_angle_beta     89.99323073403258
_cell_angle_gamma    90.01598423534

_space_group_name_H-M_alt    "P 1"
_space_group_IT_number       1

loop_
  _space_group_symop_operation_xyz
  'x, y, z'

loop_
  _atom_site_type_symbol
  _atom_site_label
  _atom_site_symmetry_multiplicity
  _atom_site_fract_x
  _atom_site_fract_y
  _atom_site_fract_z
  _atom_site_occupancy
  N   N1        1.0  0.6547799225398955  0.42085456949438904  0.5674426657309695  1.0000
  C   C1        1.0  0.5946315537403353  0.42085465345164996  0.5674425837934423  1.0000
  C   C2        1.0  0.5198135166253657  0.42085477069718746  0.5674424464889647  1.0000
  C   C3        1.0  0.4833236397966258  0.3564196552881074  0.6708530552385423  1.0000
  C   C4        1.0  0.4106528696671775  0.3563087993780161  0.6709395991365827  1.0000
  C   C5        1.0  0.3734812817162474  0.42085486319599674  0.567442218812823  1.0000
  C   C6        1.0  0.4106853721681634  0.4854011140565402  0.46394503301174117  1.0000
  C   C7        1.0  0.48335603855952464  0.4852900226830077  0.46403169941654787  1.0000
  C   C8        1.0  0.296276191270902  0.42085478450723857  0.5674421234054059  1.0000
  C   C9        1.0  0.2590688208485645  0.3076063653574217  0.6093164140512919  1.0000
  C   C10       1.0  0.1863981542012275  0.3077132388641559  0.6092250875723959  1.0000
  C   C11       1.0  0.1499439043245639  0.4208546553522823  0.5674421843191606  1.0000
  C   C12       1.0  0.0751258671369097  0.4208545416818237  0.56744243297428  1.0000
  N   N2        1.0  0.0149775502655423  0.4208545009188549  0.5674426413862514  1.0000
  C   C13       1.0  0.1864371653191803  0.5339961476525328  0.5256592281739019  1.0000
  C   C14       1.0  0.2591078833110343  0.5341032012326874  0.5255677390990774  1.0000
  H   H1        1.0  0.5110259492392217  0.30653278399277695  0.7515931005844341  1.0000
  H   H2        1.0  0.3835470550812505  0.3072203353346967  0.7527950631222751  1.0000
  H   H3        1.0  0.3836046559732157  0.5344896051374843  0.3820895181786006  1.0000
  H   H4        1.0  0.5110835005476074  0.5351767937960412  0.3832919298585298  1.0000
  H   H5        1.0  0.28614681067421066  0.21846018214303653  0.6404868979831904  1.0000
  H   H6        1.0  0.1586680958806578  0.2194665337413677  0.6414284489496831  1.0000
  H   H7        1.0  0.158737400187376  0.6222428282427304  0.49345588134757157  1.0000
  H   H8        1.0  0.2862163723172523  0.6232494636105572  0.49439721039386164  1.0000
  C   C15       1.0  0.8348190894717444  0.039486019054172594  0.5674822274472298  1.0000
  C   C16       1.0  0.8146545687970221  0.048623382848370644  0.4360777334075514  1.0000
  C   C17       1.0  0.8045007988770438  0.93611718928619  0.36945894668755375  1.0000
  C   C18       1.0  0.8147817865692956  0.813341749635118  0.4360091836211444  1.0000
  C   C19       1.0  0.8349450494514551  0.802213094186591  0.5674142281836383  1.0000
  C   C20       1.0  0.8448511243292713  0.9158397814356469  0.6324147743552282  1.0000
  C   C21       1.0  0.7831682106484128  0.9468373950112348  0.2304406188512682  1.0000
  C   C22       1.0  0.7325626685268839  0.038002262778661366  0.1852554976136842  1.0000
  C   C23       1.0  0.7125142379413859  0.04796289479715532  0.054410386620731055  1.0000
  C   C24       1.0  0.7426919306354759  0.9671775030719563  0.9666703515792294  1.0000
  C   C25       1.0  0.7931307466904391  0.8762104600592651  0.010964954057613108  1.0000
  C   C26       1.0  0.8132348557331716  0.8659937936153166  0.14178009337291297  1.0000
  N   N3        1.0  0.7221553707588525  0.9774973291751525  0.8328408693370695  1.0000
  H   H9        1.0  0.8424731456171376  0.3634565236689651  0.6175705633340065  1.0000
  H   H10       1.0  0.8077193864640442  0.14351387877121713  0.3847278008034005  1.0000
  H   H11       1.0  0.8061019079053683  0.7262982700056548  0.3855993122656798  1.0000
  H   H12       1.0  0.8604066103276591  0.9080226830378302  0.7337875220305419  1.0000
  H   H13       1.0  0.8426584056953059  0.4705201155379174  0.6174709440629065  1.0000
  H   H14       1.0  0.7078347975866275  0.10043245221040742  0.25145575595057834  1.0000
  H   H15       1.0  0.6733313836672571  0.1184345725086684  0.021500302197933197  1.0000
  H   H16       1.0  0.816999115101362  0.813434517149139  0.9440754537400129  1.0000
  H   H17       1.0  0.8529506154508704  0.7960319722685373  0.17325069981624908  1.0000
  H   H18       1.0  0.7443554938466427  0.917682939030799  0.7667042203643399  1.0000
  H   H19       1.0  0.6845993659477259  0.045028692340869814  0.7989076627506067  1.0000
  C   C27       1.0  0.8349057004085875  0.4207350317025198  0.1860961710040021  1.0000
  C   C28       1.0  0.7668284261887649  0.3714331933334267  0.18892133938112177  1.0000
  C   C29       1.0  0.7323088166962008  0.3465673791911805  0.07320504495556412  1.0000
  C   C30       1.0  0.7667807155866664  0.3716644942849714  0.9536166077445887  1.0000
  C   C31       1.0  0.8348584315461257  0.42096410615777335  0.9488002952039123  1.0000
  C   C32       1.0  0.8685395956308066  0.4452238052046176  0.06555929703942476  1.0000
  C   C33       1.0  0.6602870062082485  0.2944094583402863  0.07724725795845089  1.0000
  C   C34       1.0  0.6407377060072743  0.19595563970288166  0.1725547725821328  1.0000
  C   C35       1.0  0.5729475590577997  0.14692012864105708  0.17622559407584992  1.0000
  C   C36       1.0  0.5236343467423301  0.1954457911198686  0.08491667849449769  1.0000
  C   C37       1.0  0.5427249423131423  0.29350944930906375  0.9897685633964164  1.0000
  C   C38       1.0  0.6104942360892333  0.3426462221781048  0.9858314527820484  1.0000
  N   N4        1.0  0.4543007492804588  0.1452342292790194  0.08880780520090492  1.0000
  H   H20       1.0  0.8608580701170446  0.439467623274975  0.5124772579370376  1.0000
  H   H21       1.0  0.7401418393605907  0.35393006386119485  0.28120858697376483  1.0000
  H   H22       1.0  0.7407481250412407  0.3509889594726481  0.8642880390218237  1.0000
  H   H23       1.0  0.9210582291071355  0.4832570168242989  0.06261182266730092  1.0000
  H   H24       1.0  0.8607887041410637  0.4398045730799085  0.6195074503490163  1.0000
  H   H25       1.0  0.6781178387685238  0.155687469423339  0.24320817312880183  1.0000
  H   H26       1.0  0.5589145458981643  0.07087352001427072  0.25005071980168503  1.0000
  H   H27       1.0  0.5050543886866606  0.3321123101413763  0.918845258147615  1.0000
  H   H28       1.0  0.6237148867313111  0.4195593252823624  0.9123382678364838  1.0000
  H   H29       1.0  0.41717784440791533  0.18079063934499362  0.021140102948184802  1.0000
  H   H30       1.0  0.4395800497430752  0.0721328900793714  0.15938553369365827  1.0000
  Zn  Zn1       1.0  0.7587251853394378  0.42085108475504085  0.5674501471098008  1.0000
  Zn  Zn2       1.0  0.9110323038308807  0.42084739537157456  0.5674457593831701  1.0000
  C   C39       1.0  0.834864970141129  0.4157471060935658  0.8046333751460435  1.0000
  C   C40       1.0  0.8348941824809091  0.4259530126489459  0.33026265861385307  1.0000
  C   C41       1.0  0.8349179876088408  0.6580398804264016  0.5622521770395179  1.0000
  C   C42       1.0  0.8348411127794487  0.18365867803717717  0.5726439260964571  1.0000
  O   O1        1.0  0.8926900737357447  0.4276971488839898  0.3786445842182189  1.0000
  O   O2        1.0  0.8926666575358294  0.41399918986807527  0.7562477456164409  1.0000
  O   O3        1.0  0.8927086905594579  0.6096536697765671  0.5605232131603759  1.0000
  O   O4        1.0  0.8926479887475814  0.23204267823772895  0.5743690193045838  1.0000
  O   O5        1.0  0.7771094484477934  0.6096558018915572  0.5605268871830533  1.0000
  O   O6        1.0  0.7770674156829698  0.41400288226466886  0.7562513502577064  1.0000
  O   O7        1.0  0.7770908320183761  0.427700795555793  0.3786466275317506  1.0000
  O   O8        1.0  0.777048747019804  0.23204631564997147  0.5743711599824828  1.0000
