data_image0
_chemical_formula_structural       NC12NC2H8C13OH12C12NCOCH13Zn2C4O8
_chemical_formula_sum              "N3 C45 H33 O10 Zn2"
_cell_length_a       17.80743265337812
_cell_length_b       10.299150109392551
_cell_length_c       10.299158637457994
_cell_angle_alpha    85.56061603079257
_cell_angle_beta     91.51607039334635
_cell_angle_gamma    89.41750150667457

_space_group_name_H-M_alt    "P 1"
_space_group_IT_number       1

loop_
  _space_group_symop_operation_xyz
  'x, y, z'

loop_
  _atom_site_type_symbol
  _atom_site_label
  _atom_site_symmetry_multiplicity
  _atom_site_fract_x
  _atom_site_fract_y
  _atom_site_fract_z
  _atom_site_occupancy
  N   N1        1.0  0.7074089643942877  0.40625297967717566  0.6008603476857011  1.0000
  C   C1        1.0  0.6565958531291386  0.4357872661392077  0.5321522446170392  1.0000
  C   C2        1.0  0.5933793267949553  0.4725257761132504  0.4466880130305346  1.0000
  C   C3        1.0  0.6051184443840908  0.5265012399826043  0.3200511598771958  1.0000
  C   C4        1.0  0.5438091260837908  0.5617369747314547  0.2369834018884993  1.0000
  C   C5        1.0  0.47060645529272294  0.5432604728873658  0.27989251208352117  1.0000
  C   C6        1.0  0.4578905034151062  0.48916638016045133  0.4069975428301744  1.0000
  C   C7        1.0  0.5200571401350108  0.4539338930916985  0.4900487882194646  1.0000
  C   C8        1.0  0.38011932563535983  0.4695767821112804  0.45276729575637553  1.0000
  C   C9        1.0  0.3613060553305582  0.49681555096696917  0.5798005375465869  1.0000
  C   C10       1.0  0.2880734236427291  0.4783806419653718  0.6227501956909463  1.0000
  C   C11       1.0  0.232710994182224  0.4324530014087593  0.5395046576650566  1.0000
  C   C12       1.0  0.1573416166079416  0.41346577272066454  0.5838554165234429  1.0000
  N   N2        1.0  0.0967499743864904  0.39820131780986157  0.6195103756197888  1.0000
  C   C13       1.0  0.25083270838967153  0.40504552004853944  0.4130144368467439  1.0000
  C   C14       1.0  0.3240125268042759  0.4234951147333521  0.3698088899309411  1.0000
  H   H1        1.0  0.6615873233686007  0.5413126644816098  0.2856094745703315  1.0000
  H   H2        1.0  0.5530162944786752  0.6037989935073562  0.13919101260514788  1.0000
  H   H3        1.0  0.4239729398472636  0.5728726021444628  0.21429228731300043  1.0000
  H   H4        1.0  0.5115486414569468  0.4104863988369183  0.5877172151071819  1.0000
  H   H5        1.0  0.40296394085648224  0.5340238875531966  0.6453598591170637  1.0000
  H   H6        1.0  0.2746088219111683  0.5002667738939459  0.7207501967035697  1.0000
  H   H7        1.0  0.2084576295668588  0.3691047363676536  0.3478676238064251  1.0000
  H   H8        1.0  0.3369489751317499  0.4000734248771127  0.27211275420020087  1.0000
  C   C15       1.0  0.9021538452174849  0.020826027737042452  0.610333031632013  1.0000
  C   C16       1.0  0.9007447439930529  0.009098859370316514  0.7470772337010156  1.0000
  C   C17       1.0  0.8999649806885027  0.8860195946478066  0.8161426215050771  1.0000
  C   C18       1.0  0.9005999669671977  0.7738463814755178  0.7467069011110001  1.0000
  C   C19       1.0  0.9020122847715711  0.7836181073678521  0.6100492527050398  1.0000
  C   C20       1.0  0.902783036638991  0.9075687531176034  0.5426610336550772  1.0000
  C   C21       1.0  0.8984677777959964  0.8745954341714762  0.9607120466501438  1.0000
  C   C22       1.0  0.8522600995084985  0.7826945774365706  0.026520527006035466  1.0000
  C   C23       1.0  0.8508263436014014  0.7720263778660496  0.1625590193423866  1.0000
  C   C24       1.0  0.8960670906246098  0.8520916038889657  0.2352719081187059  1.0000
  C   C25       1.0  0.9415559043886532  0.944961186297619  0.17007156929646583  1.0000
  C   C26       1.0  0.9430070991280728  0.9558048221606331  0.034033623589526774  1.0000
  C   C27       1.0  0.8929468208214867  0.8430147948114907  0.38120975058194617  1.0000
  O   O1        1.0  0.8367890659433915  0.9273656364646172  0.4187606569158504  1.0000
  H   H9        1.0  0.904325512618429  0.2502645370605261  0.3521985626395203  1.0000
  H   H10       1.0  0.8992089595174471  0.09592121711823576  0.8000126210963769  1.0000
  H   H11       1.0  0.9010188318002944  0.6787322809936067  0.7995608550755731  1.0000
  H   H12       1.0  0.9038702738253827  0.9158222302212937  0.4372527984901091  1.0000
  H   H13       1.0  0.9025049467520635  0.45990223355379767  0.5574835061460084  1.0000
  H   H14       1.0  0.8163419723018803  0.7204119759818155  0.972690934362112  1.0000
  H   H15       1.0  0.8142720225837252  0.7014689043178984  0.2111839347504494  1.0000
  H   H16       1.0  0.9760900822856304  0.008825618192089824  0.2245810798584582  1.0000
  H   H17       1.0  0.9795864421771346  0.02680747064211908  0.9862165557601386  1.0000
  H   H18       1.0  0.9481997338712137  0.869714254191072  0.42402673432918236  1.0000
  H   H19       1.0  0.8807311040846995  0.7412582777984986  0.41843745080330463  1.0000
  H   H20       1.0  0.8370494608438768  0.9177140737729796  0.5154004967476169  1.0000
  C   C28       1.0  0.9021535237690418  0.40208265517422515  0.2288214638161914  1.0000
  C   C29       1.0  0.9038736609833563  0.5387613374822671  0.21754066640723058  1.0000
  C   C30       1.0  0.9046868053999098  0.6082004089000976  0.09466063728767882  1.0000
  C   C31       1.0  0.9037297794742077  0.5391242116759758  0.9822221649907976  1.0000
  C   C32       1.0  0.9020126069068264  0.40236155242110216  0.9915608287344444  1.0000
  C   C33       1.0  0.9012383371372028  0.3346816275210094  0.1152487268045217  1.0000
  C   C34       1.0  0.9065073997965271  0.7527896644036196  0.08370051956538926  1.0000
  C   C35       1.0  0.9526050686799917  0.8196757151590452  0.16845140850937135  1.0000
  C   C36       1.0  0.9543244665946711  0.9557417036189966  0.15800679571186982  1.0000
  C   C37       1.0  0.9104567089895658  0.027639973879921342  0.06173013000063743  1.0000
  C   C38       1.0  0.8634643092465436  0.9611328433315816  0.9787193306625404  1.0000
  C   C39       1.0  0.8617757493272095  0.8250941288295368  0.9889044236498723  1.0000
  N   N3        1.0  0.9101438217227694  0.16770368207638464  0.05042889943382245  1.0000
  C   C40       1.0  0.9744947299035541  0.24536713611908656  0.07671427696268873  1.0000
  O   O2        1.0  0.03927649373390074  0.1946107954649956  0.08835149541842768  1.0000
  C   C41       1.0  0.9656556679257914  0.38937664579526965  0.08084119956505575  1.0000
  H   H21       1.0  0.9015154223872873  0.34950783888814985  0.5606374425062246  1.0000
  H   H22       1.0  0.9035354513526836  0.5915898270086442  0.30445613750303235  1.0000
  H   H23       1.0  0.9053486444200006  0.592108599547172  0.8873088479337179  1.0000
  H   H24       1.0  0.8999141268518821  0.22925811339109914  0.12323509545410305  1.0000
  H   H25       1.0  0.8992276145444266  0.14420437701269062  0.8019167042267439  1.0000
  H   H26       1.0  0.9877759322737186  0.7667171321789246  0.24234765163736816  1.0000
  H   H27       1.0  0.988981889615946  0.004368529427876133  0.2266805319272167  1.0000
  H   H28       1.0  0.8283146738145426  0.014966065007058216  0.9053930771626382  1.0000
  H   H29       1.0  0.8246571251774975  0.7764714173522789  0.9237970512843239  1.0000
  H   H30       1.0  0.8614361405062793  0.21616977997884845  0.013131763180755485  1.0000
  H   H31       1.0  0.9128262558197217  0.41218559480532235  0.12972051113140992  1.0000
  H   H32       1.0  0.9636271752058695  0.4360896898764022  0.980008287046676  1.0000
  H   H33       1.0  0.013576972768706508  0.42915654403214454  0.13577665192142452  1.0000
  Zn  Zn1       1.0  0.8197643722482907  0.40392597915281026  0.6062498311219848  1.0000
  Zn  Zn2       1.0  0.9843945640475974  0.40051772785529915  0.6141314891971357  1.0000
  C   C42       1.0  0.9020385251949866  0.3971347350285983  0.847388576001006  1.0000
  C   C43       1.0  0.9021222085298016  0.40731057356579914  0.37299295724256787  1.0000
  C   C44       1.0  0.9020361313211006  0.6394323939390554  0.6049275074877047  1.0000
  C   C45       1.0  0.9021245465037078  0.16501135540957712  0.6154540928857459  1.0000
  O   O3        1.0  0.9645879997113792  0.40776603091156916  0.4243692777313821  1.0000
  O   O4        1.0  0.9645232405566505  0.39409151386782804  0.8019938781398481  1.0000
  O   O5        1.0  0.9645204650133207  0.5897499556397061  0.6062048090392769  1.0000
  O   O6        1.0  0.9645907190938425  0.21210759955809877  0.6201582467641606  1.0000
  O   O7        1.0  0.8395681610218418  0.5923361086144907  0.6002230708585052  1.0000
  O   O8        1.0  0.8395709362849479  0.3966792272528574  0.7960120701327451  1.0000
  O   O9        1.0  0.8396356957865154  0.41035369846490477  0.4183859083397443  1.0000
  O   O10       1.0  0.8396384151496417  0.21469525785750676  0.6141749747438612  1.0000
