data_image0
_chemical_formula_structural       NC10NC3NCH9C12NCOCH13C12SCH12Zn2C4O8
_chemical_formula_sum              "N4 C45 H34 O9 S1 Zn2"
_cell_length_a       19.437513618241372
_cell_length_b       10.299155265289647
_cell_length_c       10.299780138516091
_cell_angle_alpha    85.56043235920357
_cell_angle_beta     90.3395305496005
_cell_angle_gamma    89.500514822395

_space_group_name_H-M_alt    "P 1"
_space_group_IT_number       1

loop_
  _space_group_symop_operation_xyz
  'x, y, z'

loop_
  _atom_site_type_symbol
  _atom_site_label
  _atom_site_symmetry_multiplicity
  _atom_site_fract_x
  _atom_site_fract_y
  _atom_site_fract_z
  _atom_site_occupancy
  N   N1        1.0  0.6476639058207764  0.41018096976174667  0.5753962985636407  1.0000
  C   C1        1.0  0.5887272561089026  0.42719152524215565  0.572416855051548  1.0000
  C   C2        1.0  0.515282642774131  0.44844466232101343  0.5687185554878373  1.0000
  C   C3        1.0  0.47354088478795303  0.34724499284694055  0.5570809864126465  1.0000
  C   C4        1.0  0.39764913557684606  0.3573088384806309  0.549857851151111  1.0000
  C   C5        1.0  0.3580566099393376  0.438177745511819  0.6155805011678204  1.0000
  C   C6        1.0  0.2818763680822066  0.4295669976625658  0.6071385775146032  1.0000
  C   C7        1.0  0.2487647086025369  0.30821489441917005  0.6118071704163834  1.0000
  C   C8        1.0  0.1770315150691903  0.3018410971250045  0.6046407657569741  1.0000
  C   C9        1.0  0.1374394389956785  0.4163467651752579  0.5931680828419175  1.0000
  C   C10       1.0  0.0635918447181191  0.40963472715963256  0.5858336651237304  1.0000
  N   N2        1.0  0.0042234768170312  0.4042388388028362  0.5799372515399228  1.0000
  C   C11       1.0  0.1698345437756396  0.5373884388176715  0.5892447979687103  1.0000
  C   C12       1.0  0.2415520896695633  0.544016258571866  0.5964731680894586  1.0000
  C   C13       1.0  0.3867196879175887  0.5304885296909079  0.7054771116370628  1.0000
  N   N3        1.0  0.443692852337846  0.5937010569937591  0.6850605829030971  1.0000
  C   C14       1.0  0.4875380571434005  0.5844151458441538  0.5719600065054726  1.0000
  H   H1        1.0  0.495943825382593  0.25217962268581373  0.5449802330479645  1.0000
  H   H2        1.0  0.3729499542526958  0.28777942198849926  0.4915568780508963  1.0000
  H   H3        1.0  0.27823242494521655  0.21829921009954245  0.6228463583225399  1.0000
  H   H4        1.0  0.1524563450583711  0.20760918777709159  0.6085474998969169  1.0000
  H   H5        1.0  0.1396816196745208  0.6266496605143033  0.5805177918722604  1.0000
  H   H6        1.0  0.2656456573042391  0.6386609926146922  0.5925508883869413  1.0000
  H   H7        1.0  0.35671051660814107  0.5508933937156921  0.7898357296598448  1.0000
  H   H8        1.0  0.5302767371089773  0.6547336378434445  0.577708422405919  1.0000
  H   H9        1.0  0.4578675506140003  0.6125066304390268  0.48131259027796225  1.0000
  C   C15       1.0  0.8260238235896115  0.02581108885056893  0.5777865139483291  1.0000
  C   C16       1.0  0.814281045822718  0.03568019976788439  0.44271840535128537  1.0000
  C   C17       1.0  0.8082605858144905  0.9235474507424959  0.3741174623694776  1.0000
  C   C18       1.0  0.8141165632485089  0.8004231104969366  0.44240854087906945  1.0000
  C   C19       1.0  0.8258701774849331  0.7885986013060095  0.5775583740419785  1.0000
  C   C20       1.0  0.8317545088987564  0.901810818361365  0.6444153607002572  1.0000
  C   C21       1.0  0.79583899417101  0.9349614335794895  0.23123172367718814  1.0000
  C   C22       1.0  0.8307366678684025  0.02847465957123041  0.15026256861846843  1.0000
  C   C23       1.0  0.8190527928527739  0.0390849977771508  0.015797639533118524  1.0000
  C   C24       1.0  0.7726654322982864  0.9555047085044088  0.9594590481125143  1.0000
  C   C25       1.0  0.7369273696234859  0.8638217599652158  0.040349344235579565  1.0000
  C   C26       1.0  0.7486363055641605  0.8529549773059485  0.1747772588547849  1.0000
  N   N4        1.0  0.7587677263639004  0.9659501070944133  0.8217277555790274  1.0000
  C   C27       1.0  0.8090108635767354  0.0020298734166366295  0.7241547281079561  1.0000
  O   O1        1.0  0.872125582472009  0.003517870112951904  0.7528155771201686  1.0000
  C   C28       1.0  0.7870722155366763  0.028814826055071796  0.5853422450197985  1.0000
  H   H10       1.0  0.8305619542043308  0.3494908365004803  0.6297340639478841  1.0000
  H   H11       1.0  0.8088414519702073  0.13080569547761023  0.3908420369050758  1.0000
  H   H12       1.0  0.8104193977850754  0.713675227482222  0.38973559239825506  1.0000
  H   H13       1.0  0.8408142749374602  0.893483663079412  0.748595799524894  1.0000
  H   H14       1.0  0.8484664932660995  0.55899024987934  0.8325210494791866  1.0000
  H   H15       1.0  0.8674720503679858  0.09291875200708533  0.1908207641488262  1.0000
  H   H16       1.0  0.8454511378360856  0.11408890361959534  0.9565563308584002  1.0000
  H   H17       1.0  0.7001260237337287  0.8000826455320496  0.9989233152946615  1.0000
  H   H18       1.0  0.7200271524442085  0.7816044283394534  0.2348233181289232  1.0000
  H   H19       1.0  0.7103116842150102  0.9378829152895694  0.7900387240177973  1.0000
  H   H20       1.0  0.7374087810018208  0.08308727141394479  0.5802563319776293  1.0000
  H   H21       1.0  0.7807090385224  0.9353022865686469  0.5400393600925146  1.0000
  H   H22       1.0  0.8262428593791553  0.08824234170838352  0.5304485383622524  1.0000
  C   C29       1.0  0.8259746650131924  0.4070930545396021  0.19632071826909803  1.0000
  C   C30       1.0  0.7605698454735818  0.3501671756655189  0.1989993702100008  1.0000
  C   C31       1.0  0.7274014618066408  0.32143710863854014  0.08320936698623194  1.0000
  C   C32       1.0  0.7605134737902488  0.3503935709008559  0.9636946889438125  1.0000
  C   C33       1.0  0.8259193197290782  0.4073166089763225  0.9590242126148407  1.0000
  C   C34       1.0  0.8582836303126115  0.435348378110302  0.07585565787448179  1.0000
  C   C35       1.0  0.6582077011397165  0.2612293447803311  0.08710594884507916  1.0000
  C   C36       1.0  0.6072452032639407  0.30374273879470537  0.9954880843760736  1.0000
  C   C37       1.0  0.5421351230718938  0.24704483899156626  0.9993922565666975  1.0000
  C   C38       1.0  0.5270378095282493  0.14747919101160845  0.09479230869112265  1.0000
  C   C39       1.0  0.5773881545254835  0.10417700627905568  0.18599696348938832  1.0000
  C   C40       1.0  0.6425408339561292  0.16070075336863887  0.18245579316978855  1.0000
  S   S1        1.0  0.4435208734568261  0.07459430851882698  0.09935208010569396  1.0000
  C   C41       1.0  0.4082157595238982  0.18940644846812082  0.20759754087697124  1.0000
  H   H23       1.0  0.8509069378294618  0.4287367275054741  0.522757180682742  1.0000
  H   H24       1.0  0.7348619480095012  0.3296717289426445  0.2912275160700011  1.0000
  H   H25       1.0  0.7355693695706972  0.3268060811577358  0.8743119193348896  1.0000
  H   H26       1.0  0.9087408246051881  0.47926348418686593  0.07302082212959604  1.0000
  H   H27       1.0  0.8508266890020831  0.42906555315037753  0.6297864928243158  1.0000
  H   H28       1.0  0.6174600197110836  0.381946162532216  0.9219166829852359  1.0000
  H   H29       1.0  0.5033632555151256  0.28102674673463457  0.9285572869217531  1.0000
  H   H30       1.0  0.566121648010689  0.02668713595851613  0.25967962920438215  1.0000
  H   H31       1.0  0.6809429491133622  0.12467386637742184  0.2531858468492496  1.0000
  H   H32       1.0  0.437309857684765  0.18289103090825254  0.3009839690621072  1.0000
  H   H33       1.0  0.3536223294910744  0.1651856408399761  0.2276820610301551  1.0000
  H   H34       1.0  0.4108548982041733  0.29009198536729053  0.16100999249230386  1.0000
  Zn  Zn1       1.0  0.7505593015663389  0.40846271183616545  0.5767142291622536  1.0000
  Zn  Zn2       1.0  0.901328088656549  0.405946429472519  0.5786299935242625  1.0000
  C   C42       1.0  0.8259292818501666  0.40210028904274475  0.8148584260419867  1.0000
  C   C43       1.0  0.8259597544237989  0.4123104635732675  0.34048594453522973  1.0000
  C   C44       1.0  0.8258960350537212  0.644414039244064  0.572426526223204  1.0000
  C   C45       1.0  0.8259929500827307  0.1699951538263047  0.5829179134024776  1.0000
  O   O2        1.0  0.8831707203978835  0.4131008914789194  0.38959613572160934  1.0000
  O   O3        1.0  0.8831483369498064  0.39939908113722744  0.7672018821424347  1.0000
  O   O4        1.0  0.8831207183445863  0.5950705121689202  0.5714363975882226  1.0000
  O   O5        1.0  0.8831982875611242  0.21742947056827333  0.5853615222490414  1.0000
  O   O6        1.0  0.7686890512117761  0.5969796716005071  0.5699826997768869  1.0000
  O   O7        1.0  0.7687166695045228  0.4013098009745535  0.7657481146220457  1.0000
  O   O8        1.0  0.7687390531207884  0.4150115655983544  0.38814080688499564  1.0000
  O   O9        1.0  0.7687666202760209  0.2193401354267579  0.5839062907786201  1.0000
