data_image0
_chemical_formula_structural       NC10NC5H10C12SCH12C13F3H9Zn2C4O8
_chemical_formula_sum              "N2 C45 H31 S1 F3 Zn2 O8"
_cell_length_a       19.4436361288709
_cell_length_b       10.299776766347529
_cell_length_c       10.2985328690268
_cell_angle_alpha    85.58005012136331
_cell_angle_beta     89.71035499971406
_cell_angle_gamma    89.39962546058797

_space_group_name_H-M_alt    "P 1"
_space_group_IT_number       1

loop_
  _space_group_symop_operation_xyz
  'x, y, z'

loop_
  _atom_site_type_symbol
  _atom_site_label
  _atom_site_symmetry_multiplicity
  _atom_site_fract_x
  _atom_site_fract_y
  _atom_site_fract_z
  _atom_site_occupancy
  N   N1        1.0  0.6473290844971514  0.40885177192183364  0.5620525585804639  1.0000
  C   C1        1.0  0.5884930364161423  0.41875545235685174  0.57643811709742  1.0000
  C   C2        1.0  0.5151636178934806  0.43110667652089596  0.594432413450519  1.0000
  C   C3        1.0  0.4729748666654874  0.39909767005603647  0.49974986973014746  1.0000
  C   C4        1.0  0.3970689661670688  0.4095365400287787  0.5050788657815453  1.0000
  C   C5        1.0  0.3573457094614295  0.384803015212168  0.6121582815930577  1.0000
  C   C6        1.0  0.2812230637329307  0.3887178839311707  0.5991981023081931  1.0000
  C   C7        1.0  0.2406603243799899  0.44639087632678875  0.6929787810412122  1.0000
  C   C8        1.0  0.1689951411707849  0.45002720055440437  0.6824342513394674  1.0000
  C   C9        1.0  0.1368980419513686  0.3955945632291582  0.5783955720708829  1.0000
  C   C10       1.0  0.0631035864497295  0.39929210958511985  0.5676957514830367  1.0000
  N   N2        1.0  0.003777849406069  0.4022647428510968  0.5590938051184406  1.0000
  C   C11       1.0  0.1767360554201277  0.3372145389020502  0.4849981229434597  1.0000
  C   C12       1.0  0.2484176497316203  0.33352395822467584  0.49529085328369993  1.0000
  C   C13       1.0  0.3854998227904788  0.3443599455946791  0.743260962909531  1.0000
  C   C14       1.0  0.4441610153545844  0.38748751897303024  0.790509193522271  1.0000
  C   C15       1.0  0.4883432757308662  0.4853347896622022  0.7161408757213668  1.0000
  H   H1        1.0  0.4950691700237809  0.36996905904087796  0.4094347091371313  1.0000
  H   H2        1.0  0.37235650876983817  0.432018703939272  0.4119144885712924  1.0000
  H   H3        1.0  0.2645319857543136  0.4896918653737037  0.7738354223859643  1.0000
  H   H4        1.0  0.138650323202661  0.4953508512165816  0.7553629197870178  1.0000
  H   H5        1.0  0.152392513630391  0.2941092489298156  0.40447599978070436  1.0000
  H   H6        1.0  0.2780973184369164  0.2859570364129942  0.4230584609114698  1.0000
  H   H7        1.0  0.3545525270203062  0.2801520764100658  0.8075096344631723  1.0000
  H   H8        1.0  0.4593275114481116  0.35343355296022483  0.8884494535012923  1.0000
  H   H9        1.0  0.4582157053357069  0.5760446536035839  0.6908914916408095  1.0000
  H   H10       1.0  0.5316307423063559  0.5109287560505424  0.7792319419479401  1.0000
  C   C16       1.0  0.8256216068344522  0.024191864347616  0.5605710458292459  1.0000
  C   C17       1.0  0.8297616782876547  0.01259646461582764  0.6970599955216217  1.0000
  C   C18       1.0  0.8317932660185323  0.889583587661628  0.7662259413409465  1.0000
  C   C19       1.0  0.8296301635650364  0.77731112333739  0.697076278538282  1.0000
  C   C20       1.0  0.8254919289991901  0.7869145413782608  0.5605865641649985  1.0000
  C   C21       1.0  0.8235104285054837  0.9107935792649327  0.4930979823044239  1.0000
  C   C22       1.0  0.8361654148170933  0.8783810092858513  0.9106159128588078  1.0000
  C   C23       1.0  0.796805575310946  0.7856711880324108  0.9849904182265099  1.0000
  C   C24       1.0  0.800940935307103  0.775362323879469  0.12087477625784204  1.0000
  C   C25       1.0  0.8442647429508985  0.8574884472906494  0.18419284853235096  1.0000
  C   C26       1.0  0.8837887873790535  0.9496218785510186  0.11119013975709657  1.0000
  C   C27       1.0  0.8797542799930752  0.9602787644833617  0.9752945288760013  1.0000
  S   S1        1.0  0.8496468245021516  0.8437988170153167  0.35855054546261345  1.0000
  C   C28       1.0  0.7805336976201653  0.961143953359698  0.3786542817041242  1.0000
  H   H11       1.0  0.824071110513353  0.3560632199288103  0.5085623356490556  1.0000
  H   H12       1.0  0.8304674343188846  0.09943113453622598  0.750016123049873  1.0000
  H   H13       1.0  0.8321292593834585  0.6822677838579554  0.7498213705302434  1.0000
  H   H14       1.0  0.8203170096669569  0.9189704401493469  0.38780255720223433  1.0000
  H   H15       1.0  0.8238807359837977  0.46312074591977564  0.5085830238840623  1.0000
  H   H16       1.0  0.7621799469038268  0.7223321794098844  0.9381604492490745  1.0000
  H   H17       1.0  0.7701932985488942  0.70388575405404  0.17685533900999506  1.0000
  H   H18       1.0  0.9176824847734241  0.013030787834808155  0.15961522829157548  1.0000
  H   H19       1.0  0.9113700641757942  0.03137078460404141  0.9207199002724231  1.0000
  H   H20       1.0  0.7942998455553134  0.057203907260643394  0.32965898537740357  1.0000
  H   H21       1.0  0.7725694119060349  0.9720036062111204  0.4840069308465631  1.0000
  H   H22       1.0  0.7321339093547514  0.9264926204798126  0.3369310297872057  1.0000
  C   C29       1.0  0.825537009332299  0.40543162729425064  0.17918147305192855  1.0000
  C   C30       1.0  0.8945109138904177  0.3632660796482481  0.1808212925429522  1.0000
  C   C31       1.0  0.9294604878318687  0.3420191464211009  0.06448134838269515  1.0000
  C   C32       1.0  0.8945514747036204  0.3635209442212666  0.9455202841790493  1.0000
  C   C33       1.0  0.825576500394555  0.4056748069241922  0.9419761241222111  1.0000
  C   C34       1.0  0.7915097544297192  0.4263557807737177  0.05930042726515783  1.0000
  C   C35       1.0  0.0023823278353152233  0.2974522946085165  0.06714946640270125  1.0000
  C   C36       1.0  0.049864325894201755  0.35117473602638727  0.9752147111108931  1.0000
  C   C37       1.0  0.11849353626890524  0.3093334735256681  0.9777472561321474  1.0000
  C   C38       1.0  0.1408898732594701  0.2115245332286122  0.07103102065743871  1.0000
  C   C39       1.0  0.0938056946915855  0.15961376646163083  0.16453983516012904  1.0000
  C   C40       1.0  0.02518095585474711  0.201488000957466  0.16211817462848765  1.0000
  C   C41       1.0  0.21546734470614726  0.16986024568847347  0.07669475520335234  1.0000
  F   F1        1.0  0.25072646288275724  0.24852241121137664  0.15588826833716984  1.0000
  F   F2        1.0  0.24475660273985778  0.180492044054277  0.9535946415533707  1.0000
  F   F3        1.0  0.22185872728059652  0.041622359141673115  0.12652537142413878  1.0000
  H   H23       1.0  0.6953329361623164  0.48592492846791613  0.3833436811155191  1.0000
  H   H24       1.0  0.9214478874959915  0.34860890049624604  0.2726764386717426  1.0000
  H   H25       1.0  0.9209689084653969  0.34565142061430576  0.8556699993517611  1.0000
  H   H26       1.0  0.7383499788128554  0.45884835710411487  0.057303463575014035  1.0000
  H   H27       1.0  0.6951129091839123  0.48458938488863046  0.7280112106825625  1.0000
  H   H28       1.0  0.034178224228339715  0.42722807359405546  0.9026170593427332  1.0000
  H   H29       1.0  0.15414395920654456  0.3539004859950534  0.9069669111392193  1.0000
  H   H30       1.0  0.11004117980609074  0.08644178187510576  0.23957585952118077  1.0000
  H   H31       1.0  0.9897780967366596  0.15787043038802318  0.23391615977718194  1.0000
  Zn  Zn1       1.0  0.7501925005789728  0.4069474286685604  0.5612062388721692  1.0000
  Zn  Zn2       1.0  0.9009144271962971  0.40415848189821224  0.5599508065866328  1.0000
  C   C42       1.0  0.825568382915255  0.40045520882660846  0.7977915015265165  1.0000
  C   C43       1.0  0.8255401904667232  0.4106523099340815  0.3233656577322406  1.0000
  C   C44       1.0  0.8255126143004466  0.6427421417785444  0.5554080851895593  1.0000
  C   C45       1.0  0.8255959079195845  0.16836381766387176  0.565749143709676  1.0000
  O   O1        1.0  0.8827394447052973  0.41134036225183124  0.3712787571250147  1.0000
  O   O2        1.0  0.8827635836584858  0.39764943060694735  0.7489251841839601  1.0000
  O   O3        1.0  0.8827177788077588  0.5932992078002222  0.5531988670390158  1.0000
  O   O4        1.0  0.8827851981182188  0.2156905952693513  0.567004977316621  1.0000
  O   O5        1.0  0.7683216782230544  0.5954153162505635  0.5541520685637666  1.0000
  O   O6        1.0  0.7683674828017315  0.399767099328705  0.7498783164898188  1.0000
  O   O7        1.0  0.7683433438211339  0.4134579852193123  0.3722303279125867  1.0000
  O   O8        1.0  0.7683890972378639  0.21780820897917974  0.5679566454791172  1.0000
