data_image0
_chemical_formula_structural       NC10NC3NCH9C13OH12C13F3H9Zn2C4O8
_chemical_formula_sum              "N3 C44 H30 O9 F3 Zn2"
_cell_length_a       19.437513618241372
_cell_length_b       10.299150109392551
_cell_length_c       10.2985328690268
_cell_angle_alpha    85.55822410433288
_cell_angle_beta     90.35299087610198
_cell_angle_gamma    89.50394211810362

_space_group_name_H-M_alt    "P 1"
_space_group_IT_number       1

loop_
  _space_group_symop_operation_xyz
  'x, y, z'

loop_
  _atom_site_type_symbol
  _atom_site_label
  _atom_site_symmetry_multiplicity
  _atom_site_fract_x
  _atom_site_fract_y
  _atom_site_fract_z
  _atom_site_occupancy
  N   N1        1.0  0.6475310965998025  0.41015137668509216  0.5751311614333541  1.0000
  C   C1        1.0  0.5885946114440034  0.42716194217682557  0.5721502317779537  1.0000
  C   C2        1.0  0.515150206722005  0.448415092390235  0.5684500783357791  1.0000
  C   C3        1.0  0.47340381808225157  0.3472146047758  0.5568178115886842  1.0000
  C   C4        1.0  0.3975114871501908  0.357278315264413  0.5495931389520436  1.0000
  C   C5        1.0  0.3579296788305192  0.43814933374113596  0.6153183524568318  1.0000
  C   C6        1.0  0.2817481162462168  0.42953832376665435  0.6068759818155902  1.0000
  C   C7        1.0  0.2486332200786671  0.3081857205961096  0.6115531776051573  1.0000
  C   C8        1.0  0.1768989348120079  0.3018117055679872  0.6043863314850266  1.0000
  C   C9        1.0  0.13730903388423754  0.4163176627548406  0.5929046792053918  1.0000
  C   C10       1.0  0.06346031633891581  0.4096054009350989  0.5855698221862524  1.0000
  N   N2        1.0  0.0040910454061036  0.40420933265465053  0.5796730554206084  1.0000
  C   C11       1.0  0.1697074582760181  0.5373598539917555  0.5889729018428782  1.0000
  C   C12       1.0  0.24142611160008762  0.5439878943797141  0.5962017040626919  1.0000
  C   C13       1.0  0.38660684039745624  0.5304629123991962  0.7052196819864147  1.0000
  N   N3        1.0  0.4435794541851263  0.5936752354884633  0.6847965043275857  1.0000
  C   C14       1.0  0.4874103013379843  0.5843863549450943  0.5716829113109778  1.0000
  H   H1        1.0  0.4958022633826337  0.2521484358760884  0.5447218982968722  1.0000
  H   H2        1.0  0.3728028681903732  0.287747037047819  0.4912897455898739  1.0000
  H   H3        1.0  0.2780994808748717  0.21826986168249318  0.62259965341693  1.0000
  H   H4        1.0  0.1523212864672708  0.20757941529070845  0.6082997798373815  1.0000
  H   H5        1.0  0.1395562566847787  0.6266213066700856  0.5802389298863639  1.0000
  H   H6        1.0  0.2655221686213259  0.6386330110612866  0.5922726809223595  1.0000
  H   H7        1.0  0.35660880205933004  0.550870060137473  0.7895871157126517  1.0000
  H   H8        1.0  0.5301519081552353  0.6547053550286994  0.5774273611054779  1.0000
  H   H9        1.0  0.4577294052581292  0.6124756413456556  0.48102270827217564  1.0000
  C   C15       1.0  0.8258792207661522  0.02577959203466107  0.5775471313499927  1.0000
  C   C16       1.0  0.824618994793477  0.014038536675194946  0.7143515300848209  1.0000
  C   C17       1.0  0.8239201557480139  0.8909518890890294  0.7834497881500475  1.0000
  C   C18       1.0  0.8244863271424134  0.7787852909510703  0.7139864193273842  1.0000
  C   C19       1.0  0.8257495179646324  0.7885709173159678  0.5772684634705836  1.0000
  C   C20       1.0  0.8264404750374947  0.9125288204387263  0.5098478127325603  1.0000
  C   C21       1.0  0.8225809761771677  0.8795130064670602  0.9280831252720088  1.0000
  C   C22       1.0  0.7802788433396709  0.7873586770621559  0.9955705175389007  1.0000
  C   C23       1.0  0.7789958828213175  0.7766764891101975  0.131670052870264  1.0000
  C   C24       1.0  0.8204431186521236  0.8569836163452049  0.2027483213204636  1.0000
  C   C25       1.0  0.8620870546665219  0.9501027470806105  0.1358951620845974  1.0000
  C   C26       1.0  0.863385985669123  0.9609604658259784  0.9997955414544797  1.0000
  C   C27       1.0  0.8176178479066404  0.8478832248730823  0.3488089853618924  1.0000
  O   O1        1.0  0.7661972582540084  0.9319279515450714  0.38839749660677036  1.0000
  H   H10       1.0  0.8278109734218276  0.25524166918990776  0.3193167241650676  1.0000
  H   H11       1.0  0.8232242321349913  0.10085015072658088  0.7673461079138972  1.0000
  H   H12       1.0  0.824881600964796  0.6836710455256377  0.7668287238822138  1.0000
  H   H13       1.0  0.8274128651043691  0.9207930078747737  0.4043931376559955  1.0000
  H   H14       1.0  0.8261890778592531  0.46486011613814443  0.5246813528100058  1.0000
  H   H15       1.0  0.7473733720638792  0.7248838440180402  0.9430389645321089  1.0000
  H   H16       1.0  0.7455304311705239  0.7059186534696648  0.1816229052344075  1.0000
  H   H17       1.0  0.8937252648798202  0.014151877898340715  0.189156831263246  1.0000
  H   H18       1.0  0.8968745308526311  0.03216357511213919  0.9506496838486858  1.0000
  H   H19       1.0  0.8682275502128063  0.8748802218789956  0.38962652199921144  1.0000
  H   H20       1.0  0.8064390050159429  0.7460587922074592  0.38648185634070864  1.0000
  H   H21       1.0  0.7664570827010125  0.9222733839671503  0.4850343540118951  1.0000
  C   C28       1.0  0.8257946155968429  0.4070536524008801  0.19601009626877275  1.0000
  C   C29       1.0  0.8947900354099809  0.3650092042257278  0.19911693698749278  1.0000
  C   C30       1.0  0.9297505112918532  0.3438236436942548  0.08352029770266256  1.0000
  C   C31       1.0  0.8948306088891856  0.36526416528397276  0.9638166844541431  1.0000
  C   C32       1.0  0.8258341189908042  0.4072969255228529  0.9588054851318937  1.0000
  C   C33       1.0  0.7917567464676675  0.4279180743099078  0.07540527049894186  1.0000
  C   C34       1.0  0.0026950980432971505  0.2993848239563932  0.08773940181113549  1.0000
  C   C35       1.0  0.050191911380853105  0.35319810851428457  0.9967829306856673  1.0000
  C   C36       1.0  0.11884252949457275  0.3114773505571431  0.00077512216149489  1.0000
  C   C37       1.0  0.14124584851625  0.21370013090219553  0.09456738305145906  1.0000
  C   C38       1.0  0.0941469788637499  0.1616994051462659  0.18710558947245448  1.0000
  C   C39       1.0  0.025500833684470203  0.20345314617585442  0.18322436394823982  1.0000
  C   C40       1.0  0.21584658334970652  0.1721671360268937  0.10181582175889292  1.0000
  F   F1        1.0  0.25111670494009686  0.25090026307855373  0.1817209730645437  1.0000
  F   F2        1.0  0.24514497907877408  0.18285293713233086  0.9793277629683161  1.0000
  F   F3        1.0  0.22223995350260894  0.04392923590899733  0.151829888054126  1.0000
  H   H22       1.0  0.6955499274896471  0.48731843151376086  0.3974026226628544  1.0000
  H   H23       1.0  0.921735411642492  0.3503994826629222  0.2915443198743217  1.0000
  H   H24       1.0  0.9212562830427717  0.34744086811196206  0.8745289350741365  1.0000
  H   H25       1.0  0.7385803885483412  0.4603173160048111  0.07227764184288721  1.0000
  H   H26       1.0  0.6953298318053098  0.48598236878595635  0.7420660341767693  1.0000
  H   H27       1.0  0.0345009199624402  0.42922991154329093  0.9238262499298457  1.0000
  H   H28       1.0  0.1545040762441665  0.3561129521980533  0.9307276754214011  1.0000
  H   H29       1.0  0.11038752525978612  0.08855021038860356  0.2625110983919481  1.0000
  H   H30       1.0  0.990086928031882  0.15976752056186072  0.2542942956922569  1.0000
  Zn  Zn1       1.0  0.7504266021974112  0.408433144021366  0.576449364723586  1.0000
  Zn  Zn2       1.0  0.9011955483852991  0.40591689828365274  0.5783655267064403  1.0000
  C   C41       1.0  0.8258259987227938  0.40207684105724506  0.814622686339469  1.0000
  C   C42       1.0  0.8257977979800724  0.4122748125671618  0.34019235289232563  1.0000
  C   C43       1.0  0.8257702246098734  0.644385567203914  0.5721455120284946  1.0000
  C   C44       1.0  0.8258535209150084  0.16996452686865804  0.5826695963634152  1.0000
  O   O2        1.0  0.8830148963197635  0.4130665132576068  0.3893084108928866  1.0000
  O   O3        1.0  0.8830390421310046  0.3993743881505092  0.7669605774306594  1.0000
  O   O4        1.0  0.8829932325999629  0.5950417622292332  0.5711585333121205  1.0000
  O   O5        1.0  0.8830606543969535  0.2173991492974483  0.5851103569721594  1.0000
  O   O6        1.0  0.7685614447357145  0.5969508938676535  0.5697045337971423  1.0000
  O   O7        1.0  0.768607253994698  0.4012850802008463  0.7655065080948413  1.0000
  O   O8        1.0  0.7685831081560373  0.41497715954948355  0.387852780055689  1.0000
  O   O9        1.0  0.7686288662370364  0.21930978633084242  0.5836548235135042  1.0000
