data_image0
_chemical_formula_structural       NC9NC5H8C12NH11C13NH13Zn2C4O8
_chemical_formula_sum              "N4 C43 H32 Zn2 O8"
_cell_length_a       17.807436237873137
_cell_length_b       10.299770795358612
_cell_length_c       10.299780419254978
_cell_angle_alpha    85.56832973562953
_cell_angle_beta     89.37921623596309
_cell_angle_gamma    88.40764042794568

_space_group_name_H-M_alt    "P 1"
_space_group_IT_number       1

loop_
  _space_group_symop_operation_xyz
  'x, y, z'

loop_
  _atom_site_type_symbol
  _atom_site_label
  _atom_site_symmetry_multiplicity
  _atom_site_fract_x
  _atom_site_fract_y
  _atom_site_fract_z
  _atom_site_occupancy
  N   N1        1.0  0.7078531015982595  0.38741891329464373  0.5570540471276164  1.0000
  C   C1        1.0  0.6472607816608184  0.3522271247528035  0.546033730228286  1.0000
  C   C2        1.0  0.5718905953210738  0.30845241532544554  0.5323256525738316  1.0000
  C   C3        1.0  0.5538005919082851  0.2370147832974956  0.42733304030597785  1.0000
  C   C4        1.0  0.4806200214646426  0.19440140027143316  0.4139407650414799  1.0000
  C   C5        1.0  0.4244806729801507  0.2228481165912659  0.5055086859883084  1.0000
  C   C6        1.0  0.3467086006619139  0.17767599895640496  0.4913582265792231  1.0000
  C   C7        1.0  0.2845433328745198  0.2594370298590929  0.5172887618655013  1.0000
  C   C8        1.0  0.2112204195201603  0.21662061404222865  0.5039101857610062  1.0000
  C   C9        1.0  0.1480054929218537  0.30107304805111257  0.5302043655250042  1.0000
  N   N2        1.0  0.097193679285717  0.36896696248098504  0.5513441601265237  1.0000
  C   C10       1.0  0.1994791865110251  0.09178518459413487  0.4645757490519602  1.0000
  C   C11       1.0  0.2607870831362844  0.010010299681570967  0.4386368256283726  1.0000
  C   C12       1.0  0.3339905214269613  0.05243213377487277  0.4518129065057348  1.0000
  C   C13       1.0  0.4432621394972751  0.29478015828994364  0.6107204750374875  1.0000
  C   C14       1.0  0.5164955682979855  0.3372031144034626  0.623957122411885  1.0000
  H   H1        1.0  0.5962011649125422  0.2145138499982353  0.35562487069324566  1.0000
  H   H2        1.0  0.4677090685481699  0.1407012726031489  0.3310281382775009  1.0000
  H   H3        1.0  0.2930542870476869  0.35690724127800344  0.5461558729946006  1.0000
  H   H4        1.0  0.1430095199306244  0.05774716244383171  0.4539843511198818  1.0000
  H   H5        1.0  0.2515780922604193  0.9133599112770328  0.4085692707067643  1.0000
  H   H6        1.0  0.3806221979623167  0.9866836048223945  0.43277118780527757  1.0000
  H   H7        1.0  0.4015781762898261  0.3167423365124338  0.6837231465379361  1.0000
  H   H8        1.0  0.5299352287346534  0.39212358207282616  0.7058280476893612  1.0000
  C   C15       1.0  0.9024588956855086  0.9968274784658331  0.5542396622839822  1.0000
  C   C16       1.0  0.8806717229556607  0.007007609188936614  0.42315397116741105  1.0000
  C   C17       1.0  0.8697009028307972  0.8950265306545512  0.35669571359770935  1.0000
  C   C18       1.0  0.8808092382800364  0.7717194640912212  0.42308340431009395  1.0000
  C   C19       1.0  0.9025950514147375  0.7595481061057872  0.5541696658912951  1.0000
  C   C20       1.0  0.9132982445924356  0.8726624876755215  0.6190135989676571  1.0000
  C   C21       1.0  0.846651667526611  0.906849907679956  0.21801465592709968  1.0000
  C   C22       1.0  0.7919547596557894  0.000610518722135911  0.17363143489686195  1.0000
  C   C23       1.0  0.770293032093597  0.011607929005984285  0.043103290170021014  1.0000
  C   C24       1.0  0.8029182351322467  0.9292831638774974  0.9548843223466599  1.0000
  C   C25       1.0  0.8574349872260336  0.8357289848760823  0.9983796618267147  1.0000
  C   C26       1.0  0.8791569000965704  0.8244726901564496  0.12887695207965488  1.0000
  N   N3        1.0  0.7807290850016174  0.9406649961967604  0.8213795249980205  1.0000
  H   H9        1.0  0.910728864610401  0.3204021535875481  0.6042069881833407  1.0000
  H   H10       1.0  0.8731788752613533  0.10225720285901563  0.37191364502233837  1.0000
  H   H11       1.0  0.8714304710542546  0.6851243878239129  0.37281080202808825  1.0000
  H   H12       1.0  0.9301054903966147  0.8640409688801436  0.7201404130041276  1.0000
  H   H13       1.0  0.9109291204200206  0.42745626255048597  0.6041044315667736  1.0000
  H   H14       1.0  0.7652217591700269  0.0643025090602114  0.24022409857583638  1.0000
  H   H15       1.0  0.7279421761878099  0.08408928379758929  0.010814114251890494  1.0000
  H   H16       1.0  0.8832389907216246  0.7717353222564379  0.9311113764260366  1.0000
  H   H17       1.0  0.9220838744550883  0.7524739998634845  0.1597181932865981  1.0000
  H   H18       1.0  0.8047298180481631  0.8797182895537707  0.754890540471175  1.0000
  H   H19       1.0  0.7401367725672576  0.010122773971904087  0.78804143185635  1.0000
  C   C27       1.0  0.9025781170023323  0.3781004899259537  0.17284979128968447  1.0000
  C   C28       1.0  0.9569877907164392  0.47455091339155  0.16338145852325625  1.0000
  C   C29       1.0  0.9844996942984906  0.5235211361946421  0.041440699986761365  1.0000
  C   C30       1.0  0.956884641713713  0.47472803437084843  0.9280827800368181  1.0000
  C   C31       1.0  0.9024758600357167  0.37827504928639577  0.9355595465931943  1.0000
  C   C32       1.0  0.875625206065844  0.3305049103470741  0.05839292010886443  1.0000
  C   C33       1.0  0.042062989814899865  0.6255547071596421  0.03251555653286853  1.0000
  C   C34       1.0  0.03700317023023181  0.7303720510769061  0.9367541470816358  1.0000
  C   C35       1.0  0.0912073934735258  0.82631967005266  0.9284389244517195  1.0000
  C   C36       1.0  0.15109179302246312  0.81977849229256  0.01623549621303999  1.0000
  C   C37       1.0  0.1568717439734295  0.7146481822776827  0.11092959695491467  1.0000
  C   C38       1.0  0.10268304962218289  0.6186751283920502  0.11941736471822306  1.0000
  C   C39       1.0  0.2104346142224891  0.9211837229814843  0.004900485075788552  1.0000
  N   N4        1.0  0.2680197542592342  0.8858027150362924  0.9111810040702029  1.0000
  H   H20       1.0  0.8818760068075567  0.34130005319202317  0.5039140446635073  1.0000
  H   H21       1.0  0.9773591755424135  0.5130912720021417  0.2509490640129284  1.0000
  H   H22       1.0  0.9786696662553551  0.510850530037152  0.8339524855084508  1.0000
  H   H23       1.0  0.8336508704208119  0.25609674213739164  0.06492874005581872  1.0000
  H   H24       1.0  0.8817293693921736  0.3415457106149946  0.6109534348364356  1.0000
  H   H25       1.0  0.9906720618926894  0.7389142161301336  0.8691313428835543  1.0000
  H   H26       1.0  0.08638294550276115  0.9059483140164108  0.8536633423006097  1.0000
  H   H27       1.0  0.2034819320329091  0.706745049333291  0.17802172583643805  1.0000
  H   H28       1.0  0.1088166726968336  0.5379672823077346  0.1927079503119442  1.0000
  H   H29       1.0  0.18449333397686218  0.01743953433637646  0.971991925062599  1.0000
  H   H30       1.0  0.23634433037940705  0.9312661153858972  0.10137618449538488  1.0000
  H   H31       1.0  0.3059439471849248  0.9616967515204857  0.9006783948901251  1.0000
  H   H32       1.0  0.298144977134003  0.8040717335509608  0.9515188288188736  1.0000
  Zn  Zn1       1.0  0.8202083792807439  0.38209061533991817  0.5554138079135187  1.0000
  Zn  Zn2       1.0  0.9848383800845077  0.3742846768059427  0.5529950765309706  1.0000
  C   C40       1.0  0.902492568264239  0.37306853349796976  0.791391600918669  1.0000
  C   C41       1.0  0.9025559891309338  0.3833083120405185  0.3170173844248392  1.0000
  C   C42       1.0  0.9025661465834129  0.6153766635205415  0.5490080106792394  1.0000
  C   C43       1.0  0.9024823543472191  0.14099862440962374  0.5594010448687907  1.0000
  O   O1        1.0  0.965024789132279  0.38208812603582865  0.3644834502334684  1.0000
  O   O2        1.0  0.9649741294692662  0.36836321297370134  0.742089400213876  1.0000
  O   O3        1.0  0.9650327025020131  0.564030132613984  0.546362948441439  1.0000
  O   O4        1.0  0.964966159937181  0.18642121832702818  0.5602098054593139  1.0000
  O   O5        1.0  0.8400805432479325  0.569954076484029  0.5481990798037388  1.0000
  O   O6        1.0  0.8400219704995873  0.3742887171172655  0.7439254621902172  1.0000
  O   O7        1.0  0.8400726304138673  0.3880135845640713  0.3663179508699326  1.0000
  O   O8        1.0  0.8400140012009818  0.19234666758898444  0.5620444034609331  1.0000
