data_image0
_chemical_formula_structural       NC10NC3NH7C12OCH12C12ClH9Zn2C4O8
_chemical_formula_sum              "N3 C42 H28 O9 Cl1 Zn2"
_cell_length_a       19.210446455230148
_cell_length_b       10.29979075500242
_cell_length_c       10.299771906710086
_cell_angle_alpha    85.53978707277841
_cell_angle_beta     89.99986541556282
_cell_angle_gamma    89.92936594805748

_space_group_name_H-M_alt    "P 1"
_space_group_IT_number       1

loop_
  _space_group_symop_operation_xyz
  'x, y, z'

loop_
  _atom_site_type_symbol
  _atom_site_label
  _atom_site_symmetry_multiplicity
  _atom_site_fract_x
  _atom_site_fract_y
  _atom_site_fract_z
  _atom_site_occupancy
  N   N1        1.0  0.6551074118386863  0.4205936277035378  0.5672670334775665  1.0000
  C   C1        1.0  0.5948783413073638  0.4228010311453674  0.5674980927371822  1.0000
  C   C2        1.0  0.5200732555385011  0.42553780726083934  0.5677843462457615  1.0000
  C   C3        1.0  0.48443517870608876  0.5417615201604031  0.5828914355892505  1.0000
  C   C4        1.0  0.4117696557563447  0.541913070460394  0.5828388323685294  1.0000
  C   C5        1.0  0.3749063342718136  0.426246734390352  0.5678708007825264  1.0000
  C   C6        1.0  0.2975845271868433  0.42489033004294474  0.5677202634909506  1.0000
  C   C7        1.0  0.2597976821138422  0.5284782085188178  0.5043545990198048  1.0000
  C   C8        1.0  0.1870196647911228  0.5270760372650587  0.5042455811409494  1.0000
  C   C9        1.0  0.151027011788716  0.4223435079519007  0.5674512208417459  1.0000
  C   C10       1.0  0.0760978018714248  0.42104149242444655  0.5673144446138991  1.0000
  N   N2        1.0  0.01586019891874  0.4199946277218305  0.5672045114042292  1.0000
  C   C11       1.0  0.1880901653196517  0.31888132722328644  0.6307918719317098  1.0000
  C   C12       1.0  0.2608701054129913  0.32000922035222223  0.6309511464120117  1.0000
  C   C13       1.0  0.4131538499884419  0.3118431552116594  0.5530518021994582  1.0000
  N   N3        1.0  0.4839232046243345  0.3142880331896556  0.5532172666720074  1.0000
  H   H1        1.0  0.5125151060265977  0.6311897548448631  0.5949362414680064  1.0000
  H   H2        1.0  0.3844797722929111  0.631922732901639  0.5962783326141308  1.0000
  H   H3        1.0  0.2864989228531424  0.6097456068140292  0.45336093559905066  1.0000
  H   H4        1.0  0.1588475676184463  0.6075153395274544  0.4545823387104424  1.0000
  H   H5        1.0  0.1607491609582847  0.2374786768139896  0.6803556686121779  1.0000
  H   H6        1.0  0.2883974594260696  0.2396886620279921  0.6820521043765999  1.0000
  H   H7        1.0  0.3869097505097712  0.22097060249080047  0.5395660895968806  1.0000
  C   C14       1.0  0.8355496893821205  0.03892626704818403  0.5672747133342622  1.0000
  C   C15       1.0  0.8154112970837036  0.027754802809157653  0.6987165778434228  1.0000
  C   C16       1.0  0.8051517783883915  0.9049579531413087  0.7652860284318976  1.0000
  C   C17       1.0  0.8152862330236769  0.7924727366639146  0.6986508142770576  1.0000
  C   C18       1.0  0.8354245943406589  0.8016519864612907  0.5672080172563418  1.0000
  C   C19       1.0  0.8454451794436976  0.9253198648301721  0.5022566285490506  1.0000
  C   C20       1.0  0.7838507410895132  0.894193272834484  0.9043453962709058  1.0000
  C   C21       1.0  0.733064319447749  0.8033980597935029  0.9494198586381335  1.0000
  C   C22       1.0  0.7130790213293511  0.7935402380157552  0.08016267290698376  1.0000
  C   C23       1.0  0.7434299725631768  0.8738093368273293  0.16750578593159704  1.0000
  C   C24       1.0  0.7944018717673588  0.965212773939076  0.12430300150521068  1.0000
  C   C25       1.0  0.8141713278451501  0.9747099220771827  0.9930335237294037  1.0000
  O   O1        1.0  0.8265851395115726  0.04783448039821425  0.2081660474606042  1.0000
  C   C26       1.0  0.8116732951931209  0.048796259339614956  0.34350504748317556  1.0000
  H   H8        1.0  0.843253744868484  0.3706344948424245  0.5172110074533323  1.0000
  H   H9        1.0  0.8067350090855498  0.11478041107451298  0.7491469594220077  1.0000
  H   H10       1.0  0.8083513430272073  0.6975687070239683  0.7500200093847056  1.0000
  H   H11       1.0  0.8609816339802041  0.9331697801358669  0.4008547833823335  1.0000
  H   H12       1.0  0.8430635916909858  0.477698297869233  0.5171066874666284  1.0000
  H   H13       1.0  0.7081609832113088  0.74123028468291  0.8832144937917716  1.0000
  H   H14       1.0  0.6737683565834255  0.7236253419309157  0.11384836183050029  1.0000
  H   H15       1.0  0.7269423846545112  0.8640569621450895  0.26817546418812077  1.0000
  H   H16       1.0  0.8540437726251477  0.04419722066412057  0.9608605985331513  1.0000
  H   H17       1.0  0.8237021845909192  0.9522320249971701  0.3941256594672986  1.0000
  H   H18       1.0  0.8445250024920732  0.12336803938485308  0.3857137652260504  1.0000
  H   H19       1.0  0.7561055637987393  0.07379484184481466  0.35795019705663333  1.0000
  C   C27       1.0  0.8354539824478555  0.4203955134456423  0.1858721173325364  1.0000
  C   C28       1.0  0.898580749388799  0.48917356940995926  0.17952746467136782  1.0000
  C   C29       1.0  0.9306015581628112  0.5239157535736088  0.05918224424778962  1.0000
  C   C30       1.0  0.8986479330208846  0.4889582959245595  0.9442576955614408  1.0000
  C   C31       1.0  0.8355202706641395  0.42018280133401054  0.9486106921933737  1.0000
  C   C32       1.0  0.8042771279874997  0.38628572194345834  0.0698858315373303  1.0000
  C   C33       1.0  0.9973848763340087  0.5966758051356285  0.05352387828021943  1.0000
  C   C34       1.0  0.008369566508178883  0.6996625785765225  0.1333150728595618  1.0000
  C   C35       1.0  0.07125897220270128  0.7680454103874359  0.1278019198309437  1.0000
  C   C36       1.0  0.12387725700768537  0.73448727492325  0.04280765973806111  1.0000
  C   C37       1.0  0.11355696508369628  0.6323588642103677  0.9631450700624891  1.0000
  C   C38       1.0  0.050729985390206345  0.563775607146713  0.9682825985514154  1.0000
  Cl  Cl1       1.0  0.20273976660455162  0.8204064785999425  0.03612686591181968  1.0000
  H   H20       1.0  0.8113811488420782  0.3942449660020111  0.5157386841706504  1.0000
  H   H21       1.0  0.9234816429069173  0.5143317098916378  0.26850175162974077  1.0000
  H   H22       1.0  0.9226314101648481  0.5170595345635294  0.8511415131340914  1.0000
  H   H23       1.0  0.7555773098749561  0.3332277383363589  0.07401223649504884  1.0000
  H   H24       1.0  0.8114790009626687  0.39393023224568613  0.6228195099383678  1.0000
  H   H25       1.0  0.9680108123258027  0.7283826867148444  0.19869350006927355  1.0000
  H   H26       1.0  0.07894286759338898  0.8473065191830673  0.18942727653909808  1.0000
  H   H27       1.0  0.1542330321236558  0.605785373809455  0.897422825084671  1.0000
  H   H28       1.0  0.04420155478510179  0.48397230258399127  0.906876623861324  1.0000
  Zn  Zn1       1.0  0.7592128738813583  0.4204173031123306  0.5672564903346784  1.0000
  Zn  Zn2       1.0  0.911754723596482  0.4201603668280727  0.5672256912590194  1.0000
  C   C39       1.0  0.8355070430668415  0.4150493211102124  0.8044371954230529  1.0000
  C   C40       1.0  0.8354622199055385  0.4255299846039786  0.3300451131577038  1.0000
  C   C41       1.0  0.8354441898904404  0.6574820633435794  0.5620454863268873  1.0000
  C   C42       1.0  0.8355250212920349  0.1830956821406855  0.5724368916394165  1.0000
  O   O2        1.0  0.8933538223893415  0.4271499883220127  0.3784191999995967  1.0000
  O   O3        1.0  0.8933911750668934  0.41323332908199295  0.7560393590346026  1.0000
  O   O4        1.0  0.8933396400802265  0.6090008353537  0.5603063390174583  1.0000
  O   O5        1.0  0.8934053053138203  0.23138249145533774  0.5741521226516799  1.0000
  O   O6        1.0  0.7775622401089722  0.6091951785741614  0.5603300589456968  1.0000
  O   O7        1.0  0.7776137748304959  0.4134292326214766  0.7560630095809722  1.0000
  O   O8        1.0  0.7775764220709468  0.42734584704108425  0.37844128914776554  1.0000
  O   O9        1.0  0.7776279050025661  0.23157834085847329  0.5741743091685894  1.0000
