data_image0
_chemical_formula_structural       NC12NC2H8C12NH11C13F3H9Zn2C4O8
_chemical_formula_sum              "N3 C43 H28 F3 Zn2 O8"
_cell_length_a       17.80743265337812
_cell_length_b       10.299770795358612
_cell_length_c       10.2985328690268
_cell_angle_alpha    85.57387741516429
_cell_angle_beta     91.53993439614001
_cell_angle_gamma    89.45311437677636

_space_group_name_H-M_alt    "P 1"
_space_group_IT_number       1

loop_
  _space_group_symop_operation_xyz
  'x, y, z'

loop_
  _atom_site_type_symbol
  _atom_site_label
  _atom_site_symmetry_multiplicity
  _atom_site_fract_x
  _atom_site_fract_y
  _atom_site_fract_z
  _atom_site_occupancy
  N   N1        1.0  0.707583461331687  0.4061935817426483  0.6011646710725056  1.0000
  C   C1        1.0  0.6567645264006584  0.43572846902191564  0.5324599899349189  1.0000
  C   C2        1.0  0.5935407567328156  0.47246772619676936  0.447000015259184  1.0000
  C   C3        1.0  0.6052689732795841  0.5264443383455051  0.320369335125928  1.0000
  C   C4        1.0  0.5439524426502099  0.5616808414064656  0.23730557689842136  1.0000
  C   C5        1.0  0.4707533971786825  0.5432039671880851  0.2802125407370304  1.0000
  C   C6        1.0  0.45804841611214325  0.4891087147345272  0.40731139923303883  1.0000
  C   C7        1.0  0.5202222623594  0.4538754598407473  0.4903586445610162  1.0000
  C   C8        1.0  0.38028114856355943  0.4695187089223578  0.45307889731236317  1.0000
  C   C9        1.0  0.3615084499461512  0.4967490825208065  0.5801296732610075  1.0000
  C   C10       1.0  0.2882794685083171  0.4783137955371455  0.6230772002369453  1.0000
  C   C11       1.0  0.23288022734299482  0.4323941554688091  0.5398119861290225  1.0000
  C   C12       1.0  0.1575146369635602  0.41340653210140554  0.5841605585999046  1.0000
  N   N2        1.0  0.0969260393755873  0.3981417598981918  0.6198137599825821  1.0000
  C   C13       1.0  0.2509614394525718  0.40499505885833953  0.4133042229721189  1.0000
  C   C14       1.0  0.3241375512205972  0.4234450422456173  0.37010079218269665  1.0000
  H   H1        1.0  0.6617349354110952  0.541256063430972  0.2859293670766989  1.0000
  H   H2        1.0  0.5531513316065836  0.6037437130299925  0.13951806558035118  1.0000
  H   H3        1.0  0.42411483632821606  0.5728165442552835  0.21461599528424125  1.0000
  H   H4        1.0  0.5117215086732608  0.4104272418770072  0.5880217802000616  1.0000
  H   H5        1.0  0.4031957043676941  0.5339510259678364  0.6457047933027975  1.0000
  H   H6        1.0  0.27484648368802017  0.5001933732540538  0.7210909824435667  1.0000
  H   H7        1.0  0.20855755286257244  0.3690605361110362  0.3481420121543053  1.0000
  H   H8        1.0  0.3370418967685743  0.40003002898848283  0.2723904505269714  1.0000
  C   C15       1.0  0.9021902706692383  0.020800488886758783  0.610525702751298  1.0000
  C   C16       1.0  0.8803779155553282  0.030386382122695732  0.4780607788354667  1.0000
  C   C17       1.0  0.8693943289795466  0.9181060362847824  0.410907960273015  1.0000
  C   C18       1.0  0.8805154185137408  0.7951019039610772  0.4779988071395831  1.0000
  C   C19       1.0  0.9023264141304936  0.7835247471964505  0.6104642165252474  1.0000
  C   C20       1.0  0.9130420636426877  0.8969310962555529  0.6759857680174457  1.0000
  C   C21       1.0  0.8463184521763379  0.9293007533243867  0.27076777492996795  1.0000
  C   C22       1.0  0.7916126405833931  0.021596078443497646  0.22295692357981722  1.0000
  C   C23       1.0  0.7699258380067361  0.032002654320264945  0.09105746312889496  1.0000
  C   C24       1.0  0.802534470795638  0.9505411953411377  0.0048689045643632856  1.0000
  C   C25       1.0  0.8570599557840316  0.85844740686178  0.05178049370200877  1.0000
  C   C26       1.0  0.8788069382626366  0.8477835514326509  0.1836528614630346  1.0000
  N   N3        1.0  0.7803196735561849  0.961317826329386  0.8699594272464446  1.0000
  H   H9        1.0  0.9104698383528735  0.3446007440794616  0.6610165832095103  1.0000
  H   H10       1.0  0.8728752324368425  0.1254310366351108  0.4263453634653507  1.0000
  H   H11       1.0  0.8711269854445983  0.7082515992534495  0.4271332394343548  1.0000
  H   H12       1.0  0.9298687365378541  0.8887679895224024  0.7781765619714487  1.0000
  H   H13       1.0  0.9106700761939235  0.4516601930137894  0.6609265432669602  1.0000
  H   H14       1.0  0.764892131464071  0.08458014710994433  0.2878851766855104  1.0000
  H   H15       1.0  0.7275684841606169  0.10334965754879688  0.056114588022678547  1.0000
  H   H16       1.0  0.882851331607951  0.7951367861292796  0.9861184120521096  1.0000
  H   H17       1.0  0.9217401389187431  0.776934467810651  0.21718366972179926  1.0000
  H   H18       1.0  0.8043079132236337  0.9010060625651823  0.8049639181901727  1.0000
  H   H19       1.0  0.739720677094602  0.02968813158964001  0.8340775317015368  1.0000
  C   C27       1.0  0.9022367311419799  0.40204111526730846  0.22909647676090916  1.0000
  C   C28       1.0  0.9775607940654185  0.35959207324575027  0.23492116465649193  1.0000
  C   C29       1.0  0.01572808218065047  0.338201491538334  0.12070171269593932  1.0000
  C   C30       1.0  0.977605191019923  0.3598467714853524  0.9996225919213821  1.0000
  C   C31       1.0  0.9022799553633317  0.4022841329439959  0.9918934996721704  1.0000
  C   C32       1.0  0.8650767641866874  0.42310512666644406  0.10715087700373727  1.0000
  C   C33       1.0  0.09536355600078816  0.29333491868642736  0.12779423194651773  1.0000
  C   C34       1.0  0.14724717763703898  0.34686231304249304  0.03873286824525146  1.0000
  C   C35       1.0  0.22219485309359244  0.3047389730710679  0.045429357683030025  1.0000
  C   C36       1.0  0.24662249395217972  0.20683786624758493  0.14007959761682498  1.0000
  C   C37       1.0  0.19517406597644404  0.15512051421735018  0.2307389714263659  1.0000
  C   C38       1.0  0.12023128674044403  0.19727680785342416  0.22415363454727277  1.0000
  C   C39       1.0  0.3280674526600942  0.16486705804012236  0.15026783135756494  1.0000
  F   F1        1.0  0.3666092440405555  0.2433844382306345  0.23159155282393074  1.0000
  F   F2        1.0  0.360063652983595  0.1753785112266566  0.02894220677955439  1.0000
  F   F3        1.0  0.3350019778477129  0.03660273362173716  0.20049749268704375  1.0000
  H   H20       1.0  0.7600456032272439  0.48306957834432374  0.4253587042003417  1.0000
  H   H21       1.0  0.006978409086906945  0.34482418104006407  0.32841049960078794  1.0000
  H   H22       1.0  0.006454148416537686  0.3418686654452423  0.9113752934306967  1.0000
  H   H23       1.0  0.8070227734140993  0.4558161986291749  0.10192853941048563  1.0000
  H   H24       1.0  0.7598047837614257  0.48173493712412285  0.7700130171516268  1.0000
  H   H25       1.0  0.13014112707964665  0.4229802130541289  0.9651774713043002  1.0000
  H   H26       1.0  0.2611516432200438  0.34915954607453115  0.9768060287354361  1.0000
  H   H27       1.0  0.21288125143063907  0.0818817134809473  0.3067657824689194  1.0000
  H   H28       1.0  0.08154525362593334  0.1538046607101633  0.29380952445592157  1.0000
  Zn  Zn1       1.0  0.8199393222366528  0.40386653500874936  0.60655388308208  1.0000
  Zn  Zn2       1.0  0.9845701746861  0.4004582165976627  0.6144351426993202  1.0000
  C   C40       1.0  0.9022691875097723  0.3970645611421124  0.8477088576994183  1.0000
  C   C41       1.0  0.9022421074764921  0.407261791898033  0.3732803814894423  1.0000
  C   C42       1.0  0.9022965243248563  0.6393520510656103  0.6053001192706553  1.0000
  C   C43       1.0  0.9022147142098109  0.16497274286439367  0.6156891865985679  1.0000
  O   O1        1.0  0.9647204613357847  0.4077147938776693  0.42466071446016507  1.0000
  O   O2        1.0  0.9647418411649167  0.3940237445145973  0.8023098446221206  1.0000
  O   O3        1.0  0.9647630738515659  0.5896739746377286  0.6065630328307754  1.0000
  O   O4        1.0  0.964699172467917  0.21206457417672175  0.6204074261791983  1.0000
  O   O5        1.0  0.8398102682744052  0.5922601785941937  0.6005815969058832  1.0000
  O   O6        1.0  0.8397890358589231  0.39661150874570716  0.7963283393205474  1.0000
  O   O7        1.0  0.8397676559831866  0.4103025123545536  0.4186776476427865  1.0000
  O   O8        1.0  0.839746367116107  0.21465228339592524  0.6144244567378134  1.0000
