data_image0
_chemical_formula_structural       NC12NC2H8C12SCH12C15H12Zn2C4O8
_chemical_formula_sum              "N2 C46 H32 S1 Zn2 O8"
_cell_length_a       19.240039667572717
_cell_length_b       10.299776766347529
_cell_length_c       10.299157797200024
_cell_angle_alpha    85.5458752322557
_cell_angle_beta     90.02248165465589
_cell_angle_gamma    89.97991714870845

_space_group_name_H-M_alt    "P 1"
_space_group_IT_number       1

loop_
  _space_group_symop_operation_xyz
  'x, y, z'

loop_
  _atom_site_type_symbol
  _atom_site_label
  _atom_site_symmetry_multiplicity
  _atom_site_fract_x
  _atom_site_fract_y
  _atom_site_fract_z
  _atom_site_occupancy
  N   N1        1.0  0.6539094647959872  0.4216711758189977  0.5674461191370304  1.0000
  C   C1        1.0  0.5937610959457336  0.4216712598229415  0.5674460371999914  1.0000
  C   C2        1.0  0.5189430587537154  0.42167137714691694  0.5674458998937997  1.0000
  C   C3        1.0  0.48250316826424217  0.35717697290020034  0.6708603776485151  1.0000
  C   C4        1.0  0.4098324591514463  0.35706606788107464  0.6709469186357606  1.0000
  C   C5        1.0  0.3726108237511782  0.42167146977670233  0.5674456722038077  1.0000
  C   C6        1.0  0.4097648667439159  0.486277058600608  0.46394462033510275  1.0000
  C   C7        1.0  0.482435594264767  0.4861659180492275  0.4640312838165115  1.0000
  C   C8        1.0  0.2954057333062617  0.4216713911438812  0.5674455767779016  1.0000
  C   C9        1.0  0.2582479722679236  0.3083997441040516  0.6093120207992959  1.0000
  C   C10       1.0  0.1855772446382051  0.3085066695241523  0.6092206963002849  1.0000
  C   C11       1.0  0.1490734464200985  0.4216712619548171  0.5674456376840853  1.0000
  C   C12       1.0  0.0742554093387335  0.42167114814142637  0.567445886352965  1.0000
  N   N2        1.0  0.014107092538085  0.4216711072581705  0.5674460947823572  1.0000
  C   C13       1.0  0.1855171590332647  0.5348359302275467  0.5256705261785124  1.0000
  C   C14       1.0  0.2581878159376031  0.5349430358135852  0.5255790390859965  1.0000
  H   H1        1.0  0.5102443633380891  0.3072438067973411  0.7516034894050512  1.0000
  H   H2        1.0  0.3827655661401005  0.30793065615607285  0.7528056520610589  1.0000
  H   H3        1.0  0.3826452289513738  0.5354124973924288  0.38208583605995283  1.0000
  H   H4        1.0  0.5101241707307616  0.5360989838110297  0.383288447865908  1.0000
  H   H5        1.0  0.2853645233732265  0.21923631383111086  0.6404761404458934  1.0000
  H   H6        1.0  0.1578857269155596  0.2202421113480586  0.6414178986943253  1.0000
  H   H7        1.0  0.15777885331578126  0.6231004638628459  0.49347333833430285  1.0000
  H   H8        1.0  0.2852577436252476  0.6241065452752221  0.49441487466994305  1.0000
  C   C15       1.0  0.8340771486126318  0.04030601581767246  0.5674444954391973  1.0000
  C   C16       1.0  0.8382824712658737  0.028705439130098487  0.7039658548086889  1.0000
  C   C17       1.0  0.84034642669958  0.9056887120666974  0.7731476731487215  1.0000
  C   C18       1.0  0.8381495757747883  0.7934176584436128  0.7039810459906206  1.0000
  C   C19       1.0  0.8339461092088893  0.8030262878333189  0.5674589371977437  1.0000
  C   C20       1.0  0.831933034581705  0.9269090975822141  0.4999548745402358  1.0000
  C   C21       1.0  0.8447875241875121  0.8944805169877181  0.9175718675342928  1.0000
  C   C22       1.0  0.8050254985691622  0.8009990443093026  0.991618612750665  1.0000
  C   C23       1.0  0.8092259640705288  0.7906852778917007  0.12753535000770977  1.0000
  C   C24       1.0  0.8530155480469533  0.8735739022135177  0.19121211318376174  1.0000
  C   C25       1.0  0.8929437239323784  0.9664811977402772  0.11853850786014442  1.0000
  C   C26       1.0  0.8888451700854081  0.9771448558692302  0.9826113550136613  1.0000
  S   S1        1.0  0.8584819666134259  0.8598793832450294  0.3656119866609219  1.0000
  C   C27       1.0  0.7886450594909015  0.9759356624375576  0.38514178069312477  1.0000
  H   H9        1.0  0.8325020732090944  0.3721798440862567  0.5154236602984392  1.0000
  H   H10       1.0  0.8390040714997861  0.11552146337909486  0.7569270822017076  1.0000
  H   H11       1.0  0.8406833457566827  0.69838893057263  0.7567461259899946  1.0000
  H   H12       1.0  0.8286892821626196  0.9350899609578972  0.39463445065346137  1.0000
  H   H13       1.0  0.8323096994857041  0.4792338406293192  0.5154427680860834  1.0000
  H   H14       1.0  0.7700282087405214  0.7370483641055947  0.9445019136787993  1.0000
  H   H15       1.0  0.778163805129668  0.7186071678536095  0.18325989912889218  1.0000
  H   H16       1.0  0.9272016374617778  0.030487302187398146  0.16724422846363185  1.0000
  H   H17       1.0  0.9207848317505349  0.04885361358900431  0.9282999257330267  1.0000
  H   H18       1.0  0.8025482179650305  0.07227925307003358  0.3362614478446416  1.0000
  H   H19       1.0  0.7806137524415542  0.9865851457997228  0.4904268163555886  1.0000
  H   H20       1.0  0.7397295362288073  0.9404151321753657  0.3430173969688787  1.0000
  C   C28       1.0  0.833931016167762  0.4217724048098017  0.18605968008482487  1.0000
  C   C29       1.0  0.7615418310800551  0.40379323297642733  0.18623451292642312  1.0000
  C   C30       1.0  0.7249872132670362  0.39456827926624016  0.06918083434169398  1.0000
  C   C31       1.0  0.7617483727888161  0.4035845033288965  0.9509672143169001  1.0000
  C   C32       1.0  0.8340921940089685  0.42155988048911786  0.9488436981838575  1.0000
  C   C33       1.0  0.8697610751882924  0.4305431046918553  0.06692021649201152  1.0000
  C   C34       1.0  0.6484556325535752  0.3755656242926575  0.07041197034964997  1.0000
  C   C35       1.0  0.6171971982553917  0.28858751446505115  0.9893032886047335  1.0000
  C   C36       1.0  0.5451777584134874  0.27079826787270944  0.9904941000445531  1.0000
  C   C37       1.0  0.5031341287594425  0.33897806282935616  0.07332547960086977  1.0000
  C   C38       1.0  0.5340204606113612  0.4268017109499229  0.1534574620784519  1.0000
  C   C39       1.0  0.6060391989629484  0.4445951558547143  0.15241460144542263  1.0000
  C   C40       1.0  0.425548423499275  0.3221630905961177  0.07226221625591189  1.0000
  C   C41       1.0  0.3942746459148024  0.4159295468712605  0.9748530889848865  1.0000
  C   C42       1.0  0.3685722553668548  0.4930336404249944  0.8947558511219555  1.0000
  H   H21       1.0  0.9706172397021237  0.4549124518640919  0.3930843382368945  1.0000
  H   H22       1.0  0.7335876379680382  0.3951684680780114  0.27777208805440834  1.0000
  H   H23       1.0  0.733693579917938  0.3983465297403519  0.8603348152992578  1.0000
  H   H24       1.0  0.9255620546218954  0.44440427591525555  0.06599801797001903  1.0000
  H   H25       1.0  0.8619209134707089  0.42843237663133027  0.6205545575509879  1.0000
  H   H26       1.0  0.6485302398928318  0.23322249170934528  0.9259301434064304  1.0000
  H   H27       1.0  0.5221784318759581  0.20364327595909892  0.926933702453506  1.0000
  H   H28       1.0  0.5022815900507989  0.4818575584201228  0.2164856022233963  1.0000
  H   H29       1.0  0.6284712791486982  0.513857353503167  0.21433379808205877  1.0000
  H   H30       1.0  0.4116943901306073  0.2219239478610504  0.04881506898523913  1.0000
  H   H31       1.0  0.4034217003844557  0.33760786610971505  0.16948382944806628  1.0000
  H   H32       1.0  0.3460272344050059  0.5607284115338993  0.8244377871874153  1.0000
  Zn  Zn1       1.0  0.7578547308152878  0.42166768677978594  0.5674536009228814  1.0000
  Zn  Zn2       1.0  0.9101618493502254  0.4216639999694436  0.5674492123383343  1.0000
  C   C43       1.0  0.8340610854825818  0.41642644580042987  0.8046611135493451  1.0000
  C   C44       1.0  0.8339571576172995  0.4269068794763533  0.33024182716910144  1.0000
  C   C45       1.0  0.8339661886571474  0.6588573687160237  0.56228070404499  1.0000
  C   C46       1.0  0.8340520027537057  0.18447439625562856  0.5726223058882824  1.0000
  O   O1        1.0  0.8917656896289237  0.4286229912679371  0.37862900729868754  1.0000
  O   O2        1.0  0.8918501323814827  0.4147065561964747  0.7562702286984213  1.0000
  O   O3        1.0  0.8917727231118284  0.6104725920509386  0.5605463331900244  1.0000
  O   O4        1.0  0.8918430469042993  0.2328569647319898  0.5743528054281886  1.0000
  O   O5        1.0  0.7761734812862677  0.6104747220199134  0.560550007827693  1.0000
  O   O6        1.0  0.7762508902700038  0.41471024647325394  0.7562738341159307  1.0000
  O   O7        1.0  0.776166447241449  0.42862663672420487  0.3786310512200355  1.0000
  O   O8        1.0  0.7762438045361569  0.23286060087241456  0.5743549467230988  1.0000
