data_image0
_chemical_formula_structural       NC9NC5H8C16H10C12OCH12Zn2C4O8
_chemical_formula_sum              "N2 C47 H30 O9 Zn2"
_cell_length_a       17.807436237873137
_cell_length_b       10.29914801576943
_cell_length_c       10.299794127170987
_cell_angle_alpha    85.55374609457252
_cell_angle_beta     89.38603407784058
_cell_angle_gamma    88.40369483635645

_space_group_name_H-M_alt    "P 1"
_space_group_IT_number       1

loop_
  _space_group_symop_operation_xyz
  'x, y, z'

loop_
  _atom_site_type_symbol
  _atom_site_label
  _atom_site_symmetry_multiplicity
  _atom_site_fract_x
  _atom_site_fract_y
  _atom_site_fract_z
  _atom_site_occupancy
  N   N1        1.0  0.7077023872943239  0.38743714706055576  0.5566083903663168  1.0000
  C   C1        1.0  0.6471106659574785  0.35224147692875807  0.5455997661359162  1.0000
  C   C2        1.0  0.5717412242097991  0.3084619392297312  0.531906232874088  1.0000
  C   C3        1.0  0.5536468418229253  0.23701049561912013  0.426938030408506  1.0000
  C   C4        1.0  0.4804669929766121  0.19439240897676435  0.4135599140700581  1.0000
  C   C5        1.0  0.4243327572950924  0.22284819778272769  0.5051177088777603  1.0000
  C   C6        1.0  0.3465614530145219  0.17767109740121123  0.4909822581970411  1.0000
  C   C7        1.0  0.2843948166428465  0.2594411698778676  0.5168856252537417  1.0000
  C   C8        1.0  0.2110726335716823  0.2166200335990882  0.5035212749034323  1.0000
  C   C9        1.0  0.1478562601659907  0.301081771635086  0.529787396114423  1.0000
  N   N2        1.0  0.0970432834708212  0.3689831659375806  0.5509046335715257  1.0000
  C   C10       1.0  0.19933350757340754  0.0917708176421872  0.46422831744174964  1.0000
  C   C11       1.0  0.2606427727444026  0.009986889336815796  0.4383165668838609  1.0000
  C   C12       1.0  0.3338454821193257  0.052413394703187066  0.45147855375316115  1.0000
  C   C13       1.0  0.4431185987336757  0.2947941102169578  0.6103049233291282  1.0000
  C   C14       1.0  0.5163513026765502  0.33722174205067  0.6235274758312717  1.0000
  H   H1        1.0  0.5960434194724489  0.2145024378628  0.3552378645411278  1.0000
  H   H2        1.0  0.46755247827248514  0.14068161264771017  0.3306656688644001  1.0000
  H   H3        1.0  0.2929040007766673  0.35692201320528216  0.545720364870615  1.0000
  H   H4        1.0  0.1428644245465671  0.05772904601504392  0.45364822828145623  1.0000
  H   H5        1.0  0.2514354393018406  0.913325854825777  0.4082811229751615  1.0000
  H   H6        1.0  0.3804783817887936  0.9866577249128855  0.4324586677416593  1.0000
  H   H7        1.0  0.4014387391151923  0.3167634585295638  0.683299758147839  1.0000
  H   H8        1.0  0.5297944077381967  0.39215291075145275  0.7053796257051808  1.0000
  C   C15       1.0  0.9023229161924077  0.9968112106091693  0.5539228065220883  1.0000
  C   C16       1.0  0.8851785709997138  0.007184177256182478  0.42070634650416205  1.0000
  C   C17       1.0  0.8765412417701495  0.8953110663768542  0.3529973685962444  1.0000
  C   C18       1.0  0.8852788836452883  0.7719274910047903  0.42030030593535916  1.0000
  C   C19       1.0  0.9024299196664898  0.7595987894908819  0.5536014167902765  1.0000
  C   C20       1.0  0.9108476764307685  0.8725615322920571  0.6195918676606516  1.0000
  C   C21       1.0  0.8584047776085137  0.9073300109747242  0.21207041712684993  1.0000
  C   C22       1.0  0.8939540902507528  0.8246354010425087  0.12633600092135722  1.0000
  C   C23       1.0  0.8768584294991186  0.8360736382378052  0.9937013721136081  1.0000
  C   C24       1.0  0.8240379443989998  0.9301145936653337  0.9449995614416626  1.0000
  C   C25       1.0  0.7883517318038157  0.012795637956923844  0.029452103492540793  1.0000
  C   C26       1.0  0.8053938275647682  0.001601211367551869  0.16210846258946088  1.0000
  C   C27       1.0  0.8064656703657712  0.9417652475607826  0.8084393568647177  1.0000
  C   C28       1.0  0.7917490802623075  0.9515225579344899  0.6940721620496215  1.0000
  C   C29       1.0  0.7745161270533898  0.9629482378410565  0.5601493427959086  1.0000
  C   C30       1.0  0.759802006870638  0.9727040592988249  0.4458006186787933  1.0000
  H   H9        1.0  0.908878729099625  0.3202977584751112  0.6051782227720408  1.0000
  H   H10       1.0  0.8795146538477758  0.1024930047798176  0.3688817136368683  1.0000
  H   H11       1.0  0.8776758297153842  0.6853797887650259  0.3689986387475874  1.0000
  H   H12       1.0  0.9240693525387275  0.8638448105380968  0.722346030551898  1.0000
  H   H13       1.0  0.9343363541457762  0.5290445513046982  0.8053853205286803  1.0000
  H   H14       1.0  0.9356846222445163  0.7522631133935683  0.1615726477303563  1.0000
  H   H15       1.0  0.9049693793844489  0.7717998284058408  0.9291177612199193  1.0000
  H   H16       1.0  0.747218831674524  0.08570355629801352  0.992836874196243  1.0000
  H   H17       1.0  0.7764071665954217  0.06552648959917695  0.2259021532771588  1.0000
  H   H18       1.0  0.7468818247780957  0.9812704918764091  0.3453927961546608  1.0000
  C   C31       1.0  0.9024017453498722  0.37809032004637033  0.17241034217144446  1.0000
  C   C32       1.0  0.828778992273471  0.33245314562924566  0.17631613767050136  1.0000
  C   C33       1.0  0.7914531164194677  0.30943200446764174  0.06114862670361121  1.0000
  C   C34       1.0  0.8287279497276616  0.3326820504695702  0.9410118988205598  1.0000
  C   C35       1.0  0.9023511235186226  0.378319712415784  0.9351138351104464  1.0000
  C   C36       1.0  0.9387765247295441  0.4007653787598422  0.051338889708544055  1.0000
  C   C37       1.0  0.7135665640227283  0.26114326158564993  0.06633540545546657  1.0000
  C   C38       1.0  0.6597920117427367  0.31236318065026447  0.9759544569354381  1.0000
  C   C39       1.0  0.586590738713224  0.26689868944092376  0.9810986156086949  1.0000
  C   C40       1.0  0.5661000258290091  0.16992789221819882  0.076126567969651  1.0000
  C   C41       1.0  0.619133228458161  0.11733839850179661  0.16738154837062313  1.0000
  C   C42       1.0  0.6924367126931867  0.16343764410740458  0.1617842484142482  1.0000
  O   O1        1.0  0.6014363398148598  0.01959615892919775  0.2645037961914112  1.0000
  C   C43       1.0  0.5294167525306201  0.963731274735205  0.2816209243912451  1.0000
  H   H19       1.0  0.9304651560552039  0.3954212517323945  0.4983795031227356  1.0000
  H   H20       1.0  0.7999146277487087  0.3163909818969275  0.26902332443521804  1.0000
  H   H21       1.0  0.8005633769161016  0.3134208418551867  0.8521016095430016  1.0000
  H   H22       1.0  0.9955737001281726  0.4359716850784965  0.04755733702656628  1.0000
  H   H23       1.0  0.9303895925173237  0.3957716310596655  0.6054092417931001  1.0000
  H   H24       1.0  0.6740901413767566  0.3887579614626018  0.9023939700202273  1.0000
  H   H25       1.0  0.5455214803931445  0.307243856846076  0.9113462901217009  1.0000
  H   H26       1.0  0.509021624386401  0.13659610239168796  0.07780631421938677  1.0000
  H   H27       1.0  0.7331745666996564  0.12135802010995267  0.23136839649489382  1.0000
  H   H28       1.0  0.5139256648984112  0.9160057673912396  0.19300765247313212  1.0000
  H   H29       1.0  0.5313367289789015  0.8891582821664086  0.3652959199816854  1.0000
  H   H30       1.0  0.48663897810271284  0.04002333653446177  0.3024935258355599  1.0000
  Zn  Zn1       1.0  0.8200577575267528  0.38210826343753834  0.5549699212779717  1.0000
  Zn  Zn2       1.0  0.984687892847015  0.374301465768043  0.5525537832525103  1.0000
  C   C44       1.0  0.9023582686791436  0.37310233221802025  0.7909487631312098  1.0000
  C   C45       1.0  0.9023891796720183  0.38330895052384273  0.31657504178531437  1.0000
  C   C46       1.0  0.9024061767328917  0.6154143375653998  0.548487261887528  1.0000
  C   C47       1.0  0.9023412152180025  0.14099538743640005  0.5590366137464884  1.0000
  O   O2        1.0  0.9648612400977125  0.38209206536953655  0.36404112253524024  1.0000
  O   O3        1.0  0.9648366715668668  0.36839305866651273  0.7416485161092323  1.0000
  O   O4        1.0  0.9648745156263646  0.5640631077819627  0.545859150191154  1.0000
  O   O5        1.0  0.9648233398688704  0.18642202817968467  0.5598303919035805  1.0000
  O   O6        1.0  0.8399222543247125  0.5699877036913847  0.5476933134445794  1.0000
  O   O7        1.0  0.8398844104852969  0.3743192149814867  0.7434826094628426  1.0000
  O   O8        1.0  0.8399089791634387  0.38801817595308163  0.3658736545767547  1.0000
  O   O9        1.0  0.8398710789237559  0.1923481295031204  0.5616630213125107  1.0000
