data_image0
_chemical_formula_structural       NC10NC3NH7C12OCH12C12NCOH11Zn2C4O8
_chemical_formula_sum              "N4 C43 H30 O10 Zn2"
_cell_length_a       19.210446455230148
_cell_length_b       10.29979075500242
_cell_length_c       10.299148425239203
_cell_angle_alpha    85.53236164649607
_cell_angle_beta     89.97590399293749
_cell_angle_gamma    89.92936594805748

_space_group_name_H-M_alt    "P 1"
_space_group_IT_number       1

loop_
  _space_group_symop_operation_xyz
  'x, y, z'

loop_
  _atom_site_type_symbol
  _atom_site_label
  _atom_site_symmetry_multiplicity
  _atom_site_fract_x
  _atom_site_fract_y
  _atom_site_fract_z
  _atom_site_occupancy
  N   N1        1.0  0.6554285441473708  0.4207791398282097  0.5671657336263987  1.0000
  C   C1        1.0  0.5951994218264999  0.4229865133521864  0.5673968092228119  1.0000
  C   C2        1.0  0.5203942718968673  0.42572325240318243  0.5676830829706392  1.0000
  C   C3        1.0  0.4847528089662835  0.5419450092172038  0.5827912404447135  1.0000
  C   C4        1.0  0.4120872978070083  0.5420965663283279  0.582738633504738  1.0000
  C   C5        1.0  0.3752273312522876  0.42643216833844955  0.5677695436200794  1.0000
  C   C6        1.0  0.2979055579086976  0.42507578348280606  0.5676189956849256  1.0000
  C   C7        1.0  0.2601329155954559  0.5286718666271848  0.504248851012284  1.0000
  C   C8        1.0  0.1873549227079691  0.5272697094892023  0.5041398254254359  1.0000
  C   C9        1.0  0.1513481028137036  0.42252899622775386  0.5673499340133483  1.0000
  C   C10       1.0  0.0764189235533924  0.4212269984102628  0.5672131481148852  1.0000
  N   N2        1.0  0.016181345241102  0.4201801479419416  0.5671032071325053  1.0000
  C   C11       1.0  0.1883970591913711  0.3190586140693987  0.6306950635362643  1.0000
  C   C12       1.0  0.2611769635849797  0.32018648657526816  0.6308543492778977  1.0000
  C   C13       1.0  0.4134781684945167  0.3120305079429335  0.5529494972755753  1.0000
  N   N3        1.0  0.4842474860432553  0.31447536449637514  0.553114973447113  1.0000
  H   H1        1.0  0.5128300365678566  0.6313716843245603  0.5948368979385794  1.0000
  H   H2        1.0  0.3847944020182898  0.6321044886056317  0.5961790839758223  1.0000
  H   H3        1.0  0.2868455860381588  0.6099458676481426  0.45325158213912853  1.0000
  H   H4        1.0  0.1591939570385602  0.6077154422127078  0.4544730716085199  1.0000
  H   H5        1.0  0.1610449456164751  0.23764954607535782  0.6802623645719361  1.0000
  H   H6        1.0  0.2886928638456907  0.23985931163265461  0.6819589202810332  1.0000
  H   H7        1.0  0.3872370916991536  0.22115970136965113  0.53946283118012  1.0000
  C   C14       1.0  0.8358708199694445  0.039111778178458234  0.5671734140260904  1.0000
  C   C15       1.0  0.815702966333574  0.027923294676159616  0.6986245719916191  1.0000
  C   C16       1.0  0.8054285267829072  0.9051178255094192  0.7651987293018592  1.0000
  C   C17       1.0  0.8155779170137719  0.7926412370460687  0.6985588037755117  1.0000
  C   C18       1.0  0.8357457398772205  0.8018375062274594  0.567106713232495  1.0000
  C   C19       1.0  0.8457808831637416  0.9255137945864796  0.5021507322067729  1.0000
  C   C20       1.0  0.7840963207618163  0.8943351396151015  0.9042679291846567  1.0000
  C   C21       1.0  0.7332997961444795  0.8035340902742107  0.9493455784935103  1.0000
  C   C22       1.0  0.7132851933735254  0.7936593397471235  0.08009763679312987  1.0000
  C   C23       1.0  0.7436165675499449  0.8739171292590228  0.1674469253190798  1.0000
  C   C24       1.0  0.7945981502124047  0.9653261603233888  0.12424108628605346  1.0000
  C   C25       1.0  0.8143970289889423  0.9748403054039095  0.9929623272422978  1.0000
  O   O1        1.0  0.8267626209203316  0.04793700808645429  0.2081100616883661  1.0000
  C   C26       1.0  0.8118204417617193  0.04888126315841679  0.34345863071010174  1.0000
  H   H8        1.0  0.8435860967188253  0.3708264882863359  0.5171061684444114  1.0000
  H   H9        1.0  0.8070153748858294  0.11494237315023237  0.7490585191963659  1.0000
  H   H10       1.0  0.8086315131423476  0.6977305560560454  0.7499316308871271  1.0000
  H   H11       1.0  0.8613400658773782  0.9333768395347398  0.40074171753110766  1.0000
  H   H12       1.0  0.8433959669235755  0.47789030482063155  0.5170018410818746  1.0000
  H   H13       1.0  0.7084112991573326  0.7413748875202152  0.8831355326676757  1.0000
  H   H14       1.0  0.6739669783280627  0.7237400819955471  0.11378570742723282  1.0000
  H   H15       1.0  0.7271064155718062  0.8641517197361395  0.26812372131747364  1.0000
  H   H16       1.0  0.8542766849980991  0.04433176978297282  0.9607871272937989  1.0000
  H   H17       1.0  0.8238379850717445  0.9523104743934097  0.39408282177042364  1.0000
  H   H18       1.0  0.8446626884121823  0.12344757796408068  0.38567033277519525  1.0000
  H   H19       1.0  0.7562494726361344  0.07387797528689499  0.3579048016124019  1.0000
  C   C27       1.0  0.8358606004910101  0.420630409079235  0.18574385136197025  1.0000
  C   C28       1.0  0.9064799580012922  0.45607195234161724  0.18175907221808996  1.0000
  C   C29       1.0  0.9421749153632308  0.4738275371245164  0.06260660660740691  1.0000
  C   C30       1.0  0.9063332701161979  0.45573204651061205  0.9465019723834365  1.0000
  C   C31       1.0  0.8357559293286281  0.4203189070702824  0.9485362856018829  1.0000
  C   C32       1.0  0.8009336527659249  0.40296674054344295  0.06866294975228682  1.0000
  C   C33       1.0  0.01683966308535112  0.5112962417576787  0.059483860084336815  1.0000
  C   C34       1.0  0.06362384568050716  0.45384780254671164  0.9758827255252127  1.0000
  C   C35       1.0  0.13384963139517958  0.48924444877447715  0.9730933334745671  1.0000
  C   C36       1.0  0.15893574565028135  0.5814754687439461  0.05458990548950049  1.0000
  C   C37       1.0  0.11208217839287626  0.6407702328178921  0.1366224940239722  1.0000
  C   C38       1.0  0.04182491742002514  0.6054803070657091  0.13950872344752052  1.0000
  N   N4        1.0  0.23122186106009823  0.6175623064739826  0.04803881291651391  1.0000
  C   C39       1.0  0.2712557139326679  0.6541687562769252  0.1567587668361483  1.0000
  O   O2        1.0  0.24770496998526892  0.6400453585762942  0.2711242625845607  1.0000
  H   H20       1.0  0.7026809170428169  0.352972176311819  0.4006178433677523  1.0000
  H   H21       1.0  0.9340957646699343  0.46822147944355996  0.271679624205317  1.0000
  H   H22       1.0  0.9333388625371281  0.47107884080364726  0.8542630488865428  1.0000
  H   H23       1.0  0.7464964003309167  0.3756481642019156  0.07094716212569474  1.0000
  H   H24       1.0  0.8086120361623856  0.4066617618459285  0.6218456020735164  1.0000
  H   H25       1.0  0.046085958373289104  0.38036738285680616  0.9137193466863733  1.0000
  H   H26       1.0  0.16902924470988845  0.44364824440836514  0.9081363038038774  1.0000
  H   H27       1.0  0.12922469477359577  0.7164158397486626  0.19637914352510832  1.0000
  H   H28       1.0  0.006727004142025317  0.6537426204937398  0.20257293182591884  1.0000
  H   H29       1.0  0.25799560258006204  0.6085785653775333  0.9608518799488754  1.0000
  H   H30       1.0  0.32351651699746276  0.6911216379876668  0.14092259980476274  1.0000
  Zn  Zn1       1.0  0.7595340085531795  0.4206028166021425  0.5671551897380689  1.0000
  Zn  Zn2       1.0  0.9120758651715984  0.420345884305789  0.5671243884847945  1.0000
  C   C40       1.0  0.8357750161313149  0.41520412413438934  0.8043526644343786  1.0000
  C   C41       1.0  0.8358365230595396  0.42574621253088707  0.32992704078452095  1.0000
  C   C42       1.0  0.8357664925550328  0.6576682515609558  0.5619438172918159  1.0000
  C   C43       1.0  0.8358449948303652  0.1832805248654099  0.5723359573175373  1.0000
  O   O3        1.0  0.8937172829909964  0.42735995270935123  0.3783045478644571  1.0000
  O   O4        1.0  0.8936699960069292  0.41339439872086237  0.7559514061286996  1.0000
  O   O5        1.0  0.8936623325567403  0.6091872487581278  0.5602045470178376  1.0000
  O   O6        1.0  0.8937248944008206  0.23156711208972425  0.5740513096033741  1.0000
  O   O7        1.0  0.7778849272689089  0.6093815889073022  0.5602282686231681  1.0000
  O   O8        1.0  0.7778925904695058  0.41359029919804224  0.755975058347256  1.0000
  O   O9        1.0  0.7779398777215469  0.4275558085682911  0.37832663857441595  1.0000
  O   O10       1.0  0.7779474891166874  0.23176295862012086  0.5740734976889574  1.0000
