data_image0
_chemical_formula_structural       NC11NC3H8C16H10C16H10Zn2C4O8
_chemical_formula_sum              "N2 C50 H28 Zn2 O8"
_cell_length_a       17.807433833752565
_cell_length_b       10.29914801576943
_cell_length_c       10.299151387937775
_cell_angle_alpha    85.56202673548964
_cell_angle_beta     88.51281441211556
_cell_angle_gamma    90.69784511463686

_space_group_name_H-M_alt    "P 1"
_space_group_IT_number       1

loop_
  _space_group_symop_operation_xyz
  'x, y, z'

loop_
  _atom_site_type_symbol
  _atom_site_label
  _atom_site_symmetry_multiplicity
  _atom_site_fract_x
  _atom_site_fract_y
  _atom_site_fract_z
  _atom_site_occupancy
  N   N1        1.0  0.7077801895571202  0.4379589421627039  0.534056012790691  1.0000
  C   C1        1.0  0.6569483340189511  0.4032583530709435  0.6006329302413216  1.0000
  C   C2        1.0  0.593708381464208  0.3600936792428253  0.6834461200501594  1.0000
  C   C3        1.0  0.6054127430076669  0.29659169300641053  0.806191202078296  1.0000
  C   C4        1.0  0.5440806770364982  0.2551059392406503  0.8867197617647835  1.0000
  C   C5        1.0  0.4708897856680527  0.2768091565737454  0.8451441666462849  1.0000
  C   C6        1.0  0.45820870438687944  0.34046550621036653  0.721938822098912  1.0000
  C   C7        1.0  0.3804500942248056  0.3634977406558966  0.67758201755505  1.0000
  C   C8        1.0  0.3616787555815745  0.34656737653659775  0.5480081211881256  1.0000
  C   C9        1.0  0.28845792121714137  0.3682318432879521  0.5063884703418324  1.0000
  C   C10       1.0  0.2330654889674871  0.4071448700549596  0.5935223073964542  1.0000
  C   C11       1.0  0.1577081792611006  0.4294672626298246  0.5505410857762174  1.0000
  N   N2        1.0  0.09712627511348772  0.4474128078608268  0.5159873117722595  1.0000
  C   C12       1.0  0.2511453536165201  0.42428559677474054  0.7225649809222532  1.0000
  C   C13       1.0  0.32431339254733527  0.4025863088014421  0.7644400764390473  1.0000
  C   C14       1.0  0.5203980797504022  0.3819467018371885  0.641426680183451  1.0000
  H   H1        1.0  0.6618723224258587  0.2791903304856642  0.8395640441404724  1.0000
  H   H2        1.0  0.5532611370150782  0.20569089970941756  0.981476637987253  1.0000
  H   H3        1.0  0.4242385097418497  0.24227794288455695  0.9085977181255485  1.0000
  H   H4        1.0  0.4033604077772771  0.31489280558145705  0.4793043910634809  1.0000
  H   H5        1.0  0.2750257678707861  0.35430617654876206  0.4063592933623932  1.0000
  H   H6        1.0  0.2087468040669916  0.45473681274605915  0.7907544446575152  1.0000
  H   H7        1.0  0.3372173513059496  0.41805743496388814  0.8642858614958642  1.0000
  H   H8        1.0  0.5119162623191003  0.4327243112071424  0.5469035594310931  1.0000
  C   C15       1.0  0.9024033063022859  0.06128335866077328  0.5251895054735876  1.0000
  C   C16       1.0  0.8852650996038278  0.07040823338256019  0.3925104027039996  1.0000
  C   C17       1.0  0.8766308913097612  0.9579062477216658  0.3250721138836803  1.0000
  C   C18       1.0  0.8853654328876328  0.8351586793316081  0.3921011547096662  1.0000
  C   C19       1.0  0.9025103264608396  0.8240785615252285  0.5248647003491607  1.0000
  C   C20       1.0  0.9109250414979423  0.9376541926615647  0.590591343556288  1.0000
  C   C21       1.0  0.8585009209371962  0.9686048748751118  0.18471361568824252  1.0000
  C   C22       1.0  0.8940547728867284  0.8884461738555223  0.09784564167363796  1.0000
  C   C23       1.0  0.8769652234880109  0.8986398925734489  0.965746855062501  1.0000
  C   C24       1.0  0.8241463941616586  0.9888875805717893  0.9187199220976199  1.0000
  C   C25       1.0  0.7884557016815678  0.06902271840110474  0.004310301179756282  1.0000
  C   C26       1.0  0.8054916843759602  0.05906897378172604  0.13643252036345443  1.0000
  C   C27       1.0  0.8065804127296753  0.9992589870551875  0.7827104863993162  1.0000
  C   C28       1.0  0.7918690925878572  0.007944941581985221  0.6688045546106762  1.0000
  C   C29       1.0  0.7746423104506046  0.018116076417910465  0.5354218689035797  1.0000
  C   C30       1.0  0.7599334593795586  0.02680072173291781  0.42153433035937926  1.0000
  H   H9        1.0  0.9089567568940292  0.3852472087098726  0.5762394589174336  1.0000
  H   H10       1.0  0.8796035831945064  0.1653036095187781  0.34086287731950193  1.0000
  H   H11       1.0  0.8777647302439797  0.748058600194333  0.3410382062527979  1.0000
  H   H12       1.0  0.9241419827576053  0.9298999988597426  0.692931098841701  1.0000
  H   H13       1.0  0.9344051526837863  0.5958476365305779  0.7756487631690028  1.0000
  H   H14       1.0  0.9357841513093966  0.819070270274609  0.13175888758020626  1.0000
  H   H15       1.0  0.9050796096577857  0.8363718381304939  0.9002670443066734  1.0000
  H   H16       1.0  0.7473240284427377  0.13897689374110422  0.9689994195013001  1.0000
  H   H17       1.0  0.7765016137380514  0.12092561054225293  0.20115017965411197  1.0000
  H   H18       1.0  0.747017904012136  0.03442657535842275  0.32153146587304393  1.0000
  C   C31       1.0  0.9025003367470239  0.4425132605993545  0.1436541620787577  1.0000
  C   C32       1.0  0.8300214838173328  0.49471093906865216  0.14208666328426123  1.0000
  C   C33       1.0  0.7932284235909582  0.5213491089773101  0.024137959245450258  1.0000
  C   C34       1.0  0.82989084603916  0.4950853928369061  0.9067802333447976  1.0000
  C   C35       1.0  0.9024132931728519  0.4428486251814072  0.9064000366993104  1.0000
  C   C36       1.0  0.9382723104770265  0.41688610354010436  0.025284140737850347  1.0000
  C   C37       1.0  0.7165545750921207  0.5765682422125837  0.023525142799257104  1.0000
  C   C38       1.0  0.6974864095958769  0.6759259228061738  0.929063419399645  1.0000
  C   C39       1.0  0.6253085960708968  0.7278586546869241  0.928615499739947  1.0000
  C   C40       1.0  0.571252116797788  0.6812192350236732  0.02237116327116584  1.0000
  C   C41       1.0  0.5896394693676204  0.58240340896434  0.11670215480358159  1.0000
  C   C42       1.0  0.6617957171676806  0.5303825532670616  0.11740067696958367  1.0000
  C   C43       1.0  0.49695541616545613  0.7347303785448929  0.021781527718967464  1.0000
  C   C44       1.0  0.43473297775243447  0.7795451505377169  0.021287631171876154  1.0000
  C   C45       1.0  0.361871149401189  0.8320228493776172  0.020709281967385973  1.0000
  C   C46       1.0  0.2996587662897532  0.8768306169662754  0.020215571650485487  1.0000
  H   H19       1.0  0.9303628242746648  0.4223728393796564  0.47173830130711725  1.0000
  H   H20       1.0  0.8024206509957899  0.5164370054795369  0.23266202439784034  1.0000
  H   H21       1.0  0.8013867920252041  0.5137739031812958  0.8157220269350955  1.0000
  H   H22       1.0  0.9941762028218012  0.3766211164496216  0.025777762288398565  1.0000
  H   H23       1.0  0.03910675588753709  0.3434914782818437  0.6984573967583931  1.0000
  H   H24       1.0  0.7386775494618114  0.7146312616996069  0.8565896010489134  1.0000
  H   H25       1.0  0.6117329504472898  0.8045846788021367  0.8553607718333232  1.0000
  H   H26       1.0  0.5481571511349754  0.5453323341939906  0.18952020617737642  1.0000
  H   H27       1.0  0.6744834325751771  0.4528732685639789  0.19030391403036462  1.0000
  H   H28       1.0  0.2450311573992733  0.9161754740295351  0.019782060634647047  1.0000
  Zn  Zn1       1.0  0.8201370579675207  0.4406836519340227  0.5288492620595768  1.0000
  Zn  Zn2       1.0  0.9847693892444095  0.4446774822148012  0.5212046531510046  1.0000
  C   C47       1.0  0.902427351764161  0.4376110966288336  0.7622269982886749  1.0000
  C   C48       1.0  0.9024808934430983  0.4477517199528638  0.28782696021294685  1.0000
  C   C49       1.0  0.902486827201126  0.6798916722946997  0.5197510263435066  1.0000
  C   C50       1.0  0.9024213616017791  0.20546958251423386  0.5303030046705506  1.0000
  O   O1        1.0  0.9649514790286264  0.45101976630149676  0.3333115814739096  1.0000
  O   O2        1.0  0.9649088961901318  0.4373732950789331  0.7109399223175943  1.0000
  O   O3        1.0  0.9649560809822137  0.633017904147501  0.5151388979476845  1.0000
  O   O4        1.0  0.9649042380710963  0.25537516511832736  0.5291125110727577  1.0000
  O   O5        1.0  0.8400021529599  0.6299859676690096  0.5209414067397213  1.0000
  O   O6        1.0  0.8399549683912378  0.43434291901171806  0.7167423611990942  1.0000
  O   O7        1.0  0.8399975514515139  0.44798934428890846  0.3391124589552501  1.0000
  O   O8        1.0  0.8399503104784979  0.2523447338588529  0.5349134859270581  1.0000
