data_image0
_chemical_formula_structural       NC12NC2H8C12NH11C12SCH12Zn2C4O8
_chemical_formula_sum              "N3 C43 H31 S1 Zn2 O8"
_cell_length_a       17.80743265337812
_cell_length_b       10.299770795358612
_cell_length_c       10.299780138516091
_cell_angle_alpha    85.57228714023374
_cell_angle_beta     91.52646952147009
_cell_angle_gamma    89.45311437677636

_space_group_name_H-M_alt    "P 1"
_space_group_IT_number       1

loop_
  _space_group_symop_operation_xyz
  'x, y, z'

loop_
  _atom_site_type_symbol
  _atom_site_label
  _atom_site_symmetry_multiplicity
  _atom_site_fract_x
  _atom_site_fract_y
  _atom_site_fract_z
  _atom_site_occupancy
  N   N1        1.0  0.7077734098502078  0.40622868292543934  0.6013401429302248  1.0000
  C   C1        1.0  0.6569638043606993  0.4357652942214807  0.532644080203815  1.0000
  C   C2        1.0  0.593751639343702  0.47250669585617944  0.447194825746684  1.0000
  C   C3        1.0  0.6054970511311061  0.5264864855673903  0.32058003034283633  1.0000
  C   C4        1.0  0.5441917997691997  0.5617250729595802  0.23752669174919494  1.0000
  C   C5        1.0  0.4709869279405258  0.5432471220703796  0.2804282732783223  1.0000
  C   C6        1.0  0.458264688059187  0.489148680306277  0.40751118831597455  1.0000
  C   C7        1.0  0.5204272572812707  0.45391334149562845  0.4905480160814881  1.0000
  C   C8        1.0  0.3804912057201438  0.469557526043477  0.4532729452564068  1.0000
  C   C9        1.0  0.3617012548170881  0.4967847115379238  0.5803077837782364  1.0000
  C   C10       1.0  0.28846644151401984  0.478348346865586  0.6232499233563962  1.0000
  C   C11       1.0  0.2330785069719555  0.43243079618364133  0.539995154153246  1.0000
  C   C12       1.0  0.1577068944786486  0.4134420599709179  0.5843381634772458  1.0000
  N   N2        1.0  0.09711345552540351  0.39817639311662334  0.6199868924725371  1.0000
  C   C13       1.0  0.2511768976312131  0.4050348740512728  0.41350326030687357  1.0000
  C   C14       1.0  0.3243588760137741  0.42348594154866004  0.37030524901616135  1.0000
  H   H1        1.0  0.6619676898823549  0.5412990748600934  0.286144382491309  1.0000
  H   H2        1.0  0.553403967338517  0.6037903983796606  0.13975144703314557  1.0000
  H   H3        1.0  0.424357274476348  0.5728613451614413  0.21483995634782804  1.0000
  H   H4        1.0  0.511913241871221  0.4104626728563119  0.5881989007203712  1.0000
  H   H5        1.0  0.4033796047617093  0.5339850094987211  0.6458746779853655  1.0000
  H   H6        1.0  0.27502014735534713  0.5002254651080913  0.7212514105772603  1.0000
  H   H7        1.0  0.20878185944899452  0.3691019864290095  0.34834922352781117  1.0000
  H   H8        1.0  0.3372764896957895  0.4000733801516494  0.2726071642821868  1.0000
  C   C15       1.0  0.902378948048789  0.020835355171790804  0.6107000003481273  1.0000
  C   C16       1.0  0.880584580410269  0.03042457236974938  0.4782516930173939  1.0000
  C   C17       1.0  0.8696101125478459  0.9181459116074918  0.4111072981983097  1.0000
  C   C18       1.0  0.8807220917838479  0.7951400957631957  0.47818972909532675  1.0000
  C   C19       1.0  0.9025150998592888  0.7835596150243653  0.6106385218349943  1.0000
  C   C20       1.0  0.9132218521686598  0.896964319941439  0.6761518542122453  1.0000
  C   C21       1.0  0.8465532654474486  0.9293441452055932  0.2709846922358765  1.0000
  C   C22       1.0  0.7918539461128814  0.02164067004950243  0.22317983834570732  1.0000
  C   C23       1.0  0.77018505422706  0.03205055569903226  0.09129692354735663  1.0000
  C   C24       1.0  0.8028053906015622  0.9505912594622137  0.005119176596009689  1.0000
  C   C25       1.0  0.8573245054428242  0.8584962938233782  0.052024881078382545  1.0000
  C   C26       1.0  0.8790535809095228  0.8478291293013271  0.18388070658538114  1.0000
  N   N3        1.0  0.7806089127845753  0.9613712757540255  0.870226622511383  1.0000
  H   H9        1.0  0.9106516595516119  0.3446343433893264  0.6611845471597626  1.0000
  H   H10       1.0  0.8730889197527771  0.1254705245847676  0.42654276490122434  1.0000
  H   H11       1.0  0.8713405657744784  0.7082910674328174  0.4273305420379665  1.0000
  H   H12       1.0  0.9300346485270269  0.8887986489195093  0.7783298292103022  1.0000
  H   H13       1.0  0.9108519096192287  0.4516937945830402  0.6610945185119488  1.0000
  H   H14       1.0  0.7651246203550084  0.0846231094616452  0.2880999467606311  1.0000
  H   H15       1.0  0.7278324452906684  0.10339843575432206  0.056358431724205627  1.0000
  H   H16       1.0  0.8831247975522236  0.795187320759251  0.9863710361717302  1.0000
  H   H17       1.0  0.9219822284011344  0.7769792042857728  0.21740730869271774  1.0000
  H   H18       1.0  0.8046059782232927  0.9010611429317896  0.8052392665825616  1.0000
  H   H19       1.0  0.7400147887427542  0.029742481404016807  0.8343492280415763  1.0000
  C   C27       1.0  0.9024772029786046  0.4020855528125924  0.22931862137267145  1.0000
  C   C28       1.0  0.8310362436109341  0.34555161101340004  0.22939667698550048  1.0000
  C   C29       1.0  0.7948068409695573  0.3170202932229276  0.11228787911485805  1.0000
  C   C30       1.0  0.8309747792110282  0.3457783208937195  0.9940898166867704  1.0000
  C   C31       1.0  0.9024168582152085  0.40230941605759307  0.9920199766512918  1.0000
  C   C32       1.0  0.9377679813531817  0.43014725421773625  0.11013824572209452  1.0000
  C   C33       1.0  0.7192272695313674  0.2572271702596032  0.11343321410629859  1.0000
  C   C34       1.0  0.663596113673722  0.30003865186798695  0.01980867842317724  1.0000
  C   C35       1.0  0.592477083451233  0.24373092532070717  0.021123967109119235  1.0000
  C   C36       1.0  0.5759520163791061  0.1442630145396857  0.11590415113462837  1.0000
  C   C37       1.0  0.6309144224239595  0.10066643205173542  0.20909107902208213  1.0000
  C   C38       1.0  0.702079899151827  0.15679976837101517  0.2081404381743006  1.0000
  S   S1        1.0  0.4847273152324062  0.07187862200627637  0.1171431164345742  1.0000
  C   C39       1.0  0.446221925574923  0.18689008978856148  0.22401775689582437  1.0000
  H   H20       1.0  0.9297104257128276  0.4235798243765829  0.5567464165591163  1.0000
  H   H21       1.0  0.8029565412206072  0.3252100603004673  0.3206030630261256  1.0000
  H   H22       1.0  0.8037278626973772  0.32234046602650457  0.9037148059217137  1.0000
  H   H23       1.0  0.9928818149897766  0.4737599966430144  0.10930966550107946  1.0000
  H   H24       1.0  0.9296229296707496  0.4239090973898254  0.6637726281841037  1.0000
  H   H25       1.0  0.6747812642273899  0.37817503554525933  0.9466591334494114  1.0000
  H   H26       1.0  0.5501539903524898  0.2779394780297608  0.9487627088114383  1.0000
  H   H27       1.0  0.6185811715533954  0.02324976706125037  0.28231044045595555  1.0000
  H   H28       1.0  0.7439984291581321  0.12054859703485743  0.2803816882801464  1.0000
  H   H29       1.0  0.4779883997515166  0.18020300342088347  0.31855379984780985  1.0000
  H   H30       1.0  0.3865994098115011  0.1629944734836093  0.24193683466486537  1.0000
  H   H31       1.0  0.44914383336487423  0.2875515389762482  0.177557430057933  1.0000
  Zn  Zn1       1.0  0.8201285389514966  0.4039015009592428  0.6067286789095165  1.0000
  Zn  Zn2       1.0  0.98475832120093  0.4004929847825369  0.6146089498905409  1.0000
  C   C40       1.0  0.9024256576752439  0.3970934757549893  0.8478534027099649  1.0000
  C   C41       1.0  0.9024630005117158  0.40730261141516855  0.3734844394707826  1.0000
  C   C42       1.0  0.902485911288888  0.639387048476985  0.6054750723719755  1.0000
  C   C43       1.0  0.90240269043742  0.16500747958135786  0.6158628364807699  1.0000
  O   O1        1.0  0.9649343774110137  0.4077543241004742  0.4248583272207631  1.0000
  O   O2        1.0  0.9649044760840928  0.3940537983316561  0.8024600845482865  1.0000
  O   O3        1.0  0.9649522893239609  0.589708940358626  0.6067378275104545  1.0000
  O   O4        1.0  0.9648865080035162  0.2120991924981992  0.6205804841988363  1.0000
  O   O5        1.0  0.8400002959688463  0.5922952944081514  0.6007571419052407  1.0000
  O   O6        1.0  0.8399524830095657  0.3966417126575672  0.7964793295750938  1.0000
  O   O7        1.0  0.8399823845019211  0.41034219271134287  0.41887601092764415  1.0000
  O   O8        1.0  0.8399345150819888  0.21468705184894388  0.6145982652694961  1.0000
