data_image0
_chemical_formula_structural       NC12NC2H8C16H10C16H10Zn2C4O8
_chemical_formula_sum              "N2 C50 H28 Zn2 O8"
_cell_length_a       19.240039667572717
_cell_length_b       10.29914801576943
_cell_length_c       10.299151387937775
_cell_angle_alpha    85.56202673548964
_cell_angle_beta     89.98856263563692
_cell_angle_gamma    90.01219802926651

_space_group_name_H-M_alt    "P 1"
_space_group_IT_number       1

loop_
  _space_group_symop_operation_xyz
  'x, y, z'

loop_
  _atom_site_type_symbol
  _atom_site_label
  _atom_site_symmetry_multiplicity
  _atom_site_fract_x
  _atom_site_fract_y
  _atom_site_fract_z
  _atom_site_occupancy
  N   N1        1.0  0.6547921698511237  0.4207729746806941  0.5669025251573077  1.0000
  C   C1        1.0  0.5946438010521689  0.4207730586335192  0.5669024431879981  1.0000
  C   C2        1.0  0.5198257639390423  0.4207731758696083  0.5669023058380047  1.0000
  C   C3        1.0  0.4833336555870472  0.35634722800456187  0.6703393114935339  1.0000
  C   C4        1.0  0.41066288560181763  0.35623637487327353  0.6704258962858343  1.0000
  C   C5        1.0  0.3734935290365816  0.4207732683439904  0.56690207812005  1.0000
  C   C6        1.0  0.4106998508591012  0.48531034890101066  0.46337845442479075  1.0000
  C   C7        1.0  0.4833705173976606  0.4851992603034634  0.46346516180768593  1.0000
  C   C8        1.0  0.2962884385981764  0.4207731896349005  0.5669019827339028  1.0000
  C   C9        1.0  0.2590832444423586  0.30752099114594467  0.6088157481281411  1.0000
  C   C10       1.0  0.1864125780000413  0.3076278608514329  0.6087243818336974  1.0000
  C   C11       1.0  0.1499561516537465  0.4207730604775053  0.5669020436933279  1.0000
  C   C12       1.0  0.0751381144592684  0.42077294683263755  0.5669022923982898  1.0000
  N   N2        1.0  0.0149897975802551  0.4207729060958034  0.566902500834034  1.0000
  C   C13       1.0  0.1864472361783588  0.5339183359146964  0.525079652633279  1.0000
  C   C14       1.0  0.259117954375958  0.5340253856859609  0.5249881236753895  1.0000
  H   H1        1.0  0.5110342077998479  0.306467550757773  0.7510998273378424  1.0000
  H   H2        1.0  0.3835552369425393  0.3071553321302576  0.7523016222517303  1.0000
  H   H3        1.0  0.3836209687387662  0.5343914186767444  0.3815026776000019  1.0000
  H   H4        1.0  0.5110997366070552  0.535078837398564  0.3827049217979823  1.0000
  H   H5        1.0  0.2861630254892384  0.21837157811364638  0.6400172169067921  1.0000
  H   H6        1.0  0.1586842340841993  0.21937815011183925  0.6409584820750507  1.0000
  H   H7        1.0  0.1587457566420594  0.6221680221216599  0.4928455669517049  1.0000
  H   H8        1.0  0.2862246521600971  0.6231748778821806  0.4937866100950603  1.0000
  C   C15       1.0  0.8348448116133877  0.03937164919702929  0.5670680460112658  1.0000
  C   C16       1.0  0.8189896581109108  0.04891266535278871  0.4335935969935514  1.0000
  C   C17       1.0  0.811001850501664  0.9366203312548568  0.3657546136727483  1.0000
  C   C18       1.0  0.8190824799355114  0.8136606750588075  0.4331890052448941  1.0000
  C   C19       1.0  0.8349438196993318  0.8021642534510798  0.5667482074555752  1.0000
  C   C20       1.0  0.8427285664316061  0.9155355626508433  0.6328653589668425  1.0000
  C   C21       1.0  0.7942291817907515  0.9477591813558648  0.22455474367172035  1.0000
  C   C22       1.0  0.8271212918103426  0.8667371793390442  0.13933674524978068  1.0000
  C   C23       1.0  0.811311152875024  0.8773458580185267  0.006444870468125918  1.0000
  C   C24       1.0  0.7624466093714265  0.9688760666308004  0.9569667325157982  1.0000
  C   C25       1.0  0.7294279033983878  0.04987782815123243  0.04090078553905707  1.0000
  C   C26       1.0  0.7451884859049251  0.03951042425044182  0.1738136069810623  1.0000
  C   C27       1.0  0.7461957065245833  0.9796740015620611  0.8201420984905972  1.0000
  C   C28       1.0  0.732585750525302  0.9887171690672736  0.7055534468885227  1.0000
  C   C29       1.0  0.7166486527912406  0.9993065960820403  0.5713713043431912  1.0000
  C   C30       1.0  0.7030409810155531  0.008348394422710737  0.4568011605696678  1.0000
  H   H9        1.0  0.8409076376097819  0.36317637160957306  0.6184221305950925  1.0000
  H   H10       1.0  0.8137519915740343  0.14394551162217084  0.38168333316073855  1.0000
  H   H11       1.0  0.8120508044946588  0.7267451524129424  0.3817733249977566  1.0000
  H   H12       1.0  0.8549560203415905  0.9074604416373648  0.7358184832486467  1.0000
  H   H13       1.0  0.864450837241905  0.5731588741069016  0.8190124385810869  1.0000
  H   H14       1.0  0.8657265970266625  0.7963480236903314  0.17518655926694993  1.0000
  H   H15       1.0  0.8373207533071275  0.8143951439962006  0.9422697861607494  1.0000
  H   H16       1.0  0.6913755561201836  0.12083074237823799  0.0036810739249342195  1.0000
  H   H17       1.0  0.7183687591914499  0.10207098352622879  0.23718590124488403  1.0000
  H   H18       1.0  0.6910923497192196  0.016287857157133212  0.35619891373926915  1.0000
  C   C31       1.0  0.8349345778662287  0.42059919509048127  0.18553720558466003  1.0000
  C   C32       1.0  0.7678818599767251  0.47455676911487  0.18060612361250605  1.0000
  C   C33       1.0  0.7338433151056604  0.5020883298614511  0.06094993506711832  1.0000
  C   C34       1.0  0.7677610024061171  0.47493439496485323  0.9452936310628437  1.0000
  C   C35       1.0  0.8348540508161013  0.4209366732214257  0.9482790407055517  1.0000
  C   C36       1.0  0.8680284799619943  0.3941034407091222  0.06882728238557245  1.0000
  C   C37       1.0  0.6629096603211074  0.5591692194533793  0.05677885498191415  1.0000
  C   C38       1.0  0.6452690345384355  0.6589899037831506  0.9614322202171324  1.0000
  C   C39       1.0  0.5784948187148695  0.7126752215294914  0.9576346879523854  1.0000
  C   C40       1.0  0.5284852820253793  0.6673483744822677  0.04888170990089735  1.0000
  C   C41       1.0  0.5454960639950638  0.5680860758485284  0.14406601777712424  1.0000
  C   C42       1.0  0.6122503286134064  0.5143131579338946  0.14811315173060247  1.0000
  C   C43       1.0  0.4597508097448468  0.7226635536347858  0.0448441288818362  1.0000
  C   C44       1.0  0.4021866590904121  0.7689891800129056  0.04146262665861933  1.0000
  C   C45       1.0  0.3347796372644901  0.8232360736271149  0.037502921234634945  1.0000
  C   C46       1.0  0.277224789120695  0.8695544514432234  0.034122071885905214  1.0000
  H   H19       1.0  0.8607111380679063  0.39978223076929087  0.5149143812029104  1.0000
  H   H20       1.0  0.7423473656809396  0.4969530252574623  0.26990059115209464  1.0000
  H   H21       1.0  0.7413909066437159  0.49431502660991944  0.8529126145823276  1.0000
  H   H22       1.0  0.9197471229978552  0.35248102303477946  0.07191527987138624  1.0000
  H   H23       1.0  0.9613139466651484  0.3182604034644001  0.7466800418833599  1.0000
  H   H24       1.0  0.6833763964700167  0.6966950598504353  0.8908699915166398  1.0000
  H   H25       1.0  0.5659355148714351  0.7897308827377969  0.8837499443736085  1.0000
  H   H26       1.0  0.5071193227881579  0.532022254152994  0.2149589665570224  1.0000
  H   H27       1.0  0.623988177206381  0.4364957964187859  0.2216051975870872  1.0000
  H   H28       1.0  0.22668688047767677  0.9102257490085819  0.031153414425656223  1.0000
  Zn  Zn1       1.0  0.7587374324476348  0.4207694907057453  0.5669100080571539  1.0000
  Zn  Zn2       1.0  0.9110445512607462  0.4207658003811756  0.5669056213319903  1.0000
  C   C47       1.0  0.8348670569098633  0.41569880330511166  0.8041066547230293  1.0000
  C   C48       1.0  0.8349165901867845  0.4258381265566522  0.32970910139813925  1.0000
  C   C49       1.0  0.8349220797135498  0.6579779348179184  0.5616334429012788  1.0000
  C   C50       1.0  0.8348615152014607  0.1835574346406632  0.5721823831147246  1.0000
  O   O1        1.0  0.8927103104560876  0.4275892931334355  0.3780928442963849  1.0000
  O   O2        1.0  0.8926709155851547  0.4139438558862334  0.7557192089647655  1.0000
  O   O3        1.0  0.8927145678840566  0.6095873192370851  0.5599203743366423  1.0000
  O   O4        1.0  0.8926666061965683  0.2319458390317639  0.5738915815469323  1.0000
  O   O5        1.0  0.7771153255368691  0.6095894520578271  0.559924047836877  1.0000
  O   O6        1.0  0.7770716734446609  0.41394754911282705  0.7557228125648316  1.0000
  O   O7        1.0  0.777111068520771  0.42759294040927065  0.37809488650658407  1.0000
  O   O8        1.0  0.7770673642469254  0.23194947706108882  0.5738937211293731  1.0000
