data_image0
_chemical_formula_structural       NC10NC5H10C12NH11C13NH13Zn2C4O8
_chemical_formula_sum              "N4 C44 H34 Zn2 O8"
_cell_length_a       19.4436361288709
_cell_length_b       10.299770795358612
_cell_length_c       10.299780419254978
_cell_angle_alpha    85.56832973562953
_cell_angle_beta     89.69141269769756
_cell_angle_gamma    89.43566516156574

_space_group_name_H-M_alt    "P 1"
_space_group_IT_number       1

loop_
  _space_group_symop_operation_xyz
  'x, y, z'

loop_
  _atom_site_type_symbol
  _atom_site_label
  _atom_site_symmetry_multiplicity
  _atom_site_fract_x
  _atom_site_fract_y
  _atom_site_fract_z
  _atom_site_occupancy
  N   N1        1.0  0.6480500488749301  0.4089907487740372  0.5620577717964517  1.0000
  C   C1        1.0  0.5892147912584376  0.418893104456153  0.5764406200765368  1.0000
  C   C2        1.0  0.5158863491966557  0.4312426714411226  0.5944315303917647  1.0000
  C   C3        1.0  0.4737034587932402  0.3992424748947747  0.49976315034045804  1.0000
  C   C4        1.0  0.3978001088938902  0.4096808726326613  0.5050903925356038  1.0000
  C   C5        1.0  0.35804990325552416  0.3849372178332493  0.6121605393285221  1.0000
  C   C6        1.0  0.2819308264870412  0.38885331513641863  0.5992013798603291  1.0000
  C   C7        1.0  0.2413709425090232  0.44651765252026343  0.6929651534721744  1.0000
  C   C8        1.0  0.1697088134946161  0.45015497756937717  0.6824214035332583  1.0000
  C   C9        1.0  0.13761173100315702  0.3957319680694873  0.5784004208738247  1.0000
  C   C10       1.0  0.06382037723358772  0.3994305300071632  0.5677013906830113  1.0000
  N   N2        1.0  0.0044971337939241  0.40240397973364583  0.5591000797395624  1.0000
  C   C11       1.0  0.1774465863806525  0.33736056080884147  0.4850199122020509  1.0000
  C   C12       1.0  0.2491251523780161  0.3336690028235072  0.4953118970273591  1.0000
  C   C13       1.0  0.3861676332023469  0.3444817177955315  0.7432529975276234  1.0000
  C   C14       1.0  0.4448349568900369  0.38760496910401154  0.7904911525361986  1.0000
  C   C15       1.0  0.4890628362173958  0.4854594957492846  0.7161203371075764  1.0000
  H   H1        1.0  0.4958038208332825  0.37012227126451913  0.4094613445928079  1.0000
  H   H2        1.0  0.373111419475168  0.4321718527601459  0.4119339731900593  1.0000
  H   H3        1.0  0.265242923407778  0.48981116175254935  0.7738079309486658  1.0000
  H   H4        1.0  0.1393663741444676  0.49547189894648125  0.7553368731708208  1.0000
  H   H5        1.0  0.1531027319094319  0.2942627197511807  0.4045115937165975  1.0000
  H   H6        1.0  0.27880157275678463  0.2861087387346617  0.42309287384945016  1.0000
  H   H7        1.0  0.35518770421559165  0.2802676355688156  0.8075015756237047  1.0000
  H   H8        1.0  0.4599729918501408  0.35354170644555283  0.8884242007685554  1.0000
  H   H9        1.0  0.4589699262992673  0.5761719803757768  0.6908637374495454  1.0000
  H   H10       1.0  0.5323478198040921  0.5110476033677696  0.7792014930721676  1.0000
  C   C16       1.0  0.82621454951049  0.024329928876358542  0.5606190308687284  1.0000
  C   C17       1.0  0.8062680686367825  0.033846095134761  0.42937932896459996  1.0000
  C   C18       1.0  0.7962241195433009  0.9215306806678595  0.3628435200453701  1.0000
  C   C19       1.0  0.8063939659627692  0.7985621408189276  0.42930973418583895  1.0000
  C   C20       1.0  0.8263392021068868  0.7870547058645089  0.5605499969437904  1.0000
  C   C21       1.0  0.8361381347473792  0.9004952674309293  0.6254695895484041  1.0000
  C   C22       1.0  0.7751222016006072  0.9326516318498436  0.22399953022537966  1.0000
  C   C23       1.0  0.7250463684383885  0.024745353681315363  0.17922966362333614  1.0000
  C   C24       1.0  0.7052147344825604  0.035082622444110534  0.04854839486507134  1.0000
  C   C25       1.0  0.7350835933969502  0.9537521109409061  0.9605600505042649  1.0000
  C   C26       1.0  0.784994491264192  0.8618593308997876  0.004440762057564607  1.0000
  C   C27       1.0  0.8048812257654947  0.8512650118495176  0.13509160178431467  1.0000
  N   N3        1.0  0.7147690962305472  0.9644577285272469  0.8268984008403089  1.0000
  H   H11       1.0  0.83378582913598  0.3481566314436897  0.6106448161397091  1.0000
  H   H12       1.0  0.7994082550631119  0.12886734414212908  0.37808603682027786  1.0000
  H   H13       1.0  0.797807564991535  0.7116812464586604  0.37897083457628744  1.0000
  H   H14       1.0  0.8515254184087182  0.8923859497413043  0.7267152118944744  1.0000
  H   H15       1.0  0.8339691663099197  0.45521684320587946  0.610543675106308  1.0000
  H   H16       1.0  0.7005719086496904  0.08762265536852865  0.2456333550795422  1.0000
  H   H17       1.0  0.6664418956298785  0.10627333417157092  0.01595984606581191  1.0000
  H   H18       1.0  0.8086184404829344  0.7986520457317071  0.937354881916614  1.0000
  H   H19       1.0  0.8441815096355214  0.7805745218404802  0.16623628838136928  1.0000
  H   H20       1.0  0.7367421245166836  0.9042424446377861  0.7605790744808778  1.0000
  H   H21       1.0  0.6776062300968291  0.032678454880866736  0.7932733657404354  1.0000
  C   C28       1.0  0.8263236984003092  0.4056065736081653  0.17923000263494537  1.0000
  C   C29       1.0  0.8761365644173998  0.5037151328185907  0.1701462850181461  1.0000
  C   C30       1.0  0.9013241215824876  0.5535237813578375  0.048400004672577435  1.0000
  C   C31       1.0  0.8760421299703272  0.5038891103302519  0.9348468773843632  1.0000
  C   C32       1.0  0.8262300806255715  0.40577801668578606  0.941939035096802  1.0000
  C   C33       1.0  0.8016479073212358  0.35718960360364527  0.06458260471200172  1.0000
  C   C34       1.0  0.9540241752921944  0.657311594746482  0.039881768924738825  1.0000
  C   C35       1.0  0.9493918351615391  0.7619747405746367  0.9440845922443759  1.0000
  C   C36       1.0  0.9990166082150597  0.8595742341885784  0.9361525324605147  1.0000
  C   C37       1.0  0.053841667209517885  0.8548580345375456  0.024372419520765076  1.0000
  C   C38       1.0  0.059133298323107875  0.7499038686275847  0.11910737800994964  1.0000
  C   C39       1.0  0.009522742201359513  0.6522794133470178  0.12721209269899014  1.0000
  C   C40       1.0  0.10817090316570832  0.9580717387260129  0.013456895333117558  1.0000
  N   N4        1.0  0.1608909558588758  0.9244456389165994  0.9201444764497562  1.0000
  H   H22       1.0  0.8073706084255018  0.36817523970900434  0.5101479153919866  1.0000
  H   H23       1.0  0.894786870395172  0.5428763097330944  0.2578578932685067  1.0000
  H   H24       1.0  0.8959866441457629  0.5406755049951839  0.8408705784582806  1.0000
  H   H25       1.0  0.7632197783706984  0.28150226679125834  0.07082171335225862  1.0000
  H   H26       1.0  0.8072363596894415  0.36841642835421307  0.6171862690034438  1.0000
  H   H27       1.0  0.906975015972952  0.7691049643022156  0.8761342792606444  1.0000
  H   H28       1.0  0.9945997542997639  0.939055853017214  0.8613428468926507  1.0000
  H   H29       1.0  0.10180561915042885  0.7434211819681811  0.18652898845662547  1.0000
  H   H30       1.0  0.015138165407576842  0.5717584895316876  0.20054603610384336  1.0000
  H   H31       1.0  0.08442127503933738  0.05353698911801574  0.9803649596680968  1.0000
  H   H32       1.0  0.1318916338991254  0.9689437301771673  0.1101157472819656  1.0000
  H   H33       1.0  0.1956111188751064  0.0014954158342730395  0.9099099486261917  1.0000
  H   H34       1.0  0.18847104572820328  0.8436327241179395  0.9606952526152006  1.0000
  Zn  Zn1       1.0  0.7509129776790685  0.4070864798444518  0.5612117579284663  1.0000
  Zn  Zn2       1.0  0.901634193459952  0.4042976434243082  0.5599567753440691  1.0000
  C   C41       1.0  0.8262453772574375  0.4005720100809127  0.7977712075306453  1.0000
  C   C42       1.0  0.8263034400047344  0.41081372137546723  0.32339743935095666  1.0000
  C   C43       1.0  0.8263127393036435  0.6428823824040297  0.5553881374071126  1.0000
  C   C44       1.0  0.826236026264401  0.168501789723269  0.5657805792798702  1.0000
  O   O1        1.0  0.8834945560747548  0.4114972731282045  0.37130508926071215  1.0000
  O   O2        1.0  0.8834481763993427  0.3977708162119731  0.7489106811343256  1.0000
  O   O3        1.0  0.8835018008825142  0.5934395208664389  0.5531846434073002  1.0000
  O   O4        1.0  0.883440880174115  0.21582857869367178  0.5670310300441415  1.0000
  O   O5        1.0  0.7691062395311526  0.5955555455281936  0.5541375036498262  1.0000
  O   O6        1.0  0.7690526153083556  0.3998884011559136  0.7498634719929036  1.0000
  O   O7        1.0  0.7690989952138062  0.41361481246448095  0.3722563187811898  1.0000
  O   O8        1.0  0.769045319296882  0.21794610876312048  0.5679823569296485  1.0000
