data_image0
_chemical_formula_structural       NC11NC3H8C12NCOCH13C12IH9Zn2C4O8
_chemical_formula_sum              "N3 C44 H30 O9 I1 Zn2"
_cell_length_a       17.807433833752565
_cell_length_b       10.299155265289647
_cell_length_c       10.29977335064465
_cell_angle_alpha    85.52787819197464
_cell_angle_beta     88.53399239926371
_cell_angle_gamma    90.66237101144992

_space_group_name_H-M_alt    "P 1"
_space_group_IT_number       1

loop_
  _space_group_symop_operation_xyz
  'x, y, z'

loop_
  _atom_site_type_symbol
  _atom_site_label
  _atom_site_symmetry_multiplicity
  _atom_site_fract_x
  _atom_site_fract_y
  _atom_site_fract_z
  _atom_site_occupancy
  N   N1        1.0  0.7069569019664651  0.4389806941944572  0.5342773670275434  1.0000
  C   C1        1.0  0.656151411082771  0.4042331203871008  0.6008485021285228  1.0000
  C   C2        1.0  0.5929442533591618  0.3610100035980217  0.6836544992133198  1.0000
  C   C3        1.0  0.6046970515422819  0.2974213846032925  0.8063889867116305  1.0000
  C   C4        1.0  0.5433966998276104  0.2558787909191895  0.8869106202142387  1.0000
  C   C5        1.0  0.4701893323043881  0.27761134837704304  0.8453386407120498  1.0000
  C   C6        1.0  0.4574596629304389  0.3413546572127657  0.7221439187345704  1.0000
  C   C7        1.0  0.37968351868477684  0.3644181968298097  0.677790954535797  1.0000
  C   C8        1.0  0.36089129706191  0.3475808794435187  0.5482165257677245  1.0000
  C   C9        1.0  0.2876539913285101  0.36927471858241034  0.5066004857527766  1.0000
  C   C10       1.0  0.2322656852200738  0.4081246520606159  0.5937385220273363  1.0000
  C   C11       1.0  0.1568913835976888  0.4304773788942027  0.550761022274233  1.0000
  N   N2        1.0  0.0962958191984533  0.4484473106621272  0.5162102403758604  1.0000
  C   C12       1.0  0.2503662464453812  0.4251727082053358  0.722781764810577  1.0000
  C   C13       1.0  0.3235508224825982  0.40344386570510715  0.7646532410293798  1.0000
  C   C14       1.0  0.5196173290983228  0.3828926810956399  0.6416387021350789  1.0000
  H   H1        1.0  0.6611698492566621  0.27999647030822294  0.8397589292812697  1.0000
  H   H2        1.0  0.5526146934471229  0.2063968799973328  0.9816592628625245  1.0000
  H   H3        1.0  0.423563709613846  0.2430353818900195  0.9087864775886694  1.0000
  H   H4        1.0  0.4025700533067457  0.315956075444342  0.4795093461669271  1.0000
  H   H5        1.0  0.2742060248777283  0.35542089882403505  0.40657077836875755  1.0000
  H   H6        1.0  0.2079709264696605  0.45557454846613554  0.7909745145805744  1.0000
  H   H7        1.0  0.336469999406367  0.4188432467816585  0.8644997747313736  1.0000
  H   H8        1.0  0.51109753583828  0.4337369687058894  0.5471240017858796  1.0000
  C   C15       1.0  0.9017138693783019  0.06231860760934116  0.5253584243408  1.0000
  C   C16       1.0  0.8888681803196715  0.07175659676790591  0.3910299032654172  1.0000
  C   C17       1.0  0.8822823757382314  0.9594024473571457  0.3228081668005036  1.0000
  C   C18       1.0  0.8886885231784158  0.8364925735020025  0.3907304566832164  1.0000
  C   C19       1.0  0.9015460590604719  0.825099608203668  0.5251400182341956  1.0000
  C   C20       1.0  0.9079829186425045  0.9385283286705742  0.5916263654953722  1.0000
  C   C21       1.0  0.8686941152020794  0.9703603921337792  0.18070476855028406  1.0000
  C   C22       1.0  0.9067859077907979  0.06542779706534807  0.09751987221031588  1.0000
  C   C23       1.0  0.894004640901924  0.07560921811736088  0.9637908180703563  1.0000
  C   C24       1.0  0.8433431288621603  0.9900558346659732  0.910391425081444  1.0000
  C   C25       1.0  0.8043336766376188  0.896782428166644  0.9935507460199413  1.0000
  C   C26       1.0  0.8171423018917194  0.8863456668000156  0.1272411952924195  1.0000
  N   N3        1.0  0.8281439476584264  0.9999784772782753  0.7735362590471548  1.0000
  C   C27       1.0  0.8829890367357777  0.0382850860210977  0.6727738694434495  1.0000
  O   O1        1.0  0.9519108594737526  0.0424848354595011  0.6974338687902795  1.0000
  C   C28       1.0  0.8590095219525263  0.06420034552541876  0.5353473240162825  1.0000
  H   H9        1.0  0.9066781891706105  0.3861651092544902  0.5770201430269046  1.0000
  H   H10       1.0  0.8829195380623113  0.1666763347831577  0.33949652773331596  1.0000
  H   H11       1.0  0.8846423528459594  0.7496146955121707  0.3382899897628935  1.0000
  H   H12       1.0  0.9178935960605643  0.9305338069555719  0.6952361981336672  1.0000
  H   H13       1.0  0.9262638211352857  0.5963236512855795  0.7786793424882887  1.0000
  H   H14       1.0  0.9469054014207666  0.13143673133041056  0.1357502886852946  1.0000
  H   H15       1.0  0.922819524897152  0.1517876464701935  0.9028734860303418  1.0000
  H   H16       1.0  0.764142005269431  0.831476111878296  0.954456646635319  1.0000
  H   H17       1.0  0.7859135094672313  0.8137245834753402  0.18910348808652722  1.0000
  H   H18       1.0  0.7752278499498748  0.9698348297032003  0.744918504390518  1.0000
  H   H19       1.0  0.8047796445462322  0.11632909508585043  0.5334102267946736  1.0000
  H   H20       1.0  0.8520535301821497  0.9704384091835225  0.4904462361611195  1.0000
  H   H21       1.0  0.9017716159531353  0.12535197319512803  0.47796790281557655  1.0000
  C   C29       1.0  0.9015941122157783  0.44381430434565594  0.1438816656353037  1.0000
  C   C30       1.0  0.969679505371781  0.5144784686311652  0.13436450334072747  1.0000
  C   C31       1.0  0.004215053578024541  0.5501775970715821  0.012410401147789907  1.0000
  C   C32       1.0  0.969751816639025  0.514266054236588  0.89909159789149  1.0000
  C   C33       1.0  0.9016657938798677  0.44360387973950455  0.9066168306062665  1.0000
  C   C34       1.0  0.8679684864977145  0.40877263383908846  0.029462221990193438  1.0000
  C   C35       1.0  0.07624342504480719  0.6249320594736523  0.0033960695879518  1.0000
  C   C36       1.0  0.08803850596090412  0.7282457023054061  0.0826287943903663  1.0000
  C   C37       1.0  0.1558709513405485  0.7984924157511784  0.07394087962984064  1.0000
  C   C38       1.0  0.2126622010635073  0.7665111534725129  0.986326039695546  1.0000
  C   C39       1.0  0.20159159533264592  0.6641013900576977  0.9072021736047127  1.0000
  C   C40       1.0  0.13383541144352606  0.5936305419657009  0.9154806748336162  1.0000
  I   I1        1.0  0.31492897708920053  0.872644327764805  0.973531400074763  1.0000
  H   H22       1.0  0.8756286360453174  0.4169525275753785  0.47495762030858657  1.0000
  H   H23       1.0  0.996538032208259  0.5403804071449343  0.22208752003752208  1.0000
  H   H24       1.0  0.9956181099817245  0.5430848132214248  0.8047701191454637  1.0000
  H   H25       1.0  0.8154432833781005  0.35425957397911034  0.03603593921446668  1.0000
  H   H26       1.0  0.8757336107475373  0.41664291498135797  0.5820330018918294  1.0000
  H   H27       1.0  0.04447011729821049  0.7557664173417247  0.15003280063714586  1.0000
  H   H28       1.0  0.1641677886070907  0.8779770596161711  0.13511822331333523  1.0000
  H   H29       1.0  0.24552845537468126  0.6388260308696205  0.8394892647100747  1.0000
  H   H30       1.0  0.12684421366239662  0.5136367168397566  0.854403813636047  1.0000
  Zn  Zn1       1.0  0.8193117045628352  0.44170907827118744  0.5290710700345072  1.0000
  Zn  Zn2       1.0  0.9839410051731325  0.44570830333340505  0.5214271263856316  1.0000
  C   C41       1.0  0.9016517032088442  0.43846957223735106  0.7624450814276413  1.0000
  C   C42       1.0  0.9016028039253722  0.4489494917371908  0.28805315851768953  1.0000
  C   C43       1.0  0.9015734047521171  0.6809190676699093  0.5200063414495419  1.0000
  C   C44       1.0  0.9016810465554724  0.20649843450963035  0.5304919707892737  1.0000
  O   O2        1.0  0.9640816837980377  0.452184926469283  0.3335375933961209  1.0000
  O   O3        1.0  0.9641226534171314  0.43826847710411854  0.71115869662434  1.0000
  O   O4        1.0  0.9640585843441613  0.6340494900265976  0.5153877375163081  1.0000
  O   O5        1.0  0.9641456966829842  0.25640392149987257  0.52930845773553  1.0000
  O   O6        1.0  0.8391069568730817  0.6310134587413967  0.5211897412862798  1.0000
  O   O7        1.0  0.8391710255927771  0.43523400625059594  0.7169606307024989  1.0000
  O   O8        1.0  0.8391300558868745  0.4491504107886237  0.33933796608976197  1.0000
  O   O9        1.0  0.8391940687799431  0.2533693965028212  0.5351089277994654  1.0000
