data_image0
_chemical_formula_structural       NC10NC3NCH9C12BrH9C12OCH12Zn2C4O8
_chemical_formula_sum              "N3 C43 H30 Br1 O9 Zn2"
_cell_length_a       19.437513618241372
_cell_length_b       10.299144633409057
_cell_length_c       10.299794127170987
_cell_angle_alpha    85.56673362329126
_cell_angle_beta     90.34079441948666
_cell_angle_gamma    89.4968152816428

_space_group_name_H-M_alt    "P 1"
_space_group_IT_number       1

loop_
  _space_group_symop_operation_xyz
  'x, y, z'

loop_
  _atom_site_type_symbol
  _atom_site_label
  _atom_site_symmetry_multiplicity
  _atom_site_fract_x
  _atom_site_fract_y
  _atom_site_fract_z
  _atom_site_occupancy
  N   N1        1.0  0.6475995602111473  0.41016401101336797  0.5755455516808414  1.0000
  C   C1        1.0  0.5886622999785143  0.42717444009466776  0.5725678850819735  1.0000
  C   C2        1.0  0.5152169241364803  0.44842741938277797  0.5688718055691466  1.0000
  C   C3        1.0  0.4734784558471724  0.3472283403052354  0.5572237137646006  1.0000
  C   C4        1.0  0.3975862817582133  0.35729208111021227  0.5500016387920144  1.0000
  C   C5        1.0  0.3579917853200968  0.43816082684277324  0.6157326042897622  1.0000
  C   C6        1.0  0.2818117364706618  0.42955008822256424  0.6072897976085112  1.0000
  C   C7        1.0  0.2487042389710681  0.3081987954278733  0.6119457415515142  1.0000
  C   C8        1.0  0.17697117760402434  0.30182499991588885  0.6047786847788699  1.0000
  C   C9        1.0  0.1373750919399283  0.416329864349837  0.5933179488758411  1.0000
  C   C10       1.0  0.06352763931810411  0.4096178293791688  0.5859828440875989  1.0000
  N   N2        1.0  0.0041593852935941  0.40422194346922313  0.580085878160191  1.0000
  C   C11       1.0  0.1697660539390245  0.537370733652361  0.5894072793921024  1.0000
  C   C12       1.0  0.2414834597911141  0.5439985503226537  0.5966363279851741  1.0000
  C   C13       1.0  0.3866527871284571  0.530471508757252  0.705638682184174  1.0000
  N   N3        1.0  0.44362357382923845  0.5936835149287156  0.6852287720411254  1.0000
  C   C14       1.0  0.4874677739684169  0.5843970414512318  0.5721274152674645  1.0000
  H   H1        1.0  0.4958844731028161  0.25216351832259676  0.5451130774457758  1.0000
  H   H2        1.0  0.3728887739661925  0.28776279342718336  0.4916935191780829  1.0000
  H   H3        1.0  0.2781751275253187  0.21828375332093009  0.6229755446994794  1.0000
  H   H4        1.0  0.1523992427221542  0.20759372144378974  0.6086755963284671  1.0000
  H   H5        1.0  0.1396100067432509  0.6266313300922162  0.580689586056846  1.0000
  H   H6        1.0  0.2655737781422278  0.6386426507344722  0.5927239139026235  1.0000
  H   H7        1.0  0.3566439089421134  0.5508767050427414  0.7899992863495213  1.0000
  H   H8        1.0  0.5302041408263394  0.6547151103486977  0.5778831467404091  1.0000
  H   H9        1.0  0.4577952594680523  0.612487845563463  0.48148307515388944  1.0000
  C   C15       1.0  0.8259725160350231  0.025796628892869933  0.5778957233241715  1.0000
  C   C16       1.0  0.7966396446574906  0.03519002883080535  0.4525673159127179  1.0000
  C   C17       1.0  0.7816746539705808  0.9228176988426148  0.3889460299934091  1.0000
  C   C18       1.0  0.7964383517188348  0.7999277436920746  0.4523435197804391  1.0000
  C   C19       1.0  0.8257930345966148  0.7885792027889753  0.5777470610174227  1.0000
  C   C20       1.0  0.840378573892289  0.9020284308176941  0.6397522487203471  1.0000
  C   C21       1.0  0.7506450854802066  0.9337999411019008  0.25636282483516837  1.0000
  C   C22       1.0  0.773677572315028  0.02869685718105286  0.16119314103479865  1.0000
  C   C23       1.0  0.7444115113110916  0.03882743094579211  0.03645212319689395  1.0000
  C   C24       1.0  0.6918742019956339  0.954603701232409  0.00524973816697627  1.0000
  C   C25       1.0  0.6685750003018217  0.8600306217021655  0.09897553329533881  1.0000
  C   C26       1.0  0.6977211704020273  0.849484744999018  0.2238152985899966  1.0000
  Br  Br1       1.0  0.6519792406056539  0.9687249138598718  0.8347863795921939  1.0000
  H   H10       1.0  0.8372837976257013  0.34966044118479145  0.626079225594397  1.0000
  H   H11       1.0  0.7844924988291189  0.13009877925054258  0.40485385358868453  1.0000
  H   H12       1.0  0.7858756600685051  0.7130213569535848  0.4030462196502953  1.0000
  H   H13       1.0  0.8630059068433416  0.8940674017943806  0.7364194562056778  1.0000
  H   H14       1.0  0.8815942854071822  0.5598863242698842  0.8141106761790791  1.0000
  H   H15       1.0  0.8148998786581144  0.09389825883174896  0.18271919162139882  1.0000
  H   H16       1.0  0.7627323251004384  0.11197102688278981  0.9640306846818807  1.0000
  H   H17       1.0  0.6277648931782484  0.7948478007303346  0.07530622745476068  1.0000
  H   H18       1.0  0.6782816021867016  0.7765738831816668  0.2953626723653182  1.0000
  C   C27       1.0  0.8259060031519492  0.4070740297561146  0.19647027626858393  1.0000
  C   C28       1.0  0.7584998822667514  0.3590714664312866  0.1984280145871007  1.0000
  C   C29       1.0  0.7243257239850739  0.3348510994279006  0.0822728873100218  1.0000
  C   C30       1.0  0.7584530549205137  0.35929872845238187  0.9631224831969032  1.0000
  C   C31       1.0  0.8258595609130679  0.4073017928207061  0.9591724878499455  1.0000
  C   C32       1.0  0.8592092860264708  0.43091775429583556  0.07636132835790099  1.0000
  C   C33       1.0  0.653015837865023  0.28405997824010787  0.0853987869010846  1.0000
  C   C34       1.0  0.6037511960781614  0.33355126072310926  0.9936138014373306  1.0000
  C   C35       1.0  0.5367309981083138  0.28573492311488646  0.9968210355523133  1.0000
  C   C36       1.0  0.5180011564807413  0.18810672744802348  0.09128803021271259  1.0000
  C   C37       1.0  0.5665873784997357  0.13722206198228282  0.18392722871597766  1.0000
  C   C38       1.0  0.6337009491972091  0.18567643152303104  0.1802696851222434  1.0000
  O   O1        1.0  0.5504163640206358  0.038912213207761726  0.28056188570670937  1.0000
  C   C39       1.0  0.4844821214030575  0.9807335722648622  0.29577087652361755  1.0000
  H   H19       1.0  0.8515997909513415  0.42530659756469635  0.5231819802611037  1.0000
  H   H20       1.0  0.7320721302177962  0.34208191348974193  0.29037185835168855  1.0000
  H   H21       1.0  0.7326673264359133  0.33913265430526685  0.8734665580681105  1.0000
  H   H22       1.0  0.9112105646942611  0.46794886889622367  0.0740826280347695  1.0000
  H   H23       1.0  0.8515304634211421  0.425654544729428  0.6302098080147611  1.0000
  H   H24       1.0  0.6168174388384808  0.4104046677500277  0.9204466877482669  1.0000
  H   H25       1.0  0.4991056490157054  0.32475986462639006  0.9259966777663422  1.0000
  H   H26       1.0  0.4657416528791241  0.15294107117409017  0.09145793931230917  1.0000
  H   H27       1.0  0.6710234336640232  0.14490640290507062  0.25091675590716367  1.0000
  H   H28       1.0  0.47031295437166387  0.9325107835742741  0.2067392174862437  1.0000
  H   H29       1.0  0.48626753842963377  0.9062231085418286  0.37947979595561865  1.0000
  H   H30       1.0  0.4452790593969575  0.05565010440780105  0.3155344826394979  1.0000
  Zn  Zn1       1.0  0.7504950294861117  0.4084457714517946  0.5768633011102897  1.0000
  Zn  Zn2       1.0  0.9012639240892395  0.4059295159026104  0.5787788001848473  1.0000
  C   C40       1.0  0.8258680023584133  0.4020847002795782  0.8150064416031582  1.0000
  C   C41       1.0  0.825892597215201  0.4122921983725478  0.34063580775028446  1.0000
  C   C42       1.0  0.8258237264722621  0.6443955494183566  0.5726001842957533  1.0000
  C   C43       1.0  0.8259368220174311  0.1699797896985915  0.5830421339435827  1.0000
  O   O2        1.0  0.8831041091568596  0.41308289141371635  0.3897460001043431  1.0000
  O   O3        1.0  0.8830865931191073  0.3993832475943835  0.7673496950874306  1.0000
  O   O4        1.0  0.8830500683996522  0.5950523359886761  0.5716049171846165  1.0000
  O   O5        1.0  0.8831405824328498  0.21741381313986485  0.5854906799815933  1.0000
  O   O6        1.0  0.7686183196924773  0.5969614750746266  0.5701514206530467  1.0000
  O   O7        1.0  0.7686548440458293  0.4012939470755985  0.7658961290094704  1.0000
  O   O8        1.0  0.7686723602351095  0.4149935451687443  0.3882908727079757  1.0000
  O   O9        1.0  0.7687088335045406  0.21932445763453812  0.5840356499502932  1.0000
