data_image0
_chemical_formula_structural       NC12NC2H8C13OH12C13NH9Zn2C4O8
_chemical_formula_sum              "N3 C44 H29 O9 Zn2"
_cell_length_a       17.80743265337812
_cell_length_b       10.299150109392551
_cell_length_c       10.298528502251457
_cell_angle_alpha    85.52101086159662
_cell_angle_beta     91.53111058914057
_cell_angle_gamma    89.41750150667457

_space_group_name_H-M_alt    "P 1"
_space_group_IT_number       1

loop_
  _space_group_symop_operation_xyz
  'x, y, z'

loop_
  _atom_site_type_symbol
  _atom_site_label
  _atom_site_symmetry_multiplicity
  _atom_site_fract_x
  _atom_site_fract_y
  _atom_site_fract_z
  _atom_site_occupancy
  N   N1        1.0  0.7071895623761907  0.4072277578603938  0.6006888591086585  1.0000
  C   C1        1.0  0.6563656768495533  0.43680991313936013  0.5319723346827674  1.0000
  C   C2        1.0  0.5931357486902883  0.47360796589618226  0.44649762798790693  1.0000
  C   C3        1.0  0.604855008089356  0.5276716574427669  0.3198452533148166  1.0000
  C   C4        1.0  0.5435326637600162  0.5629652653553738  0.23676731394673323  1.0000
  C   C5        1.0  0.47033672163635193  0.5444588688082002  0.27968168338963406  1.0000
  C   C6        1.0  0.4576407013647116  0.490276222225533  0.40680229303923787  1.0000
  C   C7        1.0  0.5198203615242806  0.45498587349732333  0.48986371778401305  1.0000
  C   C8        1.0  0.3798767008357445  0.47065473646841927  0.45257765583418075  1.0000
  C   C9        1.0  0.3610833508795429  0.49780500148359774  0.5796264677283745  1.0000
  C   C10       1.0  0.2878574542175262  0.4793401695292294  0.62258139009046  1.0000
  C   C11       1.0  0.23248197084992162  0.4334705259954186  0.5393256488951887  1.0000
  C   C12       1.0  0.1571195480109878  0.4144523982101018  0.5836818437002405  1.0000
  N   N2        1.0  0.0965334969183193  0.39916310255077625  0.6193411729237497  1.0000
  C   C13       1.0  0.2505838498610246  0.40615117015393465  0.41281992452943395  1.0000
  C   C14       1.0  0.3237568931233627  0.42463086606878364  0.3696090820323441  1.0000
  H   H1        1.0  0.6613184862010864  0.5425070774045375  0.28539934658831445  1.0000
  H   H2        1.0  0.5527244971256005  0.6050954159202648  0.1389629385277189  1.0000
  H   H3        1.0  0.4236929192823066  0.57411670162878  0.21407341818570802  1.0000
  H   H4        1.0  0.5113271784367139  0.41147033381794107  0.5875441156136738  1.0000
  H   H5        1.0  0.40275151689993643  0.5349676630035314  0.6451938247188675  1.0000
  H   H6        1.0  0.2744082200712955  0.5011580250260808  0.7205934026851268  1.0000
  H   H7        1.0  0.2081985552300686  0.3702557741453609  0.3476651266290989  1.0000
  H   H8        1.0  0.33667802151525755  0.4012772409418497  0.2719009719634653  1.0000
  C   C15       1.0  0.9019359286307893  0.021794206317689024  0.6101627040949629  1.0000
  C   C16       1.0  0.9005482705509696  0.009971768501170875  0.746923666512793  1.0000
  C   C17       1.0  0.8997793375344753  0.8868443860420677  0.8159975194654607  1.0000
  C   C18       1.0  0.9004034354524857  0.7747195486164492  0.7465532885321629  1.0000
  C   C19       1.0  0.9017943236849083  0.7845864836567878  0.6098788903860117  1.0000
  C   C20       1.0  0.9025545082646158  0.9085840786625533  0.5424824117532581  1.0000
  C   C21       1.0  0.8983048048761942  0.8753195042965214  0.9605846640747429  1.0000
  C   C22       1.0  0.8521074461542765  0.7833727989068261  0.026401210389336183  1.0000
  C   C23       1.0  0.8506950227279707  0.7726098215532669  0.16245637657767575  1.0000
  C   C24       1.0  0.8959471720114986  0.8526243886319519  0.23517817756644543  1.0000
  C   C25       1.0  0.941425761573909  0.945539396004237  0.1699698473236857  1.0000
  C   C26       1.0  0.9428556239182554  0.9564778092694538  0.033915227831757155  1.0000
  C   C27       1.0  0.8928497870269856  0.8434459049112746  0.38113390721692897  1.0000
  O   O1        1.0  0.8366979205851288  0.9277705849127077  0.41868941605886956  1.0000
  H   H9        1.0  0.9040671174252246  0.2514125574806163  0.35199659629307756  1.0000
  H   H10       1.0  0.899020786984286  0.09675724625596915  0.7998655420483802  1.0000
  H   H11       1.0  0.9008305884247577  0.6795686248759474  0.7994137206558969  1.0000
  H   H12       1.0  0.9036252161649702  0.9169109935019266  0.4370612570000081  1.0000
  H   H13       1.0  0.9022787427206317  0.46090723230772157  0.557306700992583  1.0000
  H   H14       1.0  0.8161808778165391  0.721127700436447  0.9725650200049871  1.0000
  H   H15       1.0  0.8141483266850801  0.7020184711103951  0.21108725180364396  1.0000
  H   H16       1.0  0.9759684872213577  0.009365851216690535  0.22448603896171349  1.0000
  H   H17       1.0  0.9794274686728018  0.027513771819644983  0.9860922992000487  1.0000
  H   H18       1.0  0.9481094142975749  0.8701155337721088  0.4239561389203673  1.0000
  H   H19       1.0  0.8806399080438095  0.7416634514237301  0.41836617033186796  1.0000
  H   H20       1.0  0.8369734697812217  0.9180516934112961  0.515341100761583  1.0000
  C   C28       1.0  0.9018757815546703  0.4033166322063251  0.2286043754888356  1.0000
  C   C29       1.0  0.8237698084040791  0.42479800488646435  0.22236524845609873  1.0000
  C   C30       1.0  0.7842006582257536  0.4355423854747227  0.10205776531815758  1.0000
  C   C31       1.0  0.8237474313374137  0.4245335878541583  0.9871045690289981  1.0000
  C   C32       1.0  0.9018544714992126  0.4030640736654456  0.9914371659214112  1.0000
  C   C33       1.0  0.9404185032668748  0.392590313248693  0.1126298969938535  1.0000
  C   C34       1.0  0.7016269358907887  0.4582467935485759  0.09646942701066341  1.0000
  C   C35       1.0  0.6684408996610727  0.5468722549394402  0.17576369498536848  1.0000
  C   C36       1.0  0.5907143482641232  0.5681968667193178  0.1703839352178138  1.0000
  C   C37       1.0  0.5451395791603847  0.5012769112098641  0.08587618334874048  1.0000
  C   C38       1.0  0.5775840925225677  0.4129031624923296  0.006650312711291573  1.0000
  C   C39       1.0  0.6553026421213098  0.39148434430009527  0.011793113180664117  1.0000
  C   C40       1.0  0.4651200038784167  0.5232813202272752  0.08045836046544497  1.0000
  N   N3        1.0  0.4007896611669932  0.5409715042828631  0.07610283117991323  1.0000
  H   H21       1.0  0.04940335703669252  0.36191813605466416  0.4477785319604852  1.0000
  H   H22       1.0  0.793428296172085  0.43143478493109466  0.3114251206893248  1.0000
  H   H23       1.0  0.7936878900966964  0.43450418354636544  0.8939571491158214  1.0000
  H   H24       1.0  0.0006162856785427717  0.3760389172799261  0.11670363197695433  1.0000
  H   H25       1.0  0.04952055937929423  0.363305622071026  0.7922394209842594  1.0000
  H   H26       1.0  0.7026988908260435  0.6009353062502714  0.2406880188477476  1.0000
  H   H27       1.0  0.5662102549949386  0.6371001962892002  0.23189222122702802  1.0000
  H   H28       1.0  0.5428065835993432  0.36030114929670276  0.9411288448949877  1.0000
  H   H29       1.0  0.6790693211075105  0.32146601108267836  0.9507966905031089  1.0000
  Zn  Zn1       1.0  0.8195458153663748  0.4048970024922114  0.6060790031186343  1.0000
  Zn  Zn2       1.0  0.9841772431049852  0.4014832600571099  0.6139616272262505  1.0000
  C   C41       1.0  0.9018577817844996  0.3979377574202403  0.8472473036893697  1.0000
  C   C42       1.0  0.9018670741491498  0.408444106567025  0.3727935396060662  1.0000
  C   C43       1.0  0.9018173670828472  0.6404043385390525  0.6047565174108986  1.0000
  C   C44       1.0  0.9019074329613489  0.16597596615567856  0.6152843930226419  1.0000
  O   O2        1.0  0.9643409217591037  0.4088637701188993  0.42417615714469914  1.0000
  O   O3        1.0  0.9643353787085542  0.39492616266719494  0.801847041928905  1.0000
  O   O4        1.0  0.9643019010713979  0.5907210103459146  0.6060339755176976  1.0000
  O   O5        1.0  0.964374343219702  0.21306893292830464  0.6199891234758492  1.0000
  O   O6        1.0  0.8393486590710316  0.5933113307873754  0.6000515041722503  1.0000
  O   O7        1.0  0.8393821364170148  0.3975180435675487  0.7958645007485683  1.0000
  O   O8        1.0  0.8393876795695588  0.4114556062753727  0.41819205438845364  1.0000
  O   O9        1.0  0.8394211010260889  0.21566075976301224  0.6140051181028763  1.0000
