data_image0
_chemical_formula_structural       NC12NC2H8C12NH11C13NH13Zn2C4O8
_chemical_formula_sum              "N4 C43 H32 Zn2 O8"
_cell_length_a       19.240039667572717
_cell_length_b       10.299770795358612
_cell_length_c       10.299780419254978
_cell_angle_alpha    85.56832973562953
_cell_angle_beta     89.9865849046833
_cell_angle_gamma    90.01598423534

_space_group_name_H-M_alt    "P 1"
_space_group_IT_number       1

loop_
  _space_group_symop_operation_xyz
  'x, y, z'

loop_
  _atom_site_type_symbol
  _atom_site_label
  _atom_site_symmetry_multiplicity
  _atom_site_fract_x
  _atom_site_fract_y
  _atom_site_fract_z
  _atom_site_occupancy
  N   N1        1.0  0.6548688931919756  0.42096593677224137  0.5674349049299336  1.0000
  C   C1        1.0  0.5947205243975041  0.4209660207358723  0.5674348229919628  1.0000
  C   C2        1.0  0.5199024872910621  0.4209661379920837  0.5674346856867414  1.0000
  C   C3        1.0  0.4834061880252772  0.3565229834227397  0.6708458546576379  1.0000
  C   C4        1.0  0.4107354125209188  0.3564121207847095  0.6709323990245255  1.0000
  C   C5        1.0  0.37357025239608377  0.4209662305085926  0.567434458009366  1.0000
  C   C6        1.0  0.41078077066201374  0.48552052725991657  0.46393671151793847  1.0000
  C   C7        1.0  0.4834514316708565  0.48540942914892105  0.46402337839225605  1.0000
  C   C8        1.0  0.2963651619566638  0.4209661518272514  0.5674343626014322  1.0000
  C   C9        1.0  0.2591551908824326  0.3077144773621676  0.6093088800989985  1.0000
  C   C10       1.0  0.1864845299070336  0.3078213579686393  0.6092175531253461  1.0000
  C   C11       1.0  0.1500328750065425  0.42096602266756  0.5674344235155171  1.0000
  C   C12       1.0  0.07521483780344529  0.42096590897777064  0.5674346721719834  1.0000
  N   N2        1.0  0.0150665209191342  0.4209658681985997  0.5674348805850837  1.0000
  C   C13       1.0  0.18652873098061637  0.534110763182716  0.5256512410133778  1.0000
  C   C14       1.0  0.2591994546545066  0.5342178238752484  0.5255597514429162  1.0000
  H   H1        1.0  0.5111034830127367  0.3066298353810275  0.7515863374083114  1.0000
  H   H2        1.0  0.3836245142054733  0.30731729328215307  0.7527883064577183  1.0000
  H   H3        1.0  0.3837051381997425  0.5346153818040504  0.38208075323702206  1.0000
  H   H4        1.0  0.5111839080969478  0.5353024769868961  0.38328317143095103  1.0000
  H   H5        1.0  0.2862312448286451  0.21856587094847169  0.6404795328952895  1.0000
  H   H6        1.0  0.1587524715589659  0.21957214935045277  0.6414210889625829  1.0000
  H   H7        1.0  0.15883096587540627  0.622359947267181  0.49344771972717694  1.0000
  H   H8        1.0  0.2863098795429391  0.6233665094559098  0.4943890538730653  1.0000
  C   C15       1.0  0.8349080576667979  0.03959738325648976  0.5674744668605174  1.0000
  C   C16       1.0  0.8147516980221728  0.048744962460883556  0.4360692609441774  1.0000
  C   C17       1.0  0.8046020655400153  0.9362439478557706  0.3694501133205452  1.0000
  C   C18       1.0  0.814878920051811  0.8134633345767042  0.43600071078640545  1.0000
  C   C19       1.0  0.8350340218696825  0.8023244636751837  0.5674064672285435  1.0000
  C   C20       1.0  0.8449360598124036  0.9159460977694982  0.6324073655370386  1.0000
  C   C21       1.0  0.7832781112075521  0.9469749608918892  0.23043103236006868  1.0000
  C   C22       1.0  0.7326753753609307  0.03814334135917874  0.18524566633456097  1.0000
  C   C23       1.0  0.7126350710643901  0.04811414530132452  0.05439984649537233  1.0000
  C   C24       1.0  0.7428182129561804  0.9673355745030287  0.9666593361270275  1.0000
  C   C25       1.0  0.7932542780429472  0.8763650880195712  0.01095417856899883  1.0000
  C   C26       1.0  0.8133502626581482  0.8661382519819741  0.14177002656816384  1.0000
  N   N3        1.0  0.7222899647163884  0.9776658045354618  0.8328291288709648  1.0000
  H   H9        1.0  0.8425590030173912  0.36356399399458605  0.6175630740981155  1.0000
  H   H10       1.0  0.8078197048369369  0.1436394503371934  0.38471905015457386  1.0000
  H   H11       1.0  0.8062021721520204  0.7264237738201653  0.3855905663382184  1.0000
  H   H12       1.0  0.8604852499374969  0.9081211186351225  0.7337806623936705  1.0000
  H   H13       1.0  0.8427442692825313  0.4706275936079592  0.6174634542873334  1.0000
  H   H14       1.0  0.7079433929760494  0.10056838437033289  0.25144628330773444  1.0000
  H   H15       1.0  0.6734542607096223  0.11858838144901918  0.02148958378399146  1.0000
  H   H16       1.0  0.817126800704676  0.8135943451118388  0.9440643158811879  1.0000
  H   H17       1.0  0.8530640678569528  0.7961739841043036  0.17324080350179005  1.0000
  H   H18       1.0  0.7444941952982695  0.9178565558666961  0.7666921216065554  1.0000
  H   H19       1.0  0.6847360673668236  0.04519980567507087  0.7988957384532109  1.0000
  C   C27       1.0  0.8350183550316281  0.4208760449289288  0.1860863442791807  1.0000
  C   C28       1.0  0.8853553567677824  0.5199050861859489  0.17741594414117623  1.0000
  C   C29       1.0  0.9108079398075439  0.5701791705858843  0.05587865513573487  1.0000
  C   C30       1.0  0.8852599286724664  0.5200773186622396  0.9421157529466249  1.0000
  C   C31       1.0  0.8349237522017509  0.42104575806230504  0.9487945999565284  1.0000
  C   C32       1.0  0.810082922929365  0.37200309588746694  0.07123420134613045  1.0000
  C   C33       1.0  0.9640625085001141  0.6749408177884209  0.047797693029694166  1.0000
  C   C34       1.0  0.9593814264455451  0.779518363524373  0.9519620799513313  1.0000
  C   C35       1.0  0.009528356086057954  0.8780348634524349  0.9444417769629387  1.0000
  C   C36       1.0  0.06493028957131353  0.8743317651654261  0.03311656969255172  1.0000
  C   C37       1.0  0.07027759973131253  0.7694753822546521  0.12789543498344202  1.0000
  C   C38       1.0  0.02014503661448175  0.6709341833718203  0.13558851084064205  1.0000
  C   C39       1.0  0.11983118292108452  0.9785494085025805  0.022651837130156283  1.0000
  N   N4        1.0  0.1731059610283232  0.9458975120642983  0.9297768578282395  1.0000
  H   H20       1.0  0.8158658388395252  0.38309448064865914  0.516846995589729  1.0000
  H   H21       1.0  0.9042019030408042  0.5594108983962849  0.26528230151685017  1.0000
  H   H22       1.0  0.9054143009250328  0.5572322640389542  0.8483049417142632  1.0000
  H   H23       1.0  0.7712504495471527  0.2956056533210556  0.07715445627162176  1.0000
  H   H24       1.0  0.815730177525482  0.3833331885381672  0.6238842352851726  1.0000
  H   H25       1.0  0.9165182934468236  0.7858647752841088  0.8836598174780939  1.0000
  H   H26       1.0  0.005065027613323503  0.9574348641157937  0.869595442973282  1.0000
  H   H27       1.0  0.11339892278133856  0.7637812289270709  0.19567111491996858  1.0000
  H   H28       1.0  0.025819545838336122  0.590517025845376  0.20896904768103797  1.0000
  H   H29       1.0  0.09583165894629442  0.07357579423869165  0.9893628412033113  1.0000
  H   H30       1.0  0.14380150544179982  0.9898597306204491  0.11950750956748113  1.0000
  H   H31       1.0  0.2081914529056208  0.02358887597076942  0.919830417227689  1.0000
  H   H32       1.0  0.20097625122923835  0.8655942442624502  0.9705564771444841  1.0000
  Zn  Zn1       1.0  0.7588141555268783  0.42096245145128974  0.5674423863492948  1.0000
  Zn  Zn2       1.0  0.9111212742908259  0.42095876240892594  0.567437998598894  1.0000
  C   C40       1.0  0.8349392097862338  0.4158400341208508  0.8046268993127081  1.0000
  C   C41       1.0  0.834997883475286  0.4260828183453673  0.3302536129030964  1.0000
  C   C42       1.0  0.8350072806223039  0.6581516512138255  0.5622443881192936  1.0000
  C   C43       1.0  0.8349297604011584  0.1837696409680658  0.5726361934729651  1.0000
  O   O1        1.0  0.8927907699139325  0.4278231933603729  0.378635800613899  1.0000
  O   O2        1.0  0.8927439022271597  0.414095879403342  0.7562410076566028  1.0000
  O   O3        1.0  0.8927980909522488  0.6097655749739701  0.560515414873584  1.0000
  O   O4        1.0  0.8927365292303555  0.23215350705954552  0.57436129602669  1.0000
  O   O5        1.0  0.7771988486124047  0.6097677068033407  0.5605190889161655  1.0000
  O   O6        1.0  0.7771446601504297  0.4140995715197102  0.7562446123173965  1.0000
  O   O7        1.0  0.7771915280696616  0.4278268398733285  0.3786378439385001  1.0000
  O   O8        1.0  0.777137287369629  0.23215714430537182  0.5743634367161858  1.0000
