data_image0
_chemical_formula_structural       NC11NC3H8C12SCH12C12OCH12Zn2C4O8
_chemical_formula_sum              "N2 C44 H32 S1 O9 Zn2"
_cell_length_a       17.807433833752565
_cell_length_b       10.299776766347529
_cell_length_c       10.299794127170987
_cell_angle_alpha    85.57877721711455
_cell_angle_beta     88.5176554422573
_cell_angle_gamma    90.66624570658541

_space_group_name_H-M_alt    "P 1"
_space_group_IT_number       1

loop_
  _space_group_symop_operation_xyz
  'x, y, z'

loop_
  _atom_site_type_symbol
  _atom_site_label
  _atom_site_symmetry_multiplicity
  _atom_site_fract_x
  _atom_site_fract_y
  _atom_site_fract_z
  _atom_site_occupancy
  N   N1        1.0  0.7072413930585082  0.4380218758146741  0.5347862817520608  1.0000
  C   C1        1.0  0.6564240295151944  0.40331528229224944  0.6013439081638525  1.0000
  C   C2        1.0  0.5932021036643105  0.3601431398798651  0.6841331016707286  1.0000
  C   C3        1.0  0.6049330289485614  0.29663003479372163  0.8068428325181702  1.0000
  C   C4        1.0  0.5436183332353276  0.25513696830779753  0.8873482791840557  1.0000
  C   C5        1.0  0.4704183810362394  0.2768439318033722  0.8457847460529477  1.0000
  C   C6        1.0  0.457710663711809  0.3405114505923905  0.7226148472755896  1.0000
  C   C7        1.0  0.3799424266355177  0.36354769442731594  0.6782708559271662  1.0000
  C   C8        1.0  0.3611704204156548  0.34663769942848766  0.5486962126145591  1.0000
  C   C9        1.0  0.2879405357502329  0.3683059226597418  0.5070886085440862  1.0000
  C   C10       1.0  0.23253957786477553  0.40720242202445855  0.5942354274383725  1.0000
  C   C11       1.0  0.1571729383480589  0.4295286991952201  0.5512666236613224  1.0000
  N   N2        1.0  0.0965835337229757  0.44747736736207355  0.5167228326842044  1.0000
  C   C12       1.0  0.2506200161429833  0.4243228343715524  0.7232789716801196  1.0000
  C   C13       1.0  0.3237971289245368  0.40261975677305806  0.7651419909766637  1.0000
  C   C14       1.0  0.5198826710873713  0.38199995704759426  0.6421258154364871  1.0000
  H   H1        1.0  0.6613998750424623  0.2792256631757861  0.8402060013977812  1.0000
  H   H2        1.0  0.5528194279479833  0.20571338560624275  0.9820776869337682  1.0000
  H   H3        1.0  0.42378139274520443  0.2423071453137975  0.9092192502836018  1.0000
  H   H4        1.0  0.4028591184309178  0.31497626208533536  0.4799817966847597  1.0000
  H   H5        1.0  0.2745081460065743  0.3543960685509078  0.40705846702324644  1.0000
  H   H6        1.0  0.2082147950510968  0.45476111642801675  0.7914785941215576  1.0000
  H   H7        1.0  0.3367008114788728  0.418074937796866  0.8649894510005085  1.0000
  H   H8        1.0  0.511379785864126  0.4327859359080366  0.5476307683664667  1.0000
  C   C15       1.0  0.9019868887262875  0.06138628954882819  0.5257494861374781  1.0000
  C   C16       1.0  0.906492210289199  0.04997378041402323  0.6620472925471423  1.0000
  C   C17       1.0  0.9087027617180173  0.9270505951417867  0.7311191900265295  1.0000
  C   C18       1.0  0.9063485574160507  0.8146825197363378  0.6620691468540378  1.0000
  C   C19       1.0  0.9018452423421106  0.8241031298709647  0.525770498010157  1.0000
  C   C20       1.0  0.8996891937924323  0.9478946880574219  0.45837364900571287  1.0000
  C   C21       1.0  0.9134606044632012  0.9160411532474956  0.8753072747125492  1.0000
  C   C22       1.0  0.8704594968128384  0.8215580181041521  0.951341165740476  1.0000
  C   C23       1.0  0.874959746540355  0.8114318477348079  0.08703464969266972  1.0000
  C   C24       1.0  0.9222736735625502  0.8955062195533325  0.14850951725025718  1.0000
  C   C25       1.0  0.9654539701288121  0.9894203203966596  0.0738403065472174  1.0000
  C   C26       1.0  0.9610638810506991  0.9998990518301701  0.9381312972363178  1.0000
  S   S1        1.0  0.9281309579441251  0.8820544240878758  0.32261908245510396  1.0000
  C   C27       1.0  0.8526376146302231  0.9962885288975651  0.3456492941306193  1.0000
  H   H9        1.0  0.9002997125438192  0.39318917333380865  0.4738124635856833  1.0000
  H   H10       1.0  0.9072565771734649  0.1368388796400486  0.7149674207910037  1.0000
  H   H11       1.0  0.9090717790187767  0.7197503264399182  0.7147022679695094  1.0000
  H   H12       1.0  0.8962140434199034  0.955930477787156  0.3532256628914432  1.0000
  H   H13       1.0  0.9000917677528683  0.5002381307533267  0.47384121689006786  1.0000
  H   H14       1.0  0.8326443860854801  0.7566618184102951  0.9059839044645446  1.0000
  H   H15       1.0  0.8413678369710919  0.7385700306745941  0.1443117570468211  1.0000
  H   H16       1.0  0.0024694111495826565  0.0543534390697169  0.12082352072987557  1.0000
  H   H17       1.0  0.9956038774824477  0.07241535585518077  0.8822231730580425  1.0000
  H   H18       1.0  0.8676801281537068  0.09296928033272689  0.29607626956312116  1.0000
  H   H19       1.0  0.8439254231191422  0.0067870846365714055  0.451327324686019  1.0000
  H   H20       1.0  0.7997766395181554  0.9594599525329074  0.30598186627065427  1.0000
  C   C28       1.0  0.9019414137968909  0.4426318536208982  0.14440737037020068  1.0000
  C   C29       1.0  0.8283344408500708  0.3917221697017881  0.15062807864110983  1.0000
  C   C30       1.0  0.7910165273979098  0.366027915845349  0.03663425416675925  1.0000
  C   C31       1.0  0.8282833243027335  0.3919473923348651  0.915325562832443  1.0000
  C   C32       1.0  0.9018907178000183  0.44285759388932044  0.9071125732247816  1.0000
  C   C33       1.0  0.9383083552514873  0.46791188701786246  0.022192247025215828  1.0000
  C   C34       1.0  0.7131466718045603  0.31216131142098935  0.04427000803376546  1.0000
  C   C35       1.0  0.6593560795979984  0.359521462037818  0.9556182189164506  1.0000
  C   C36       1.0  0.5861705252385896  0.3088146548183015  0.9630639976487019  1.0000
  C   C37       1.0  0.5657116773487851  0.21038507364363412  0.058698034831131896  1.0000
  C   C38       1.0  0.6187613754873691  0.1616023500097412  0.1482467534587304  1.0000
  C   C39       1.0  0.6920489328603425  0.21295117276338904  0.14034487866378975  1.0000
  O   O1        1.0  0.6010965691244069  0.06260166415525004  0.24588610533194633  1.0000
  C   C40       1.0  0.5290960767332348  0.0015802351024571948  0.26526265097077917  1.0000
  H   H21       1.0  0.929998830639971  0.4619725592586388  0.46949410688244697  1.0000
  H   H22       1.0  0.7994756663582899  0.3735926900653008  0.24424367441997474  1.0000
  H   H23       1.0  0.8001253758937045  0.3706693570098385  0.8273000321788242  1.0000
  H   H24       1.0  0.9950933572184592  0.5071857355353466  0.01662482603036719  1.0000
  H   H25       1.0  0.9299231537982413  0.462317486252237  0.5765264015652889  1.0000
  H   H26       1.0  0.6736291281920208  0.4369332642162327  0.8816387722180892  1.0000
  H   H27       1.0  0.5450886167308678  0.34621187373431583  0.8946328399305825  1.0000
  H   H28       1.0  0.5086448416595588  0.1729653909314568  0.062173420779549016  1.0000
  H   H29       1.0  0.732800006573991  0.17379592084789364  0.2086175861180124  1.0000
  H   H30       1.0  0.5136207381072757  0.9527492492043499  0.1771191810835675  1.0000
  H   H31       1.0  0.5310403416619338  0.9271525305689385  0.34884293041604586  1.0000
  H   H32       1.0  0.4862939537766496  0.07479818842030461  0.28752691719541823  1.0000
  Zn  Zn1       1.0  0.8195971245475959  0.44074705405159875  0.5295810446463132  1.0000
  Zn  Zn2       1.0  0.9842277887418593  0.4447415728191577  0.5219386550586951  1.0000
  C   C41       1.0  0.901899563822881  0.4376412621993886  0.7629449093220901  1.0000
  C   C42       1.0  0.90192714691547  0.4478490469250622  0.28857483443435905  1.0000
  C   C43       1.0  0.9018684736792738  0.6799317917038998  0.5205917381507148  1.0000
  C   C44       1.0  0.9019581811673488  0.2055569557979131  0.530928077406277  1.0000
  O   O2        1.0  0.9643988389539112  0.4511102180525586  0.3340585051845606  1.0000
  O   O3        1.0  0.9643787368204555  0.43741085857059003  0.7116604678507288  1.0000
  O   O4        1.0  0.9643527888336835  0.6330635052920197  0.5159586065753949  1.0000
  O   O5        1.0  0.9644247307681393  0.2554575792293421  0.529760271697475  1.0000
  O   O6        1.0  0.8394001263409503  0.630031046279693  0.521759430608675  1.0000
  O   O7        1.0  0.8394260740390848  0.43437995981918  0.7174612226846075  1.0000
  O   O8        1.0  0.8394461763347438  0.44807927358497857  0.33985769868093874  1.0000
  O   O9        1.0  0.8394720681411499  0.25242662550182726  0.5355595625574148  1.0000
