data_image0
_chemical_formula_structural       NC9NC5H8C16H10C16H10Zn2C4O8
_chemical_formula_sum              "N2 C50 H28 Zn2 O8"
_cell_length_a       17.807436237873137
_cell_length_b       10.29914801576943
_cell_length_c       10.299151387937775
_cell_angle_alpha    85.56202673548964
_cell_angle_beta     89.38153663469635
_cell_angle_gamma    88.40369483635645

_space_group_name_H-M_alt    "P 1"
_space_group_IT_number       1

loop_
  _space_group_symop_operation_xyz
  'x, y, z'

loop_
  _atom_site_type_symbol
  _atom_site_label
  _atom_site_symmetry_multiplicity
  _atom_site_fract_x
  _atom_site_fract_y
  _atom_site_fract_z
  _atom_site_occupancy
  N   N1        1.0  0.7077712443245392  0.3872246643510049  0.5565334893787082  1.0000
  C   C1        1.0  0.6471800481543679  0.3520273736317734  0.5455242938848883  1.0000
  C   C2        1.0  0.5718112596570107  0.308245820097937  0.5318300500333915  1.0000
  C   C3        1.0  0.5537218847806701  0.23677892404328493  0.4268564005207436  1.0000
  C   C4        1.0  0.4805426741377069  0.19415886799886994  0.413477589960354  1.0000
  C   C5        1.0  0.4244040706894623  0.2226281350931869  0.5050401359175081  1.0000
  C   C6        1.0  0.3466334407408945  0.17744895382188197  0.4909039517149849  1.0000
  C   C7        1.0  0.2844655686484928  0.2592228395516998  0.5168086629583648  1.0000
  C   C8        1.0  0.211144023123972  0.21639973589736194  0.5034436191004632  1.0000
  C   C9        1.0  0.1479263966923589  0.3008653405878192  0.5297111033223003  1.0000
  N   N2        1.0  0.0971124125988867  0.3687698435739193  0.5508294366025537  1.0000
  C   C10       1.0  0.1994067715971443  0.09154473559613496  0.4641486226347433  1.0000
  C   C11       1.0  0.2607172728888007  0.009756992803460651  0.43823552745513505  1.0000
  C   C12       1.0  0.333919354370835  0.05218543575531753  0.4513981973309109  1.0000
  C   C13       1.0  0.4431848941695407  0.29458953221236817  0.6102328087809887  1.0000
  C   C14       1.0  0.5164169673302413  0.337019110547476  0.6234560474325002  1.0000
  H   H1        1.0  0.5961218828882693  0.2142603112543482  0.35515251396301384  1.0000
  H   H2        1.0  0.46763211390547005  0.14043586874878589  0.33057904317722264  1.0000
  H   H3        1.0  0.2929733772203914  0.3567079276617233  0.5456448988777385  1.0000
  H   H4        1.0  0.1429381932937027  0.05750140646651114  0.4535679844487235  1.0000
  H   H5        1.0  0.251511372287787  0.9130915367532763  0.40819852493656383  1.0000
  H   H6        1.0  0.3805531613844062  0.9864269660340144  0.4323773243327609  1.0000
  H   H7        1.0  0.4015015523307691  0.3165696261467321  0.6832314314734698  1.0000
  H   H8        1.0  0.5298561676331799  0.3919623287616907  0.7053124448071033  1.0000
  C   C15       1.0  0.9023919013384628  0.996598332552903  0.5538477661732137  1.0000
  C   C16       1.0  0.8852539112400836  0.006951688309710047  0.4206243932396556  1.0000
  C   C17       1.0  0.876619812068881  0.8950686099433942  0.3529119017535234  1.0000
  C   C18       1.0  0.885354243255833  0.7716949422847957  0.42021833160045197  1.0000
  C   C19       1.0  0.9024989201444493  0.7593858641226038  0.5535263597637325  1.0000
  C   C20       1.0  0.9109135288327388  0.8723583214251741  0.6195202350339097  1.0000
  C   C21       1.0  0.8584900708307337  0.9070668085841056  0.21197763725294871  1.0000
  C   C22       1.0  0.8940434734352863  0.8243595776272591  0.12623877208682588  1.0000
  C   C23       1.0  0.8769541400216957  0.8357782895841374  0.9935972605560361  1.0000
  C   C24       1.0  0.8241359782425847  0.9298120755833398  0.9448929226325165  1.0000
  C   C25       1.0  0.7884457368369232  0.012505552193950775  0.029349847124558126  1.0000
  C   C26       1.0  0.805481504223188  0.0013306540419288915  0.1620130900721546  1.0000
  C   C27       1.0  0.8065702188170827  0.9414426263535581  0.8083256316251646  1.0000
  C   C28       1.0  0.7918590846033002  0.9511831006508494  0.6939525020271695  1.0000
  C   C29       1.0  0.7746325201855813  0.9625890656835621  0.5600227332031809  1.0000
  C   C30       1.0  0.7599238550113656  0.972328053783999  0.4456680752616542  1.0000
  H   H9        1.0  0.908945269104859  0.32009242576527197  0.6051058421873436  1.0000
  H   H10       1.0  0.8795924663834586  0.10225288669213373  0.36879707107019444  1.0000
  H   H11       1.0  0.8777536366731518  0.6851396878899713  0.3689140022484332  1.0000
  H   H12       1.0  0.9241303030509737  0.8636567261849077  0.722279730080498  1.0000
  H   H13       1.0  0.9343933432667682  0.5288686912246834  0.8053233291614681  1.0000
  H   H14       1.0  0.9357723244639965  0.7519924771902573  0.16147724740835612  1.0000
  H   H15       1.0  0.9050681708696814  0.7714949723526955  0.9290102982667818  1.0000
  H   H16       1.0  0.7473145834379942  0.08540808038098935  0.9927327177778391  1.0000
  H   H17       1.0  0.7764917999743478  0.06526532338831403  0.22581009116459927  1.0000
  H   H18       1.0  0.7470084628763256  0.9808797052543305  0.34525504233930393  1.0000
  C   C31       1.0  0.9024889305568877  0.37782127926779707  0.1723155042429152  1.0000
  C   C32       1.0  0.8300109936463312  0.4352143027245112  0.16844624320091484  1.0000
  C   C33       1.0  0.7932183984265873  0.4644898300593996  0.04932907589901525  1.0000
  C   C34       1.0  0.8298803575192152  0.4355981207183093  0.9331356645050386  1.0000
  C   C35       1.0  0.9024018880828103  0.37816288320627556  0.9350586145590558  1.0000
  C   C36       1.0  0.9382604521851932  0.3496299571190633  0.055081518798302476  1.0000
  C   C37       1.0  0.7165455189650551  0.5252050090840685  0.04628127376097302  1.0000
  C   C38       1.0  0.6974775944605455  0.6259295117785297  0.9512139891294384  1.0000
  C   C39       1.0  0.6253006931500334  0.6830360098895962  0.9484738675437465  1.0000
  C   C40       1.0  0.571244897066122  0.6402714040137727  0.04051282119071287  1.0000
  C   C41       1.0  0.5896320172486289  0.540137557095332  0.13542775289693165  1.0000
  C   C42       1.0  0.6617873531067778  0.48294448101699383  0.13841779211093086  1.0000
  C   C43       1.0  0.4969491354276712  0.6991081973709001  0.037563692714482455  1.0000
  C   C44       1.0  0.4347274834087752  0.7483831259535023  0.035093754137233146  1.0000
  C   C45       1.0  0.3618665759168736  0.80608362178035  0.032201480263630566  1.0000
  C   C46       1.0  0.2996549790724802  0.8553508251863324  0.02973204724990408  1.0000
  H   H19       1.0  0.930351065946344  0.3556836515656221  0.5012844922143262  1.0000
  H   H20       1.0  0.8024105096560675  0.4589188199890126  0.25814506512519575  1.0000
  H   H21       1.0  0.8013766637518392  0.45632982556918633  0.841172234671149  1.0000
  H   H22       1.0  0.994163637992364  0.3053577321222045  0.05735051983799022  1.0000
  H   H23       1.0  0.03909362320631016  0.2690074342141524  0.7314570456925167  1.0000
  H   H24       1.0  0.7386682137350141  0.6616822352072  0.8800483069707488  1.0000
  H   H25       1.0  0.6117252191013156  0.7607351476730118  0.8747880082474997  1.0000
  H   H26       1.0  0.5481502232874879  0.506039969699368  0.20692842092113795  1.0000
  H   H27       1.0  0.6744749081614319  0.40452573022856786  0.21172396193280796  1.0000
  H   H28       1.0  0.2450280605893811  0.898611435087169  0.027563688582193047  1.0000
  Zn  Zn1       1.0  0.820126692720174  0.381895539527783  0.5548949352663461  1.0000
  Zn  Zn2       1.0  0.9847569433023565  0.374088386176884  0.5524786718617964  1.0000
  C   C47       1.0  0.9024159464964409  0.372924346922082  0.790886022617058  1.0000
  C   C48       1.0  0.9024694874986949  0.383061132333645  0.3164876849023359  1.0000
  C   C49       1.0  0.9024754211817296  0.6152006593387265  0.5484119394754501  1.0000
  C   C50       1.0  0.9024099564097652  0.14078326218734727  0.5589618387651061  1.0000
  O   O1        1.0  0.964939283553906  0.38185123469498006  0.363956228778902  1.0000
  O   O2        1.0  0.9648967012535917  0.36820781584600626  0.7415832172892356  1.0000
  O   O3        1.0  0.964943885449332  0.5638490426690901  0.5457836914001752  1.0000
  O   O4        1.0  0.9648920431934277  0.18621001978328144  0.559755658113215  1.0000
  O   O5        1.0  0.8399915366488792  0.5697739085869946  0.5476179498326481  1.0000
  O   O6        1.0  0.8399443526765562  0.3741342421591727  0.7434174058182668  1.0000
  O   O7        1.0  0.8399869351986489  0.38777761504687547  0.3657888559148168  1.0000
  O   O8        1.0  0.8399396948226847  0.19213639088940093  0.5615883826215982  1.0000
