data_image0
_chemical_formula_structural       NC10NC3NH7C12NH11C13NH13Zn2C4O8
_chemical_formula_sum              "N5 C42 H31 Zn2 O8"
_cell_length_a       19.210446455230148
_cell_length_b       10.299770795358612
_cell_length_c       10.299780419254978
_cell_angle_alpha    85.56832973562953
_cell_angle_beta     89.97732542180437
_cell_angle_gamma    89.96457025778629

_space_group_name_H-M_alt    "P 1"
_space_group_IT_number       1

loop_
  _space_group_symop_operation_xyz
  'x, y, z'

loop_
  _atom_site_type_symbol
  _atom_site_label
  _atom_site_symmetry_multiplicity
  _atom_site_fract_x
  _atom_site_fract_y
  _atom_site_fract_z
  _atom_site_occupancy
  N   N1        1.0  0.6558778205936822  0.41987699152864666  0.5673213523707601  1.0000
  C   C1        1.0  0.595649428477813  0.4220845142071401  0.5675523986310438  1.0000
  C   C2        1.0  0.5208451838658472  0.4248214380450448  0.5678386360314589  1.0000
  C   C3        1.0  0.4852422059403188  0.5410529046101418  0.582944924345667  1.0000
  C   C4        1.0  0.4125767440194381  0.5412044287480677  0.5828923229463485  1.0000
  C   C5        1.0  0.375678477893014  0.4255304096129382  0.5679250859078948  1.0000
  C   C6        1.0  0.2983562557416171  0.4241739277046215  0.5677745569432897  1.0000
  C   C7        1.0  0.2606169109521528  0.5277301727061556  0.5044112239247345  1.0000
  C   C8        1.0  0.1878384547220539  0.5263279446520934  0.5043022128067345  1.0000
  C   C9        1.0  0.1517979581304959  0.421626966811089  0.5675055293895488  1.0000
  C   C10       1.0  0.0768683481594656  0.4203248807081432  0.5673687608485818  1.0000
  N   N2        1.0  0.0166304235416457  0.4192779592802627  0.5672588338178579  1.0000
  C   C11       1.0  0.1888136580664646  0.31819640719712305  0.6308438497997011  1.0000
  C   C12       1.0  0.261593936103279  0.3193243819266429  0.6310031160042915  1.0000
  C   C13       1.0  0.4138914335013138  0.3111192240345877  0.5531068737679694  1.0000
  N   N3        1.0  0.4846615586298981  0.31356418869878233  0.5532723274280495  1.0000
  H   H1        1.0  0.513349051289405  0.6304873163867093  0.5949890971986891  1.0000
  H   H2        1.0  0.3853136757331624  0.6312209688446737  0.5963311338718116  1.0000
  H   H3        1.0  0.2873556874345076  0.6089721107402075  0.45341944039115956  1.0000
  H   H4        1.0  0.1597033396668181  0.6067424528526075  0.45464079896907195  1.0000
  H   H5        1.0  0.1614353752217837  0.23681849951135914  0.680405823505261  1.0000
  H   H6        1.0  0.2890840436441471  0.23902933911467494  0.6821021881813769  1.0000
  H   H7        1.0  0.3876202443370656  0.22023976917714805  0.5396218538186199  1.0000
  C   C14       1.0  0.8361943634083636  0.038209060849230925  0.5673296959794933  1.0000
  C   C15       1.0  0.8160069497561724  0.047390156948672546  0.4359279851233784  1.0000
  C   C16       1.0  0.805841680186294  0.9349060196057574  0.3693105974195636  1.0000
  C   C17       1.0  0.8161343677911378  0.81210831751402  0.4358594129056381  1.0000
  C   C18       1.0  0.8363205216786979  0.8009359318090224  0.5672616745056551  1.0000
  C   C19       1.0  0.846237815251236  0.9145411003523973  0.6322608558265803  1.0000
  C   C20       1.0  0.7844848729850161  0.9456724910655185  0.23029521397718744  1.0000
  C   C21       1.0  0.7338041757520353  0.03692501602201159  0.1851186223341803  1.0000
  C   C22       1.0  0.7137329962492458  0.046929143877189494  0.05427627743152241  1.0000
  C   C23       1.0  0.7439626399664254  0.9661003832025048  0.9665305333850456  1.0000
  C   C24       1.0  0.7944764096573189  0.8750460293774274  0.010816630344790967  1.0000
  C   C25       1.0  0.8146033552629615  0.8647857768390778  0.14162899375260407  1.0000
  N   N4        1.0  0.7234027647668352  0.9764647485229514  0.832703885673721  1.0000
  H   H8        1.0  0.8438570962304548  0.36216294925368886  0.6174169765631099  1.0000
  H   H9        1.0  0.8090642767570901  0.14229617165285013  0.3845789763233256  1.0000
  H   H10       1.0  0.8074442520114481  0.7250831848414131  0.3854507729829213  1.0000
  H   H11       1.0  0.861810961322557  0.9066902653302177  0.733631456494173  1.0000
  H   H12       1.0  0.8440426479270963  0.4692262407980419  0.61731732462764  1.0000
  H   H13       1.0  0.7090340899009699  0.09939118447806461  0.25132352776863676  1.0000
  H   H14       1.0  0.6744918217611393  0.1174685316262496  0.021372808570532698  1.0000
  H   H15       1.0  0.8183857116538301  0.8122355901728094  0.9439226282237749  1.0000
  H   H16       1.0  0.8543783457565748  0.7947554710724103  0.1730928844159223  1.0000
  H   H17       1.0  0.7456412044200292  0.9166185776678808  0.7665630282536031  1.0000
  H   H18       1.0  0.6857910097964997  0.04406119596031921  0.798777007003884  1.0000
  C   C26       1.0  0.8363048307034424  0.4194875391142856  0.18594155427288128  1.0000
  C   C27       1.0  0.8867193844212213  0.5184328777566489  0.1772624258299782  1.0000
  C   C28       1.0  0.9122111811245728  0.5686646384647334  0.055720723412979734  1.0000
  C   C29       1.0  0.8866238093040795  0.5186052689150387  0.9419622511824097  1.0000
  C   C30       1.0  0.8362100821231889  0.4196574095574723  0.9486498263541132  1.0000
  C   C31       1.0  0.8113309816890568  0.3706560538229986  0.07109373507876393  1.0000
  C   C32       1.0  0.965547796764522  0.6733377315919733  0.04763052710353444  1.0000
  C   C33       1.0  0.9608595027748562  0.7779230612402335  0.9517957257125991  1.0000
  C   C34       1.0  0.011083691561362574  0.8763561746140083  0.9442667273773142  1.0000
  C   C35       1.0  0.06657098034350595  0.8725609515176189  0.03293191355606484  1.0000
  C   C36       1.0  0.07192652886663664  0.7676956768606875  0.12770985163731097  1.0000
  C   C37       1.0  0.021716728737676938  0.6692378406428454  0.13541162035028576  1.0000
  C   C38       1.0  0.12155645705989326  0.9766873031973073  0.022457661321860556  1.0000
  N   N5        1.0  0.17491331325025827  0.9439468190786104  0.9295734443122807  1.0000
  H   H19       1.0  0.8171228070807702  0.3817378224933363  0.5167055265798164  1.0000
  H   H20       1.0  0.905594966730555  0.5579073510881105  0.26512551526365136  1.0000
  H   H21       1.0  0.9068092325023257  0.5557267007014293  0.848147945234432  1.0000
  H   H22       1.0  0.7724386808407997  0.2943231836276776  0.07702072345392286  1.0000
  H   H23       1.0  0.8169869367593692  0.381976755966537  0.6237427897985781  1.0000
  H   H24       1.0  0.917930332451939  0.7843407477318884  0.883500895594902  1.0000
  H   H25       1.0  0.0066134866367981715  0.955763597099295  0.8694211673171806  1.0000
  H   H26       1.0  0.11511428702279636  0.7619298194712381  0.19547805444881594  1.0000
  H   H27       1.0  0.02739998042572056  0.5888112472890268  0.20879117324557295  1.0000
  H   H28       1.0  0.09751995808504188  0.07175359641375945  0.9891728268499191  1.0000
  H   H29       1.0  0.14556370959128784  0.9879577663923174  0.11930917736773883  1.0000
  H   H30       1.0  0.21005285978571053  0.021579841262187482  0.9196209199788878  1.0000
  H   H31       1.0  0.20282654196874494  0.8635972073134632  0.9703482309928475  1.0000
  Zn  Zn1       1.0  0.7599832267749906  0.41970066138304274  0.5673108099525646  1.0000
  Zn  Zn2       1.0  0.9125249983483684  0.41944370926120134  0.5672800125447559  1.0000
  C   C39       1.0  0.8362255635224857  0.4144516599124557  0.8044821230299879  1.0000
  C   C40       1.0  0.8362843276074831  0.4246943465717423  0.3301088264465113  1.0000
  C   C41       1.0  0.8362937392322679  0.6567631638142044  0.5620996000332676  1.0000
  C   C42       1.0  0.8362160995791625  0.18238128247253083  0.5724914188287433  1.0000
  O   O1        1.0  0.8941662529779797  0.42633862099401054  0.37848099302144167  1.0000
  O   O2        1.0  0.8941193130842447  0.4126113849706623  0.7560862081908803  1.0000
  O   O3        1.0  0.8941735852954945  0.6082809904338577  0.5603606060116779  1.0000
  O   O4        1.0  0.894111928728192  0.23066902488701446  0.5742064978394259  1.0000
  O   O5        1.0  0.778396244340148  0.6084753458463272  0.5603843246615734  1.0000
  O   O6        1.0  0.7783419723924175  0.41280730066969196  0.756109857458942  1.0000
  O   O7        1.0  0.7783889125189697  0.4265344910892406  0.37850308095327145  1.0000
  O   O8        1.0  0.778334588252701  0.23086488571514208  0.5742286831361527  1.0000
