data_image0
_chemical_formula_structural       NC10NC5H10C12BrH9C12OCH12Zn2C4O8
_chemical_formula_sum              "N2 C44 H31 Br1 O9 Zn2"
_cell_length_a       19.4436361288709
_cell_length_b       10.299144633409057
_cell_length_c       10.299794127170987
_cell_angle_alpha    85.56673362329126
_cell_angle_beta     89.69815743819767
_cell_angle_gamma    89.3925195724905

_space_group_name_H-M_alt    "P 1"
_space_group_IT_number       1

loop_
  _space_group_symop_operation_xyz
  'x, y, z'

loop_
  _atom_site_type_symbol
  _atom_site_label
  _atom_site_symmetry_multiplicity
  _atom_site_fract_x
  _atom_site_fract_y
  _atom_site_fract_z
  _atom_site_occupancy
  N   N1        1.0  0.6473992066070278  0.40899188018014354  0.5619285747247325  1.0000
  C   C1        1.0  0.5885608922067522  0.41889605258371465  0.5763103272877366  1.0000
  C   C2        1.0  0.5152286412442518  0.4312478892208227  0.5942998706860263  1.0000
  C   C3        1.0  0.4730526432593605  0.39923826248278305  0.4996354009293842  1.0000
  C   C4        1.0  0.39714546177643967  0.4096778489184145  0.5049615634792246  1.0000
  C   C5        1.0  0.3574117552065877  0.3849402174544103  0.6120333519425931  1.0000
  C   C6        1.0  0.2812903141874348  0.38885565591151683  0.5990739020933937  1.0000
  C   C7        1.0  0.24071324976567224  0.44653131182119665  0.6928312183015983  1.0000
  C   C8        1.0  0.1690490173027129  0.45016813519251997  0.6822871872087124  1.0000
  C   C9        1.0  0.13696718743972872  0.39573329648542255  0.5782724180112488  1.0000
  C   C10       1.0  0.0631736961860335  0.3994313499412361  0.5675731017626273  1.0000
  N   N2        1.0  0.0038487343304566004  0.4024043908859085  0.5589715608425763  1.0000
  C   C11       1.0  0.1768195289081299  0.33735054514134966  0.48489843417128564  1.0000
  C   C12       1.0  0.2485002043766502  0.3336594661064769  0.4951907074776727  1.0000
  C   C13       1.0  0.3855537367657091  0.34449131811346834  0.7431288312752944  1.0000
  C   C14       1.0  0.4442067946279724  0.3876213437249292  0.7903623326313474  1.0000
  C   C15       1.0  0.48839105254051574  0.4854778320003583  0.7159823490226904  1.0000
  H   H1        1.0  0.49515902005382423  0.3701091705866031  0.409337185392459  1.0000
  H   H2        1.0  0.3724420334989803  0.4321636617854989  0.41180361998634196  1.0000
  H   H3        1.0  0.2645729791057363  0.48983409041454684  0.7736690675787516  1.0000
  H   H4        1.0  0.1386930285075137  0.49549389455583537  0.7551975880494459  1.0000
  H   H5        1.0  0.1524878687082372  0.2942434743326885  0.4043950218488055  1.0000
  H   H6        1.0  0.2781911117453836  0.28609024456929655  0.42297697101077225  1.0000
  H   H7        1.0  0.3546033899893899  0.28027708941484075  0.8073833073164558  1.0000
  H   H8        1.0  0.45936447813330666  0.3535627195342985  0.8882980200449846  1.0000
  H   H9        1.0  0.4582604117741748  0.5761953618099351  0.690716915451165  1.0000
  H   H10       1.0  0.5316697429810601  0.511072548244323  0.7790604749490577  1.0000
  C   C16       1.0  0.8257169776118074  0.02430164972221527  0.5605281254932504  1.0000
  C   C17       1.0  0.7963931812041498  0.03374814105347612  0.43581649588423144  1.0000
  C   C18       1.0  0.7814328203687776  0.9214028971352594  0.3725098765364463  1.0000
  C   C19       1.0  0.7961919505412708  0.7984862202473894  0.43559693230780283  1.0000
  C   C20       1.0  0.8255375517011594  0.7870845484729695  0.5603832371152708  1.0000
  C   C21       1.0  0.8401185785395291  0.9005073772244531  0.6220817369130691  1.0000
  C   C22       1.0  0.7504128517704716  0.9324413017457943  0.24057912537146264  1.0000
  C   C23       1.0  0.7734382128411127  0.027296529890544763  0.14492514099131948  1.0000
  C   C24       1.0  0.7441812061373345  0.03748007412434706  0.020799496144336738  1.0000
  C   C25       1.0  0.6916601507539654  0.9533514349637173  0.9907018050861867  1.0000
  C   C26       1.0  0.6683681573402683  0.8588205261117338  0.08491750896689099  1.0000
  C   C27       1.0  0.6975053102320249  0.8482218959375468  0.2091444221983323  1.0000
  Br  Br1       1.0  0.6517775320210711  0.9675448559699511  0.8210773117659365  1.0000
  H   H11       1.0  0.837024759731249  0.3481449890201289  0.6084737871745878  1.0000
  H   H12       1.0  0.7842497934457272  0.1286788773500358  0.3883584497386361  1.0000
  H   H13       1.0  0.7856325267642865  0.7115989515832867  0.3865217322803056  1.0000
  H   H14       1.0  0.862738911072442  0.89250539358002  0.7182731629274053  1.0000
  H   H15       1.0  0.881321538785188  0.558290671789849  0.7955735279062899  1.0000
  H   H16       1.0  0.8146477658746644  0.09242332071805537  0.16558441644396438  1.0000
  H   H17       1.0  0.7624963518544673  0.11059051007784326  0.9479928286784185  1.0000
  H   H18       1.0  0.6275706760005112  0.7937115698980124  0.06210631101029085  1.0000
  H   H19       1.0  0.6780717562078658  0.7753462190071067  0.2811005488028533  1.0000
  C   C28       1.0  0.8256504853064127  0.4055791709712748  0.17910407699388853  1.0000
  C   C29       1.0  0.7582652184490569  0.3576986101885917  0.1824791535121022  1.0000
  C   C30       1.0  0.7241016329290056  0.3335400971256386  0.06704260103711879  1.0000
  C   C31       1.0  0.7582184055902094  0.35792595696542207  0.9471746067533555  1.0000
  C   C32       1.0  0.8256040574357776  0.4058070180945714  0.9418072651091074  1.0000
  C   C33       1.0  0.8589434648497356  0.4293626178222769  0.05829486604516765  1.0000
  C   C34       1.0  0.6528138085791771  0.28287804414815754  0.07166792270271638  1.0000
  C   C35       1.0  0.6035644082303032  0.33245849377884396  0.9809188173308883  1.0000
  C   C36       1.0  0.5365649448919114  0.28476346020681254  0.9855352749034219  1.0000
  C   C37       1.0  0.5178408978811134  0.18716916484844526  0.08039609908055345  1.0000
  C   C38       1.0  0.5664120883508447  0.13619656014926873  0.1720136825206442  1.0000
  C   C39       1.0  0.6335048955293154  0.18452945665270248  0.1669449521352886  1.0000
  O   O1        1.0  0.5502460768415307  0.03791598030240029  0.2689883649608178  1.0000
  C   C40       1.0  0.4843322328837957  0.9798566778573713  0.2855837450180907  1.0000
  H   H20       1.0  0.8513363239914056  0.42376523399086063  0.5052755216380767  1.0000
  H   H21       1.0  0.7318456425875131  0.3407568904837146  0.2749786895790982  1.0000
  H   H22       1.0  0.7324406546645112  0.3378065540164834  0.8580608741956275  1.0000
  H   H23       1.0  0.9109286554219804  0.46629961206521275  0.05492274278475562  1.0000
  H   H24       1.0  0.8512670179096776  0.42411330663581226  0.6123048071311139  1.0000
  H   H25       1.0  0.6166266085715257  0.4092882513980809  0.9074769617526965  1.0000
  H   H26       1.0  0.4989512362863573  0.32385650218423945  0.9155020595811556  1.0000
  H   H27       1.0  0.46559756226437365  0.15209809630937787  0.08166486077364055  1.0000
  H   H28       1.0  0.6708158332089835  0.14369187574239395  0.23680724874469306  1.0000
  H   H29       1.0  0.4701674494929364  0.9316595348258896  0.19685001888989095  1.0000
  H   H30       1.0  0.4861170975401139  0.9053429825967094  0.3692551227592049  1.0000
  H   H31       1.0  0.4451412994757493  0.054844166067233635  0.3061716679259281  1.0000
  Zn  Zn1       1.0  0.7502628422005267  0.4070874036913903  0.5610827568510335  1.0000
  Zn  Zn2       1.0  0.9009850920971434  0.40429826211677766  0.5598280614263247  1.0000
  C   C41       1.0  0.8256124962695183  0.4005899102747452  0.7976410413653388  1.0000
  C   C42       1.0  0.8256370835171779  0.4107973638519493  0.3232698903601714  1.0000
  C   C43       1.0  0.8255682340813897  0.6429008395512119  0.5552357150402243  1.0000
  C   C44       1.0  0.8256812946371896  0.168484875132765  0.5656752866453132  1.0000
  O   O2        1.0  0.8828308954273371  0.4114845062095125  0.37117710499837164  1.0000
  O   O3        1.0  0.8828133848086765  0.3977848940935489  0.748781168288507  1.0000
  O   O4        1.0  0.8827768713891967  0.5934540485962094  0.5530371583853859  1.0000
  O   O5        1.0  0.8828673574192673  0.21581536192040396  0.566921017957623  1.0000
  O   O6        1.0  0.7683805254442962  0.5955703048409731  0.5539898007410702  1.0000
  O   O7        1.0  0.7684170384977859  0.3999027107342399  0.7497337411054992  1.0000
  O   O8        1.0  0.7684345492679276  0.4136022771237424  0.3721281164937704  1.0000
  O   O9        1.0  0.7684710112533008  0.21793312357429118  0.567872126818227  1.0000
