data_image0
_chemical_formula_structural       NC9NC5H8C12NCOCH13C13OH12Zn2C4O8
_chemical_formula_sum              "N3 C45 H33 O10 Zn2"
_cell_length_a       17.807436237873137
_cell_length_b       10.299155265289647
_cell_length_c       10.299153481560891
_cell_angle_alpha    85.56585442832863
_cell_angle_beta     89.40949667369763
_cell_angle_gamma    88.36808077728016

_space_group_name_H-M_alt    "P 1"
_space_group_IT_number       1

loop_
  _space_group_symop_operation_xyz
  'x, y, z'

loop_
  _atom_site_type_symbol
  _atom_site_label
  _atom_site_symmetry_multiplicity
  _atom_site_fract_x
  _atom_site_fract_y
  _atom_site_fract_z
  _atom_site_occupancy
  N   N1        1.0  0.7068624766279373  0.38733435226175983  0.5567112154694578  1.0000
  C   C1        1.0  0.6462808405616398  0.3521375809161089  0.545697511294045  1.0000
  C   C2        1.0  0.5709239437758581  0.3083566734269929  0.5319976591391684  1.0000
  C   C3        1.0  0.5528305689629212  0.23689655996958736  0.42701485605614153  1.0000
  C   C4        1.0  0.47966292098819957  0.19427713614930786  0.41363058597785374  1.0000
  C   C5        1.0  0.4235400070134837  0.2227402524930644  0.5051967776201804  1.0000
  C   C6        1.0  0.3457816470375182  0.17756173822156773  0.4910548060818585  1.0000
  C   C7        1.0  0.2835916566215927  0.25933439461672214  0.5169699923432047  1.0000
  C   C8        1.0  0.2102817508134802  0.21651192082509563  0.503599462956454  1.0000
  C   C9        1.0  0.1470411391723666  0.3009762896816268  0.5298777670051604  1.0000
  N   N2        1.0  0.0962086768702787  0.3688797990669581  0.5510047986777038  1.0000
  C   C10       1.0  0.1985783431216523  0.0916587796833872  0.4642884728926162  1.0000
  C   C11       1.0  0.2599109653530945  0.009872266710614586  0.43836490092004476  1.0000
  C   C12       1.0  0.3331014919485868  0.05230009109560352  0.4515330057707594  1.0000
  C   C13       1.0  0.4423247143509628  0.2946948552566817  0.6103986673974449  1.0000
  C   C14       1.0  0.5155452493790471  0.337123810833561  0.6236273411684947  1.0000
  H   H1        1.0  0.5952183611016668  0.2143827623660992  0.3553080858253346  1.0000
  H   H2        1.0  0.4667482239073135  0.14055951198457728  0.3307251583407522  1.0000
  H   H3        1.0  0.2920725176493617  0.356818159017535  0.5458187158724754  1.0000
  H   H4        1.0  0.1421190306486803  0.05761594821166294  0.45370347384354437  1.0000
  H   H5        1.0  0.250731376773921  0.9132082232981636  0.4083155158046601  1.0000
  H   H6        1.0  0.3797535984121785  0.9865424844288693  0.4325037092616981  1.0000
  H   H7        1.0  0.4006541393607612  0.31667004051009484  0.6834001047597067  1.0000
  H   H8        1.0  0.5289878516445344  0.3920617346698205  0.7054907757238293  1.0000
  C   C15       1.0  0.9016230943825576  0.9967054998936881  0.5539754523762717  1.0000
  C   C16       1.0  0.8887670293410245  0.00697549229882255  0.4192380923757164  1.0000
  C   C17       1.0  0.8821759537134668  0.8950483268363248  0.3508067547775744  1.0000
  C   C18       1.0  0.8885873457193643  0.7717241494911911  0.4189329396988961  1.0000
  C   C19       1.0  0.9014552639350445  0.7594983853099495  0.5537517169018902  1.0000
  C   C20       1.0  0.9078972608932474  0.8725096512527677  0.6204429234996691  1.0000
  C   C21       1.0  0.8685767166576365  0.906886364077696  0.2082708837541567  1.0000
  C   C22       1.0  0.906663105234518  0.9991682107532641  0.12629472189760227  1.0000
  C   C23       1.0  0.8938715088249748  0.010177413424504289  0.9921588786363622  1.0000
  C   C24       1.0  0.8432048614783048  0.9282203174308165  0.9371506569523196  1.0000
  C   C25       1.0  0.8042007909876111  0.837798233365303  0.019072108875636262  1.0000
  C   C26       1.0  0.817019743469206  0.8265317037086001  0.15317021556766708  1.0000
  N   N3        1.0  0.8279950622769088  0.9391419992547821  0.7998119131426917  1.0000
  C   C27       1.0  0.882833798529818  0.9734504915322005  0.7007900186743545  1.0000
  O   O1        1.0  0.9517590026886855  0.9727259866821915  0.727638369150811  1.0000
  C   C28       1.0  0.8588434280490258  0.000993817809652242  0.5626011285462824  1.0000
  H   H9        1.0  0.9065914052299417  0.32023030148187503  0.6057951682720952  1.0000
  H   H10       1.0  0.882814383834463  0.1022875749508465  0.36751546980975713  1.0000
  H   H11       1.0  0.8845371461983108  0.6851016404304298  0.36636361962070496  1.0000
  H   H12       1.0  0.9178159415375756  0.8638732063867849  0.7243681824325998  1.0000
  H   H13       1.0  0.9261926207048948  0.5291182179491506  0.8080776947748771  1.0000
  H   H14       1.0  0.9467863607912795  0.062326516647115415  0.16579915978904314  1.0000
  H   H15       1.0  0.922682455799269  0.08425000898462542  0.9321559198844946  1.0000
  H   H16       1.0  0.7640052912099283  0.7753471483162581  0.9787016900616123  1.0000
  H   H17       1.0  0.7857949055045217  0.7561901155022701  0.21404150412689438  1.0000
  H   H18       1.0  0.7750756408928134  0.9127726420173584  0.7695139358428209  1.0000
  H   H19       1.0  0.8046122021267835  0.05700867596384329  0.5589422981748622  1.0000
  H   H20       1.0  0.8518839089136352  0.907700821906102  0.5174788615272234  1.0000
  H   H21       1.0  0.9016021601986136  0.059042166685949526  0.5065789105093739  1.0000
  C   C29       1.0  0.9014746772776384  0.37795753981734337  0.17249203110776667  1.0000
  C   C30       1.0  0.8238079231896573  0.3572568502001776  0.17430905015997378  1.0000
  C   C31       1.0  0.7845654772454983  0.34691748671044276  0.05806071450967831  1.0000
  C   C32       1.0  0.8239851022512199  0.35756577421715274  0.9389983916729552  1.0000
  C   C33       1.0  0.9016036717140091  0.37824631188391833  0.935235138106373  1.0000
  C   C34       1.0  0.9398952409924336  0.3883178332365782  0.05252211405583029  1.0000
  C   C35       1.0  0.7024525613741486  0.3250448451646166  0.06095482066543978  1.0000
  C   C36       1.0  0.6549239155200621  0.3925391632021249  0.9689644413253129  1.0000
  C   C37       1.0  0.577650804720263  0.3719996628972493  0.9717659080247918  1.0000
  C   C38       1.0  0.546605916620816  0.2827523002617478  0.06570781818811455  1.0000
  C   C39       1.0  0.5936303316823941  0.21637824187846277  0.1586237928866865  1.0000
  C   C40       1.0  0.6709070129715611  0.23688792339719367  0.1560004323087789  1.0000
  C   C41       1.0  0.4633570555687849  0.2634098160478382  0.0708512477597163  1.0000
  O   O2        1.0  0.4295944139362478  0.35260456092471726  0.15082728628539677  1.0000
  H   H22       1.0  0.047978798132471745  0.41786535038965456  0.3762918435005813  1.0000
  H   H23       1.0  0.7935213032267296  0.35092812683701746  0.2662308233280053  1.0000
  H   H24       1.0  0.7941803569256433  0.34792540743191647  0.8492593779981514  1.0000
  H   H25       1.0  0.9997643588907564  0.4042730159420924  0.0503352295834123  1.0000
  H   H26       1.0  0.931448545553511  0.38628716827195686  0.6063057269420313  1.0000
  H   H27       1.0  0.6773655079901999  0.4627368573475992  0.8960567330668563  1.0000
  H   H28       1.0  0.5419947309334912  0.4259738324370861  0.9007921568590986  1.0000
  H   H29       1.0  0.5704955075017666  0.1484199631055172  0.2329808875317434  1.0000
  H   H30       1.0  0.7061116209531566  0.18273463791565736  0.22750407322418642  1.0000
  H   H31       1.0  0.45145585863071  0.16217908992808372  0.1098747476759745  1.0000
  H   H32       1.0  0.4395746532800519  0.2779033259307706  0.9710649854062017  1.0000
  H   H33       1.0  0.3749858742741449  0.3358379275655492  0.1509300028341476  1.0000
  Zn  Zn1       1.0  0.81921938051679  0.3820053041121869  0.5550719787096414  1.0000
  Zn  Zn2       1.0  0.9838517589193796  0.3741982641824233  0.5526547152286507  1.0000
  C   C42       1.0  0.9015787372508923  0.3730176881018141  0.7910619135398151  1.0000
  C   C43       1.0  0.9014941996266682  0.38318743374766084  0.31666488098873957  1.0000
  C   C44       1.0  0.9014822245813918  0.6153124900321152  0.5486188698084622  1.0000
  C   C45       1.0  0.901590656473734  0.14089107407200951  0.5591079952417055  1.0000
  O   O3        1.0  0.9639778823671518  0.38197423673543573  0.36413326921252565  1.0000
  O   O4        1.0  0.964047220536437  0.36830454250241607  0.7417585047043638  1.0000
  O   O5        1.0  0.9639684433420026  0.5639606997474109  0.5459840435368055  1.0000
  O   O6        1.0  0.9640566033651969  0.18631809140860245  0.5599076338268638  1.0000
  O   O7        1.0  0.8390144798900203  0.5698854795515784  0.5478190609294902  1.0000
  O   O8        1.0  0.8390932567259369  0.37423088271750404  0.7435934523934971  1.0000
  O   O9        1.0  0.8390239183525466  0.3879005310971857  0.36596665550267704  1.0000
  O   O10       1.0  0.8391026393660285  0.1922443765177615  0.5617411174882976  1.0000
