data_image0
_chemical_formula_structural       NC10NC3NCH9C12NCOCH13C12NCOH11Zn2C4O8
_chemical_formula_sum              "N5 C45 H33 O10 Zn2"
_cell_length_a       19.437513618241372
_cell_length_b       10.299155265289647
_cell_length_c       10.299148425239203
_cell_angle_alpha    85.52041506248938
_cell_angle_beta     90.33234682354211
_cell_angle_gamma    89.500514822395

_space_group_name_H-M_alt    "P 1"
_space_group_IT_number       1

loop_
  _space_group_symop_operation_xyz
  'x, y, z'

loop_
  _atom_site_type_symbol
  _atom_site_label
  _atom_site_symmetry_multiplicity
  _atom_site_fract_x
  _atom_site_fract_y
  _atom_site_fract_z
  _atom_site_occupancy
  N   N1        1.0  0.6477537133668579  0.41117750540675413  0.5752324257852581  1.0000
  C   C1        1.0  0.5888172514802089  0.42819014506092934  0.5722526395464931  1.0000
  C   C2        1.0  0.5153728712876144  0.44944586916615625  0.5685539145657883  1.0000
  C   C3        1.0  0.4736318469381103  0.3482543403787832  0.5569150068160063  1.0000
  C   C4        1.0  0.39774055307613115  0.3583232387241502  0.5496910406741049  1.0000
  C   C5        1.0  0.3581438842583727  0.43914617159188474  0.6154212507956003  1.0000
  C   C6        1.0  0.281964174583242  0.43054132901848075  0.6069783560642634  1.0000
  C   C7        1.0  0.248852220793743  0.3091859600112561  0.6116474859962988  1.0000
  C   C8        1.0  0.1771194790332059  0.30281717574470157  0.6044802569822698  1.0000
  C   C9        1.0  0.1375281262018833  0.4173308691408508  0.5930062543595478  1.0000
  C   C10       1.0  0.0636809942887391  0.41062396168096127  0.5856709929601267  1.0000
  N   N2        1.0  0.0043129980997519005  0.40523219797041454  0.5797739011093206  1.0000
  C   C11       1.0  0.1699234783071789  0.5383752871908616  0.589082518189189  1.0000
  C   C12       1.0  0.2416405685219674  0.5449980505715024  0.5963117197924712  1.0000
  C   C13       1.0  0.3868012951209345  0.5313940714919232  0.7053282021107281  1.0000
  N   N3        1.0  0.4437757466067409  0.5946208805200082  0.6849093248546543  1.0000
  C   C14       1.0  0.48762808131460894  0.5854140852366165  0.5717957384489325  1.0000
  H   H1        1.0  0.49603555036873365  0.25319743491001034  0.5448128614964436  1.0000
  H   H2        1.0  0.3730450470669635  0.2888346048003738  0.49138336118780246  1.0000
  H   H3        1.0  0.2783192412219198  0.21926255358320712  0.6226879437450026  1.0000
  H   H4        1.0  0.1525440627404166  0.20858253356672352  0.6083874405155261  1.0000
  H   H5        1.0  0.1397711043597635  0.627642613583586  0.580354508221463  1.0000
  H   H6        1.0  0.2657343834186114  0.6396455283187914  0.5923889889084275  1.0000
  H   H7        1.0  0.3567868058128968  0.5517399251619404  0.7896965239417355  1.0000
  H   H8        1.0  0.5303663988979137  0.6557285561166712  0.5775448155921401  1.0000
  H   H9        1.0  0.45796328923197155  0.6135689793125312  0.48113789501002624  1.0000
  C   C15       1.0  0.8261134804556279  0.026805952497372276  0.577622916117454  1.0000
  C   C16       1.0  0.8143792174324311  0.036769545960665395  0.4425392705776061  1.0000
  C   C17       1.0  0.8083630820531102  0.9246847845158886  0.373930436399732  1.0000
  C   C18       1.0  0.8142147543921933  0.8015126734454309  0.44222937046154676  1.0000
  C   C19       1.0  0.8259598487329738  0.7895936245407378  0.5773947499680714  1.0000
  C   C20       1.0  0.8318399654575444  0.9027590739439697  0.6442594272143689  1.0000
  C   C21       1.0  0.7959504979796294  0.9361987184702533  0.2310282614992767  1.0000
  C   C22       1.0  0.8308532760026085  0.029768583827090023  0.1500497925237183  1.0000
  C   C23       1.0  0.8191778777060164  0.04047298264418364  0.015569395879564185  1.0000
  C   C24       1.0  0.7727940687572423  0.9569321032188847  0.9592243238064837  1.0000
  C   C25       1.0  0.7370509067281517  0.865192570477825  0.040123924775209874  1.0000
  C   C26       1.0  0.7487513682831953  0.8542317530996623  0.17456730269542886  1.0000
  N   N4        1.0  0.7589050454546566  0.9674738472994308  0.8214771879829965  1.0000
  C   C27       1.0  0.8091543337073577  0.003621867691026681  0.7238929366444795  1.0000
  O   O1        1.0  0.8722672458120718  0.005089815613336768  0.7525570825265189  1.0000
  C   C28       1.0  0.7872244364577529  0.03050392213204023  0.5850644858965053  1.0000
  H   H10       1.0  0.8306483362775148  0.3504493619114688  0.6295764416660967  1.0000
  H   H11       1.0  0.8089428938854413  0.13193133011344216  0.3906569347703539  1.0000
  H   H12       1.0  0.8105209094509815  0.7148016360956795  0.38955036298874446  1.0000
  H   H13       1.0  0.840893163922718  0.8943590425908  0.7484518499598294  1.0000
  H   H14       1.0  0.8485400915724514  0.5598069221846389  0.8323867538718317  1.0000
  H   H15       1.0  0.8675861016984925  0.09418430508329512  0.19061265348080592  1.0000
  H   H16       1.0  0.8455799572834145  0.11551832883645496  0.9563212726515515  1.0000
  H   H17       1.0  0.700252172350634  0.8014824342892253  0.9986931305803104  1.0000
  H   H18       1.0  0.7201384298373806  0.7828392008459734  0.2346202690936703  1.0000
  H   H19       1.0  0.7104510009940774  0.939428822536182  0.7897845112187944  1.0000
  H   H20       1.0  0.7375613225407431  0.0847799251776078  0.5799779878195648  1.0000
  H   H21       1.0  0.7808641153541566  0.9370230728199467  0.539756389758824  1.0000
  H   H22       1.0  0.8263985408198733  0.08996983691018623  0.5301644647922004  1.0000
  C   C29       1.0  0.8260883696245499  0.4083547603000135  0.19611324026317267  1.0000
  C   C30       1.0  0.8958854284036691  0.44275251409261696  0.19302227201824995  1.0000
  C   C31       1.0  0.9311647564157912  0.4599804970523649  0.07432162146647503  1.0000
  C   C32       1.0  0.8957404590433184  0.4424147554251969  0.9577633714185181  1.0000
  C   C33       1.0  0.8259849274521937  0.40804478500228947  0.9589044039988139  1.0000
  C   C34       1.0  0.7915681200177861  0.3912073189201446  0.07859030562845004  1.0000
  C   C35       1.0  0.004960100607480866  0.4963456190795221  0.07214388794472759  1.0000
  C   C36       1.0  0.051202707546596615  0.4381993172099288  0.9891518546331937  1.0000
  C   C37       1.0  0.12061077131402875  0.47255800316761687  0.9872512601487999  1.0000
  C   C38       1.0  0.14540164705905  0.5644245055476103  0.06904864439210656  1.0000
  C   C39       1.0  0.09909038936925119  0.6244183058661565  0.15047085912576508  1.0000
  C   C40       1.0  0.029651212024436102  0.5901668152461861  0.15246786692405467  1.0000
  N   N5        1.0  0.2168460633673892  0.5994429032442592  0.06341249852377051  1.0000
  C   C41       1.0  0.2564131083840211  0.6354589323625035  0.17263568833141374  1.0000
  O   O2        1.0  0.23313668225961104  0.6216834451231312  0.28670359144794455  1.0000
  H   H23       1.0  0.6944594757339353  0.34266492543853966  0.4093017833908925  1.0000
  H   H24       1.0  0.9231797411830885  0.45449373117001834  0.2832927085883463  1.0000
  H   H25       1.0  0.9224315251303359  0.4573625346917789  0.8658658746932923  1.0000
  H   H26       1.0  0.7377647402271225  0.36469335256512636  0.08018551945538022  1.0000
  H   H27       1.0  0.7991571018004356  0.3947888373961952  0.6318701744877  1.0000
  H   H28       1.0  0.033871577786156015  0.36497302607274706  0.9267800627543377  1.0000
  H   H29       1.0  0.1553832382795044  0.4264368486012522  0.9227527500090926  1.0000
  H   H30       1.0  0.11603065894915532  0.6998158140402639  0.21043042204474594  1.0000
  H   H31       1.0  0.9949593904924449  0.638953077902431  0.21507403949204518  1.0000
  H   H32       1.0  0.24330893091026407  0.5900616683423061  0.9765691341875322  1.0000
  H   H33       1.0  0.30806495957651236  0.671640217279448  0.1574587243340786  1.0000
  Zn  Zn1       1.0  0.750649026029586  0.40945832556526174  0.5765505079859963  1.0000
  Zn  Zn2       1.0  0.9014176923493  0.406940703090346  0.5784664927192062  1.0000
  C   C42       1.0  0.8260039936148552  0.40292931666750675  0.8147220986954378  1.0000
  C   C43       1.0  0.8260643708057857  0.4134713231919762  0.34029504991747794  1.0000
  C   C44       1.0  0.8259860298153533  0.6454126522976806  0.5722623118306283  1.0000
  C   C45       1.0  0.8260822834634208  0.17098642796785835  0.5827549058386954  1.0000
  O   O3        1.0  0.8832722408551905  0.41422739764480454  0.38941089027033726  1.0000
  O   O4        1.0  0.8832260530007101  0.40026144536266384  0.7670600728430808  1.0000
  O   O5        1.0  0.883210775524295  0.5960698178351398  0.5712720693007227  1.0000
  O   O6        1.0  0.883287466895806  0.2184190353619464  0.5851987957746385  1.0000
  O   O7        1.0  0.7687792000331345  0.5979799941542194  0.5698182042699007  1.0000
  O   O8        1.0  0.7687944772014704  0.40217318213624553  0.7656061380951869  1.0000
  O   O9        1.0  0.7688406653225652  0.41613908979266334  0.3879553940266194  1.0000
  O   O10       1.0  0.7688558913490348  0.22033071818074523  0.5837433969083137  1.0000
