data_image0
_chemical_formula_structural       NC10NC5H10C16H10C13NH13Zn2C4O8
_chemical_formula_sum              "N3 C48 H33 Zn2 O8"
_cell_length_a       19.4436361288709
_cell_length_b       10.29914801576943
_cell_length_c       10.299780419254978
_cell_angle_alpha    85.54946318164076
_cell_angle_beta     89.69141269769756
_cell_angle_gamma    89.43179634642199

_space_group_name_H-M_alt    "P 1"
_space_group_IT_number       1

loop_
  _space_group_symop_operation_xyz
  'x, y, z'

loop_
  _atom_site_type_symbol
  _atom_site_label
  _atom_site_symmetry_multiplicity
  _atom_site_fract_x
  _atom_site_fract_y
  _atom_site_fract_z
  _atom_site_occupancy
  N   N1        1.0  0.6480007858007923  0.4091128718300907  0.5615928437958224  1.0000
  C   C1        1.0  0.5891651819645093  0.41901608579033156  0.5759724245722471  1.0000
  C   C2        1.0  0.5158363081201662  0.431366723163352  0.5939592598717296  1.0000
  C   C3        1.0  0.473654536551673  0.3993637530276106  0.49930143900075286  1.0000
  C   C4        1.0  0.397750821690692  0.40980305550460416  0.5046252368131774  1.0000
  C   C5        1.0  0.35800148117404657  0.3850572560702863  0.61170354832823  1.0000
  C   C6        1.0  0.281882267485579  0.3889736927978067  0.5987430966561735  1.0000
  C   C7        1.0  0.24132036736761803  0.4466430281882834  0.6924878426306049  1.0000
  C   C8        1.0  0.1696581111800456  0.4502806684994036  0.6819428924749629  1.0000
  C   C9        1.0  0.1375629315007619  0.39585294193217657  0.5779398679043364  1.0000
  C   C10       1.0  0.0637714484169788  0.3995518244395133  0.5672396172903171  1.0000
  N   N2        1.0  0.0044481010154726  0.40252553188718276  0.5586373251906491  1.0000
  C   C11       1.0  0.1773998277397505  0.33747647538022796  0.48457862018349207  1.0000
  C   C12       1.0  0.2490785228064461  0.33378459743229394  0.4948718231208953  1.0000
  C   C13       1.0  0.3861206255817516  0.34459824958704854  0.7428093557240973  1.0000
  C   C14       1.0  0.44478644153496705  0.38772523856608543  0.7900332812517277  1.0000
  C   C15       1.0  0.4890108995376614  0.485588246667928  0.715630176534148  1.0000
  H   H1        1.0  0.4957559167323607  0.3702410254288595  0.4090092421153777  1.0000
  H   H2        1.0  0.3730613459113621  0.43229598501836386  0.41146139606587195  1.0000
  H   H3        1.0  0.2651908345791064  0.48994028984808513  0.7733163344457423  1.0000
  H   H4        1.0  0.1393140873973099  0.4956015176815234  0.7548434087810938  1.0000
  H   H5        1.0  0.1530574801145763  0.29437489885442125  0.4040845227943033  1.0000
  H   H6        1.0  0.278756606052638  0.2862202110986414  0.42266849351550384  1.0000
  H   H7        1.0  0.3551429417361345  0.2803786016602241  0.8070791226923468  1.0000
  H   H8        1.0  0.45992566746175056  0.3536590235037602  0.8879775694192056  1.0000
  H   H9        1.0  0.4589148180047731  0.5763085937206669  0.6903436442636091  1.0000
  H   H10       1.0  0.5322949884777153  0.5111785721135376  0.7787028891305154  1.0000
  C   C16       1.0  0.8261787354774512  0.024418711788120495  0.560281030306105  1.0000
  C   C17       1.0  0.8104911083264362  0.034278998679435624  0.42694252799419363  1.0000
  C   C18       1.0  0.8025877111855387  0.9221476434049877  0.3591720605536295  1.0000
  C   C19       1.0  0.8105829711088646  0.7990253997139182  0.42653719239462595  1.0000
  C   C20       1.0  0.8262767185585325  0.7872095756239446  0.5599603934232267  1.0000
  C   C21       1.0  0.8339792006008352  0.9004239977008656  0.6260107707010003  1.0000
  C   C22       1.0  0.7859922633644966  0.9336242403026109  0.2181160043644954  1.0000
  C   C23       1.0  0.8185434647183978  0.8520194227726906  0.13263186562532803  1.0000
  C   C24       1.0  0.8029003727795893  0.8629464210243654  0.9998755426483101  1.0000
  C   C25       1.0  0.7545455077713191  0.955381128991238  0.9508005075942059  1.0000
  C   C26       1.0  0.7218690520791234  0.036968303173351647  0.03500179597848008  1.0000
  C   C27       1.0  0.7374631031818699  0.026283481387039842  0.1677794713060714  1.0000
  C   C28       1.0  0.7384663131244922  0.9665063078403  0.8141152143620012  1.0000
  C   C29       1.0  0.7250001608829907  0.9758235384891162  0.6996432591502453  1.0000
  C   C30       1.0  0.7092314556542737  0.9867338902488056  0.5655977667078389  1.0000
  C   C31       1.0  0.6957675635143582  0.9960497058947848  0.4511442997706916  1.0000
  H   H11       1.0  0.8321774955801922  0.348101279611877  0.6115831166336589  1.0000
  H   H12       1.0  0.8053089263949301  0.1294190311835799  0.37507751640637577  1.0000
  H   H13       1.0  0.8036254502475004  0.712249763478158  0.37518146248962636  1.0000
  H   H14       1.0  0.846077458287129  0.892102651964744  0.7288590524419509  1.0000
  H   H15       1.0  0.8554718927190927  0.5576091733846511  0.8119714532923519  1.0000
  H   H16       1.0  0.8567461591034166  0.780916381354377  0.1681633514005445  1.0000
  H   H17       1.0  0.8286403391718375  0.7995341374553949  0.9354898656654607  1.0000
  H   H18       1.0  0.6842135833781058  0.10862529152977762  0.9980959356994665  1.0000
  H   H19       1.0  0.7109214601579835  0.0893206020779247  0.23136904052855511  1.0000
  H   H20       1.0  0.6839451823211304  0.004229777978875804  0.35064450461481034  1.0000
  C   C32       1.0  0.8262745536483623  0.4057284033437598  0.17876619131857763  1.0000
  C   C33       1.0  0.8760839894589519  0.5038454660288076  0.1696501005890958  1.0000
  C   C34       1.0  0.9012698051455044  0.5536584316896416  0.04788738476628951  1.0000
  C   C35       1.0  0.875989548929038  0.5040194586198194  0.9343506355475428  1.0000
  C   C36       1.0  0.8261809298793953  0.40589986128106137  0.9414751672089574  1.0000
  C   C37       1.0  0.8016004553900437  0.3573072368401875  0.0641347696574226  1.0000
  C   C38       1.0  0.9539662300828081  0.6574552407973588  0.039334901908872455  1.0000
  C   C39       1.0  0.9493302305751717  0.7621274582132695  0.9435031892834211  1.0000
  C   C40       1.0  0.9989515912208436  0.8597354111790134  0.9355389243644536  1.0000
  C   C41       1.0  0.05377681510956611  0.8550188027554493  0.023760367640226043  1.0000
  C   C42       1.0  0.059072115775181455  0.7500555400338182  0.11852995810308209  1.0000
  C   C43       1.0  0.00946497293402615  0.6524226232379187  0.12666688616388888  1.0000
  C   C44       1.0  0.10810244236614963  0.9582414529025705  0.012810785783166745  1.0000
  N   N3        1.0  0.16082367074130732  0.9246124385800021  0.91950946258327  1.0000
  H   H21       1.0  0.8073227723993774  0.36829382511606634  0.5096964553811509  1.0000
  H   H22       1.0  0.8947329262297486  0.543010037204493  0.2573487867335438  1.0000
  H   H23       1.0  0.8959327769279043  0.5408090417137326  0.8403621981280485  1.0000
  H   H24       1.0  0.763174972724365  0.28161333989326165  0.0703988530267241  1.0000
  H   H25       1.0  0.8071885152305477  0.3685350346660927  0.6167347294070216  1.0000
  H   H26       1.0  0.9069131620898875  0.7692582999468307  0.8755505235229486  1.0000
  H   H27       1.0  0.994531958359778  0.9392239190083043  0.8607030120593584  1.0000
  H   H28       1.0  0.10174466325911813  0.7435722914931484  0.1859537076571649  1.0000
  H   H29       1.0  0.01508321142362501  0.5718947203410716  0.2000273992478907  1.0000
  H   H30       1.0  0.08434947645227964  0.05371497766268751  0.9796873492243083  1.0000
  H   H31       1.0  0.13182279297803512  0.9691143866741929  0.10946605027535306  1.0000
  H   H32       1.0  0.19554113983717247  0.001668893720534026  0.909249510463086  1.0000
  H   H33       1.0  0.18840658610300687  0.8437925193917595  0.960086904776817  1.0000
  Zn  Zn1       1.0  0.7508637811846023  0.4072084378496408  0.5607474582839469  1.0000
  Zn  Zn2       1.0  0.9015850944726237  0.4044193597095098  0.5594933959384809  1.0000
  C   C45       1.0  0.8261964085308308  0.40069340345006244  0.797309057481079  1.0000
  C   C46       1.0  0.8262541131933189  0.4109360024360966  0.32293190981975783  1.0000
  C   C47       1.0  0.8262552985882418  0.6430247778153915  0.5548460316324755  1.0000
  C   C48       1.0  0.8261951714963002  0.16860306860653318  0.565395005988278  1.0000
  O   O1        1.0  0.8834452053640621  0.4116196134350911  0.37083933417632986  1.0000
  O   O2        1.0  0.883399305611932  0.39789196679006356  0.7484494554013068  1.0000
  O   O3        1.0  0.8834460888564992  0.5935776308604854  0.5526588524103011  1.0000
  O   O4        1.0  0.8833983707016695  0.21593395958548878  0.5666298402203673  1.0000
  O   O5        1.0  0.7690504535217705  0.5956938389268498  0.5536110144231787  1.0000
  O   O6        1.0  0.7690036704830252  0.4000097352738503  0.7494015475153863  1.0000
  O   O7        1.0  0.7690495704667882  0.4137373363072605  0.3717898649673581  1.0000
  O   O8        1.0  0.7690027357884354  0.21805167319002683  0.5675804683794827  1.0000
