data_image0
_chemical_formula_structural       NC8NC6H8C16H10C12ClH9Zn2C4O8
_chemical_formula_sum              "N2 C46 H27 Cl1 Zn2 O8"
_cell_length_a       17.457602349358154
_cell_length_b       10.29914801576943
_cell_length_c       10.299771906710086
_cell_angle_alpha    85.52082016499398
_cell_angle_beta     92.8856013609098
_cell_angle_gamma    91.70309287404056

_space_group_name_H-M_alt    "P 1"
_space_group_IT_number       1

loop_
  _space_group_symop_operation_xyz
  'x, y, z'

loop_
  _atom_site_type_symbol
  _atom_site_label
  _atom_site_symmetry_multiplicity
  _atom_site_fract_x
  _atom_site_fract_y
  _atom_site_fract_z
  _atom_site_occupancy
  N   N1        1.0  0.7225015371045607  0.45333674425121595  0.6258999857311565  1.0000
  C   C1        1.0  0.6614160113973453  0.4074105404964077  0.6153028793483908  1.0000
  C   C2        1.0  0.585423036116238  0.3502840552530986  0.602129618732876  1.0000
  C   C3        1.0  0.5269073288044318  0.39042861334119827  0.6770116648134161  1.0000
  C   C4        1.0  0.4523527984282431  0.33542040181614197  0.6644519847555632  1.0000
  C   C5        1.0  0.3902469393221726  0.37780707662889124  0.7437549637241685  1.0000
  C   C6        1.0  0.3156975817733722  0.39629249110467657  0.6879833733240541  1.0000
  C   C7        1.0  0.2571818556156954  0.4362530781210119  0.7629734491370284  1.0000
  C   C8        1.0  0.1811942174077276  0.45534501062785404  0.7049861288680515  1.0000
  N   N2        1.0  0.1201130718967182  0.4706885440791746  0.6583644770219612  1.0000
  C   C9        1.0  0.2727234078037987  0.4579712721752689  0.8942435388538064  1.0000
  C   C10       1.0  0.3464881541510559  0.4398747703521704  0.950402572620382  1.0000
  C   C11       1.0  0.4049923449924067  0.40009412635487407  0.8758701492398508  1.0000
  C   C12       1.0  0.4376023870130594  0.23959055147189456  0.5755776009248428  1.0000
  C   C13       1.0  0.4961064543789838  0.19972458648259495  0.5010954485049874  1.0000
  C   C14       1.0  0.5698762878375989  0.25484503099946143  0.5142050379863854  1.0000
  H   H1        1.0  0.5392685154854555  0.4656109334525287  0.7436123798071079  1.0000
  H   H2        1.0  0.3033406697400118  0.3813491754455449  0.5859639874515674  1.0000
  H   H3        1.0  0.227872490921672  0.4888403969338848  0.9530673664064835  1.0000
  H   H4        1.0  0.3583315424812757  0.45637598294284065  0.05204805924656697  1.0000
  H   H5        1.0  0.461480226473767  0.3850882719629074  0.9219831695043106  1.0000
  H   H6        1.0  0.3811102203128579  0.19425407627733682  0.5649441368998886  1.0000
  H   H7        1.0  0.4842591226493105  0.12565915509788272  0.4332959452775902  1.0000
  H   H8        1.0  0.6147271730211399  0.22310599244536777  0.45589269500183494  1.0000
  C   C15       1.0  0.9212563541283267  0.08060898322608301  0.6422936210641648  1.0000
  C   C16       1.0  0.9037259910863202  0.0894812495497479  0.5073883951819482  1.0000
  C   C17       1.0  0.894894088668553  0.9768524235444899  0.4388285803481804  1.0000
  C   C18       1.0  0.9038283684812313  0.8542340188560794  0.506992164128721  1.0000
  C   C19       1.0  0.9213655783418988  0.8434065847425669  0.6419827018847379  1.0000
  C   C20       1.0  0.9299729624293558  0.957105829828373  0.7088023604324711  1.0000
  C   C21       1.0  0.8763492681154357  0.9872838252390623  0.29611513643915965  1.0000
  C   C22       1.0  0.9126398082785295  0.9079070158421223  0.21386057767339817  1.0000
  C   C23       1.0  0.8951592591293718  0.9178486983534253  0.07954199084092384  1.0000
  C   C24       1.0  0.8412086347352143  0.0070601846886115815  0.025659049883290708  1.0000
  C   C25       1.0  0.8047780765438667  0.08641156931650418  0.10661823630039291  1.0000
  C   C26       1.0  0.8222039262637875  0.07670875938512856  0.24095330355655653  1.0000
  C   C27       1.0  0.8232407046682483  0.017172690853828332  0.8873679261329235  1.0000
  C   C28       1.0  0.8081927569835541  0.0256418187948253  0.7715511051969255  1.0000
  C   C29       1.0  0.7905717879301133  0.03555905239126056  0.6359307908644976  1.0000
  C   C30       1.0  0.7755263656603036  0.04402690802712317  0.5201326838770264  1.0000
  H   H9        1.0  0.9279598275946697  0.40466920347957025  0.6941948221945768  1.0000
  H   H10       1.0  0.8979332686810695  0.18429874444396033  0.4550053789647963  1.0000
  H   H11       1.0  0.896055397717004  0.7670163698099595  0.4549420442985992  1.0000
  H   H12       1.0  0.9434923374740637  0.9495464341828432  0.812858896416286  1.0000
  H   H13       1.0  0.9539910417550478  0.6156430221996272  0.8969097116030906  1.0000
  H   H14       1.0  0.955262670737069  0.8393520679247036  0.2531903522244767  1.0000
  H   H15       1.0  0.923856866784511  0.856196641876391  0.017710303476168754  1.0000
  H   H16       1.0  0.7627653172416252  0.155557888915979  0.06596838414275386  1.0000
  H   H17       1.0  0.7926118738026711  0.13793220650346538  0.30190917378745286  1.0000
  H   H18       1.0  0.762315273592118  0.051462403173127225  0.4184521864826083  1.0000
  C   C31       1.0  0.9212744689967411  0.4621125240690156  0.2607658554538299  1.0000
  C   C32       1.0  0.9908733283301497  0.5340387639501118  0.26009193764983696  1.0000
  C   C33       1.0  0.026177033926331417  0.5703778373809245  0.1426232199506725  1.0000
  C   C34       1.0  0.9909473065179557  0.533826811432657  0.024828291835822913  1.0000
  C   C35       1.0  0.9213474611119603  0.461903088632335  0.02351047209401247  1.0000
  C   C36       1.0  0.8869011513772873  0.42644790260087695  0.14197896783205533  1.0000
  C   C37       1.0  0.0998073329829876  0.6464684278898947  0.14296406074176704  1.0000
  C   C38       1.0  0.11194772320504343  0.7500123358425128  0.22371421346355325  1.0000
  C   C39       1.0  0.18128484148835433  0.8215315001819405  0.22385051465157213  1.0000
  C   C40       1.0  0.2392683847085908  0.7905881764987794  0.14361076922654648  1.0000
  C   C41       1.0  0.22786055395913896  0.6879357791320406  0.0630488638214124  1.0000
  C   C42       1.0  0.15859217494543  0.6162192752917883  0.06254262788750631  1.0000
  Cl  Cl1       1.0  0.32621629778123995  0.8804403182147247  0.1440142673335072  1.0000
  H   H19       1.0  0.894733585329354  0.4347614524848895  0.5884699141343803  1.0000
  H   H20       1.0  0.018326555151601198  0.5604385306244162  0.3513036969470835  1.0000
  H   H21       1.0  0.017390336013803243  0.5631243276211273  0.9338659649076355  1.0000
  H   H22       1.0  0.8332083690240288  0.3709612190723597  0.14173062337686848  1.0000
  H   H23       1.0  0.8948413332496716  0.4344515555549753  0.6955596587698132  1.0000
  H   H24       1.0  0.0674747275777432  0.7767271621972056  0.2854449694474881  1.0000
  H   H25       1.0  0.18977949971671082  0.9011830691847069  0.2861444657067034  1.0000
  H   H26       1.0  0.2726839785599542  0.6633835795536664  0.0010022443905552958  1.0000
  H   H27       1.0  0.1513708623297183  0.5360829500976485  0.0005724055457092536  1.0000
  Zn  Zn1       1.0  0.8372436374148958  0.4583406137817392  0.6352760366008281  1.0000
  Zn  Zn2       1.0  0.0053709568292086285  0.46567402283481907  0.648999063114786  1.0000
  C   C43       1.0  0.9213312187141718  0.4567684246212045  0.8793373509715605  1.0000
  C   C44       1.0  0.9212852117219036  0.4672479308104185  0.4049380253986308  1.0000
  C   C45       1.0  0.9213404946663508  0.6992228608178697  0.636865910668106  1.0000
  C   C46       1.0  0.9212758781827936  0.22479193164705502  0.6474095308947165  1.0000
  O   O1        1.0  0.9850922577820412  0.47174874448293935  0.45853134201482226  1.0000
  O   O2        1.0  0.9851289177120459  0.4578325190269843  0.8361591205003072  1.0000
  O   O3        1.0  0.985135548189077  0.6536175046237429  0.6403616461742101  1.0000
  O   O4        1.0  0.9850855699265556  0.27596376570159853  0.6543287142788616  1.0000
  O   O5        1.0  0.8575289669439456  0.6480508684138433  0.629946380746925  1.0000
  O   O6        1.0  0.857522336680242  0.4522674432826661  0.8257437851905636  1.0000
  O   O7        1.0  0.8574856766453399  0.4661836239095407  0.44811444531317757  1.0000
  O   O8        1.0  0.8574789887947055  0.27039863581166523  0.6439119149494472  1.0000
