data_image0
_chemical_formula_structural       NC10NC3NH7C12NCOCH13C12BrH9Zn2C4O8
_chemical_formula_sum              "N4 C43 H29 O9 Br1 Zn2"
_cell_length_a       19.210446455230148
_cell_length_b       10.299155265289647
_cell_length_c       10.299148005577397
_cell_angle_alpha    85.5359577284707
_cell_angle_beta     89.9640022898858
_cell_angle_gamma    89.9251083167036

_space_group_name_H-M_alt    "P 1"
_space_group_IT_number       1

loop_
  _space_group_symop_operation_xyz
  'x, y, z'

loop_
  _atom_site_type_symbol
  _atom_site_label
  _atom_site_symmetry_multiplicity
  _atom_site_fract_x
  _atom_site_fract_y
  _atom_site_fract_z
  _atom_site_occupancy
  N   N1        1.0  0.6555318533731125  0.4204997876021359  0.5668988174522871  1.0000
  C   C1        1.0  0.5953026174610179  0.4227073963540955  0.5671294265466225  1.0000
  C   C2        1.0  0.5204973267233468  0.42544442698543605  0.5674151219218686  1.0000
  C   C3        1.0  0.4848495548933424  0.541679370122722  0.5824986552861002  1.0000
  C   C4        1.0  0.4121840435729986  0.5418309247352444  0.5824460177601314  1.0000
  C   C5        1.0  0.3753303482316749  0.4261534218021885  0.5675014324921008  1.0000
  C   C6        1.0  0.298008645642021  0.424796890073327  0.5673511713931427  1.0000
  C   C7        1.0  0.2602389508982922  0.5283837996388063  0.5039606978032862  1.0000
  C   C8        1.0  0.187461025953897  0.5269815033640142  0.5038519677494941  1.0000
  C   C9        1.0  0.1514513218783073  0.4222498307521252  0.5670826480064564  1.0000
  C   C10       1.0  0.0765222096731339  0.42094769405472743  0.5669461372800033  1.0000
  N   N2        1.0  0.0162846852710429  0.4199007319330088  0.5668364175444329  1.0000
  C   C11       1.0  0.1884973284761751  0.31878862517084916  0.6304480806861099  1.0000
  C   C12       1.0  0.2612771702319557  0.31991662909371343  0.6306071271962621  1.0000
  C   C13       1.0  0.4135873898267049  0.31173879561752993  0.5527056235442716  1.0000
  N   N3        1.0  0.4843565916541001  0.3141838880684762  0.5528705849319433  1.0000
  H   H1        1.0  0.5129218811913168  0.6311163060127616  0.5945253569207181  1.0000
  H   H2        1.0  0.3848860677692254  0.631849533050534  0.5958673614050183  1.0000
  H   H3        1.0  0.2869540767560502  0.6096502546659011  0.4529475073548619  1.0000
  H   H4        1.0  0.1593024002323482  0.6074199878253308  0.4541694375187304  1.0000
  H   H5        1.0  0.1611429243712214  0.23738670316078436  0.6800313616956921  1.0000
  H   H6        1.0  0.2887905654409987  0.239597103272442  0.6817274195016743  1.0000
  H   H7        1.0  0.3873514325294443  0.2208572230682695  0.5392382457051417  1.0000
  C   C14       1.0  0.8359893120377756  0.03880263778414195  0.5669863160696973  1.0000
  C   C15       1.0  0.824132093114021  0.04855353397210438  0.4320570290460142  1.0000
  C   C16       1.0  0.8180528461494069  0.936359899593148  0.3635273205295084  1.0000
  C   C17       1.0  0.8239657301450073  0.8132941116229141  0.43174925897432836  1.0000
  C   C18       1.0  0.8358338986724541  0.8015879446245968  0.5667601383897216  1.0000
  C   C19       1.0  0.8417757216209824  0.9148597528959117  0.6335474829939196  1.0000
  C   C20       1.0  0.8055101995686772  0.947648838247893  0.22078842733425952  1.0000
  C   C21       1.0  0.8408325548852963  0.04171986808944883  0.13936100901104842  1.0000
  C   C22       1.0  0.8290348257930805  0.05221261636086405  0.0050341981149393256  1.0000
  C   C23       1.0  0.7821117121531734  0.9679610612619085  0.9492892114595688  1.0000
  C   C24       1.0  0.7459390966042909  0.8757077445438745  0.030648614288743214  1.0000
  C   C25       1.0  0.7577621878911498  0.8649589433467239  0.16493808363031492  1.0000
  N   N4        1.0  0.7680746846745157  0.9782570810990387  0.8117243120954609  1.0000
  C   C26       1.0  0.818925916034967  0.015131799364757503  0.7134933108570265  1.0000
  O   O1        1.0  0.8827779968284576  0.017553666058823802  0.7413419525673479  1.0000
  C   C27       1.0  0.7967535543828523  0.041647296082605756  0.5749509413297651  1.0000
  H   H8        1.0  0.8405717137673654  0.3625281783395602  0.6188801930965366  1.0000
  H   H9        1.0  0.8186376121966137  0.14361969266859886  0.3802459798085558  1.0000
  H   H10       1.0  0.8202343126204091  0.7265133529478589  0.3791190563768152  1.0000
  H   H11       1.0  0.8509237858321986  0.906623814004076  0.737620815892948  1.0000
  H   H12       1.0  0.8586512976647986  0.572209187604253  0.8214552145574361  1.0000
  H   H13       1.0  0.877992925994269  0.10669729079408219  0.17944872866183337  1.0000
  H   H14       1.0  0.85575406912698  0.12763761343764068  0.945446426449779  1.0000
  H   H15       1.0  0.708712138379483  0.8114346824931145  0.9896938306993097  1.0000
  H   H16       1.0  0.7288059906635722  0.7931538169177139  0.22535922760880744  1.0000
  H   H17       1.0  0.7190542344068883  0.9494770605689709  0.7806579313506332  1.0000
  H   H18       1.0  0.7465068450728508  0.09517742495345516  0.570505789493859  1.0000
  H   H19       1.0  0.7903234740291372  0.9480587604368997  0.5297259235881304  1.0000
  H   H20       1.0  0.836394568521386  0.10168550861150871  0.5195462705857339  1.0000
  C   C28       1.0  0.8360064629184208  0.4202471607875897  0.18548500886931385  1.0000
  C   C29       1.0  0.7705182497595114  0.4811403250480468  0.18004127580818485  1.0000
  C   C30       1.0  0.7372163229761366  0.511961354383514  0.06014295365713296  1.0000
  C   C31       1.0  0.7702859421404056  0.48106790026727775  0.94476430266602  1.0000
  C   C32       1.0  0.835816712001126  0.42014339616434904  0.9482614259726865  1.0000
  C   C33       1.0  0.868273324602157  0.39010620388617756  0.06904548903677843  1.0000
  C   C34       1.0  0.6679381942561204  0.5763809044672499  0.05542905664083553  1.0000
  C   C35       1.0  0.6532958195074434  0.6777306576232109  0.13547955305303483  1.0000
  C   C36       1.0  0.5880598200185384  0.738252517888009  0.13084804819211304  1.0000
  C   C37       1.0  0.5367246372687485  0.6983910244014431  0.04650412563321216  1.0000
  C   C38       1.0  0.5506677085969971  0.5978293575975497  0.9666010514624412  1.0000
  C   C39       1.0  0.6158445726120917  0.5370856132744688  0.970840093917333  1.0000
  Br  Br1       1.0  0.4476532033541908  0.7812158478505242  0.04044477482370579  1.0000
  H   H21       1.0  0.8612102553628551  0.3968776912702763  0.515050373353741  1.0000
  H   H22       1.0  0.7448275187287614  0.5031308849472238  0.26937872134704044  1.0000
  H   H23       1.0  0.7452817872519475  0.5062062795853757  0.8519447099535591  1.0000
  H   H24       1.0  0.9187870247358528  0.3431417235662697  0.07252833304084572  1.0000
  H   H25       1.0  0.9596968195218811  0.3058865612613304  0.7475129142439303  1.0000
  H   H26       1.0  0.6925660051331529  0.7112851069367898  0.20037037105573852  1.0000
  H   H27       1.0  0.5775320967433005  0.816342246154034  0.19263121994671129  1.0000
  H   H28       1.0  0.5109853030774667  0.5664277420038721  0.9014026655183396  1.0000
  H   H29       1.0  0.625207650875051  0.45830847540349917  0.909258422054557  1.0000
  Zn  Zn1       1.0  0.7596373259696699  0.42032344774177766  0.5668883106608913  1.0000
  Zn  Zn2       1.0  0.9121791962453631  0.42006648700204186  0.5668575637895277  1.0000
  C   C40       1.0  0.835852089146081  0.41498893723870944  0.8040819128963923  1.0000
  C   C41       1.0  0.8359660984557875  0.4254026334247194  0.3296640882052979  1.0000
  C   C42       1.0  0.8358609602291164  0.6574059669802463  0.5616274704294675  1.0000
  C   C43       1.0  0.8359571756216255  0.1829840433413903  0.5721186003875072  1.0000
  O   O2        1.0  0.8938413977190086  0.42702967570800565  0.3780402377251557  1.0000
  O   O3        1.0  0.8937525401361517  0.4131658879542284  0.7556820536381437  1.0000
  O   O4        1.0  0.8937589229426547  0.608920706383121  0.559898375697589  1.0000
  O   O5        1.0  0.8938349628826279  0.23127486667096608  0.5738238182938484  1.0000
  O   O6        1.0  0.7779815072773525  0.6091150681619568  0.5599220561602309  1.0000
  O   O7        1.0  0.7779751241669237  0.4133618101639589  0.755705664389162  1.0000
  O   O8        1.0  0.7780639821937146  0.42722555287071984  0.37806228700983224  1.0000
  O   O9        1.0  0.7780575473321591  0.23147073453093037  0.5738459649540479  1.0000
