data_image0
_chemical_formula_structural       NC10NC3NH7C12ClH9C12SCH12Zn2C4O8
_chemical_formula_sum              "N3 C42 H28 Cl1 S1 Zn2 O8"
_cell_length_a       19.210446455230148
_cell_length_b       10.299768534541528
_cell_length_c       10.299780138516091
_cell_angle_alpha    85.57853540926422
_cell_angle_beta     89.98277112440113
_cell_angle_gamma    89.96529235611058

_space_group_name_H-M_alt    "P 1"
_space_group_IT_number       1

loop_
  _space_group_symop_operation_xyz
  'x, y, z'

loop_
  _atom_site_type_symbol
  _atom_site_label
  _atom_site_symmetry_multiplicity
  _atom_site_fract_x
  _atom_site_fract_y
  _atom_site_fract_z
  _atom_site_occupancy
  N   N1        1.0  0.6558144167260941  0.41976614216147157  0.5674843084885253  1.0000
  C   C1        1.0  0.5955860512628369  0.42197366267344116  0.5677155949619435  1.0000
  C   C2        1.0  0.5207818396841423  0.424710583810187  0.5680021301838163  1.0000
  C   C3        1.0  0.4851804148979675  0.5409421398864516  0.5831210505879669  1.0000
  C   C4        1.0  0.4125149513193192  0.5410936591368767  0.5830684660427414  1.0000
  C   C5        1.0  0.3756151428949205  0.42541955552998445  0.5680886571420405  1.0000
  C   C6        1.0  0.2982929039302003  0.4240630743607634  0.5679379806166249  1.0000
  C   C7        1.0  0.2605510297751026  0.5276140815170738  0.5045863127161858  1.0000
  C   C8        1.0  0.1877725585380626  0.526211857452265  0.504477148811995  1.0000
  C   C9        1.0  0.1517345754432142  0.421516115796982  0.5676686759266598  1.0000
  C   C10       1.0  0.0768049497265326  0.4202140309381521  0.5675317657008858  1.0000
  N   N2        1.0  0.0165670124506876  0.41916711051331856  0.5674217247505555  1.0000
  C   C11       1.0  0.1887528043181406  0.3180907912629729  0.6309953450992254  1.0000
  C   C12       1.0  0.2615330980726762  0.31921876773791946  0.6311547338249397  1.0000
  C   C13       1.0  0.4138265723105543  0.3110082854070313  0.5532580104659199  1.0000
  N   N3        1.0  0.48459672235152434  0.3134532414111828  0.5534237306599308  1.0000
  H   H1        1.0  0.5132884767371793  0.63037664965291  0.5951749409664979  1.0000
  H   H2        1.0  0.3852531744873895  0.6311103889707881  0.596517050710389  1.0000
  H   H3        1.0  0.2872877566185647  0.6088518216187848  0.4536036875518372  1.0000
  H   H4        1.0  0.1596354560308746  0.6066222666144727  0.4548247957331857  1.0000
  H   H5        1.0  0.1613764973646898  0.23671698365739546  0.6805481532054976  1.0000
  H   H6        1.0  0.2890252671016665  0.23892792249544859  0.6822447506261313  1.0000
  H   H7        1.0  0.3875540835201913  0.22012864471219196  0.5397631226399822  1.0000
  C   C14       1.0  0.8361283866606338  0.03810135171873319  0.5674509070933134  1.0000
  C   C15       1.0  0.840723059660073  0.04762079100244865  0.43098751478464714  1.0000
  C   C16       1.0  0.8431181367534767  0.9353048903582256  0.36184780551828055  1.0000
  C   C17       1.0  0.840856006757251  0.8123328571879915  0.4310029809570417  1.0000
  C   C18       1.0  0.8362596962080975  0.8008218915682018  0.5674663115029761  1.0000
  C   C19       1.0  0.833922138383864  0.9142629931438195  0.6349260789056435  1.0000
  C   C20       1.0  0.8479798432934407  0.9464293298129168  0.2174809124395285  1.0000
  C   C21       1.0  0.8083844263908591  0.04001407481158692  0.1430274330666439  1.0000
  C   C22       1.0  0.8130224239863252  0.05028881862713974  0.007153184206456942  1.0000
  C   C23       1.0  0.8571887414688956  0.9675005847262904  0.9440406470255156  1.0000
  C   C24       1.0  0.8967728623791104  0.8742276751366369  0.016982977949057787  1.0000
  C   C25       1.0  0.8922584797892076  0.8635604789727719  0.15287184794755437  1.0000
  Cl  Cl1       1.0  0.8629302381390123  0.9806379492305187  0.7735625625002056  1.0000
  H   H8        1.0  0.8343418739009895  0.36192778542928283  0.6194469303777239  1.0000
  H   H9        1.0  0.8434106768024455  0.14261377005321707  0.37825690535982703  1.0000
  H   H10       1.0  0.8417270456730533  0.725482636573376  0.3780591413146648  1.0000
  H   H11       1.0  0.8303768546957754  0.9061509963972334  0.7402013043986138  1.0000
  H   H12       1.0  0.8345360020868059  0.46898188433608307  0.6194701245091296  1.0000
  H   H13       1.0  0.7731855557450001  0.10406167132212585  0.18977483775616522  1.0000
  H   H14       1.0  0.7821203645998568  0.12243816407747166  0.9510493891384457  1.0000
  H   H15       1.0  0.9311955503930825  0.8101342740888468  0.968546308328488  1.0000
  H   H16       1.0  0.924043959919519  0.7917025527511699  0.20748125392177097  1.0000
  C   C26       1.0  0.8362219976815221  0.41935029404761215  0.1861065060815923  1.0000
  C   C27       1.0  0.7700262309540364  0.36144921083649173  0.1896112302927664  1.0000
  C   C28       1.0  0.7364567906708129  0.3322245821156449  0.07424019236786794  1.0000
  C   C29       1.0  0.7699692811246127  0.36167474222837126  0.9543073482528612  1.0000
  C   C30       1.0  0.8361660852597697  0.4195730002609821  0.9488107855073666  1.0000
  C   C31       1.0  0.8689217292991656  0.44808734200185296  0.06523342151349887  1.0000
  C   C32       1.0  0.6664262687275332  0.2709851183942471  0.07901070639302521  1.0000
  C   C33       1.0  0.6148801357721045  0.3127312911247828  0.9880640189558978  1.0000
  C   C34       1.0  0.5489826619712412  0.2550625840492229  0.992790531773788  1.0000
  C   C35       1.0  0.5336702822521958  0.1552791493293697  0.08835389230915291  1.0000
  C   C36       1.0  0.5845967632564784  0.11273508018591216  0.17889502057489848  1.0000
  C   C37       1.0  0.6505372720383875  0.1702302876014068  0.17453090469258759  1.0000
  S   S1        1.0  0.4491432940344755  0.08114902222945175  0.09396843289871626  1.0000
  C   C38       1.0  0.4134659495655167  0.19542242866871717  0.2027058981138945  1.0000
  H   H17       1.0  0.8614557578120787  0.4413657190236162  0.5122280524328053  1.0000
  H   H18       1.0  0.7440081519612207  0.3405702929246692  0.2821646659446526  1.0000
  H   H19       1.0  0.7447228195803299  0.33771548779500304  0.8652390317513969  1.0000
  H   H20       1.0  0.9199891072670875  0.49275477917850874  0.061761303860195405  1.0000
  H   H21       1.0  0.8613746884131017  0.4416933143765527  0.6192585043963792  1.0000
  H   H22       1.0  0.6252445401172813  0.3910811512847203  0.9143855558374923  1.0000
  H   H23       1.0  0.509767385283511  0.2884606571644175  0.9224667071422399  1.0000
  H   H24       1.0  0.5731685630560583  0.03508295451207988  0.25269854692344906  1.0000
  H   H25       1.0  0.6893776770278619  0.1347818680417292  0.24475393762235398  1.0000
  H   H26       1.0  0.4428999157894705  0.1893435083427102  0.2957147799328601  1.0000
  H   H27       1.0  0.3582210737423321  0.17038564494540154  0.22348731924221932  1.0000
  H   H28       1.0  0.4161739940880129  0.29613898437896036  0.15611617880179463  1.0000
  Zn  Zn1       1.0  0.7599198211815341  0.419589812736646  0.5674737468405504  1.0000
  Zn  Zn2       1.0  0.9124615894537308  0.4193328605967528  0.5674429214931811  1.0000
  C   C39       1.0  0.8361742034495846  0.41435727131507005  0.8046432182440824  1.0000
  C   C40       1.0  0.8362088732097874  0.42456703785361527  0.33027357724706885  1.0000
  C   C41       1.0  0.8362316665303494  0.6566500043380483  0.5622884935020924  1.0000
  C   C42       1.0  0.8361513578034991  0.18227274465081145  0.5726283712035538  1.0000
  O   O1        1.0  0.8940932736230234  0.426214647045017  0.3786456651392156  1.0000
  O   O2        1.0  0.894065475437441  0.4125136615726317  0.7562473607771094  1.0000
  O   O3        1.0  0.8941110971340805  0.6081681094072966  0.5605442060331172  1.0000
  O   O4        1.0  0.8940475998829494  0.23056020855973536  0.5743487225235335  1.0000
  O   O5        1.0  0.7783337586972975  0.6083624648627608  0.5605679458138859  1.0000
  O   O6        1.0  0.7782881372711631  0.4127095772970184  0.7562710313470724  1.0000
  O   O7        1.0  0.7783159356097245  0.426410517057904  0.3786677743763027  1.0000
  O   O8        1.0  0.7782702618580666  0.23075606931233583  0.574370929123984  1.0000
