data_image0
_chemical_formula_structural       NC11NC3H8C12NCOCH13C13NH13Zn2C4O8
_chemical_formula_sum              "N4 C45 H34 O9 Zn2"
_cell_length_a       17.807433833752565
_cell_length_b       10.299155265289647
_cell_length_c       10.299780419254978
_cell_angle_alpha    85.55647119552991
_cell_angle_beta     88.51101288378402
_cell_angle_gamma    90.66237101144992

_space_group_name_H-M_alt    "P 1"
_space_group_IT_number       1

loop_
  _space_group_symop_operation_xyz
  'x, y, z'

loop_
  _atom_site_type_symbol
  _atom_site_label
  _atom_site_symmetry_multiplicity
  _atom_site_fract_x
  _atom_site_fract_y
  _atom_site_fract_z
  _atom_site_occupancy
  N   N1        1.0  0.7072913259435691  0.4382548747640087  0.5343198757624894  1.0000
  C   C1        1.0  0.6564706459761702  0.40354026669128484  0.6008890801743512  1.0000
  C   C2        1.0  0.5932445949706736  0.36035815506941105  0.6836926757282566  1.0000
  C   C3        1.0  0.604969389659467  0.2968303136555206  0.8064236036937604  1.0000
  C   C4        1.0  0.5436506658706299  0.2553275939317783  0.8869429019163511  1.0000
  C   C5        1.0  0.47045278354358927  0.2770395651273978  0.8453721280803763  1.0000
  C   C6        1.0  0.45775122267254165  0.340721868476183  0.7221809789833757  1.0000
  C   C7        1.0  0.3799851981414492  0.36376344469954747  0.677829301104645  1.0000
  C   C8        1.0  0.3612225406358475  0.3468619626234488  0.5482586302406425  1.0000
  C   C9        1.0  0.287994730151617  0.36853519368153287  0.5066437971697475  1.0000
  C   C10       1.0  0.2325865423493374  0.4074282775337832  0.5937793062760661  1.0000
  C   C11       1.0  0.15722204661114222  0.42975972209766145  0.550803052951929  1.0000
  N   N2        1.0  0.096634365429123  0.44771254446966435  0.51625327309173  1.0000
  C   C12       1.0  0.2506576606544775  0.42454023532733753  0.7228188065606374  1.0000
  C   C13       1.0  0.3238326831613816  0.4028321273988056  0.7646890684272534  1.0000
  C   C14       1.0  0.5199272571688577  0.38222002652827447  0.6416780971877807  1.0000
  H   H1        1.0  0.6614345735807194  0.2794219240099072  0.839792578471805  1.0000
  H   H2        1.0  0.5528470413359388  0.20589260212292193  0.9816887966743837  1.0000
  H   H3        1.0  0.4238126843910826  0.24249501773140136  0.9088181248494471  1.0000
  H   H4        1.0  0.40291697333115284  0.31520313512975506  0.47955344327830285  1.0000
  H   H5        1.0  0.2745695867997077  0.35463183965002254  0.40661699083686975  1.0000
  H   H6        1.0  0.2082467816022475  0.454975844339254  0.7910095786116174  1.0000
  H   H7        1.0  0.3367290787797728  0.41828095204168614  0.8645327063904891  1.0000
  H   H8        1.0  0.5114290286859933  0.43301751087272655  0.5471661379440642  1.0000
  C   C15       1.0  0.9020503283299763  0.06158837155752406  0.5254011917419916  1.0000
  C   C16       1.0  0.8892352880975603  0.07095984182058546  0.3910765664483684  1.0000
  C   C17       1.0  0.8826650492063267  0.9585719093046244  0.322856808543142  1.0000
  C   C18       1.0  0.8890556992789972  0.8356956702700458  0.390777128550686  1.0000
  C   C19       1.0  0.9018825678443839  0.8243692639981034  0.5251827919695788  1.0000
  C   C20       1.0  0.9083042576881767  0.9378309082130749  0.5916672110006453  1.0000
  C   C21       1.0  0.8691092114373024  0.9694594851006181  0.1807575315608585  1.0000
  C   C22       1.0  0.9072199837587775  0.06448569723572906  0.09757504774057901  1.0000
  C   C23       1.0  0.8944692289198194  0.07460089624564015  0.9638498719967008  1.0000
  C   C24       1.0  0.8438199006568334  0.9890210696486441  0.9104520276914156  1.0000
  C   C25       1.0  0.8047914745349011  0.8957888432809458  0.9936089368519605  1.0000
  C   C26       1.0  0.8175695965472963  0.8854182848394577  0.12729550884797014  1.0000
  N   N3        1.0  0.8286519447667317  0.9988759421819217  0.7736008307163798  1.0000
  C   C27       1.0  0.8835200241140806  0.03713265383058184  0.6728413634129895  1.0000
  O   O1        1.0  0.9524362203475101  0.04134461479269236  0.6975006475730896  1.0000
  C   C28       1.0  0.8595718650122166  0.06297986031130431  0.5354188036161607  1.0000
  H   H9        1.0  0.9070028608188491  0.38546045585957533  0.5770614121403188  1.0000
  H   H10       1.0  0.8832984038604497  0.16585406073390319  0.33954468548185046  1.0000
  H   H11       1.0  0.8850214939316711  0.7487918239905959  0.33833818250331626  1.0000
  H   H12       1.0  0.9181912951545034  0.9298876936335585  0.6952740387573795  1.0000
  H   H13       1.0  0.9265424815737728  0.5957188586433096  0.7787147631026303  1.0000
  H   H14       1.0  0.9473307546143029  0.13051356303564532  0.13580435546100622  1.0000
  H   H15       1.0  0.9232980120089122  0.15074915860236282  0.9029343066747986  1.0000
  H   H16       1.0  0.7646087230018195  0.830463167765749  0.9545159712703302  1.0000
  H   H17       1.0  0.7863266894236669  0.812827835451321  0.18915600751831363  1.0000
  H   H18       1.0  0.7757423765768715  0.968718123220038  0.744983906028879  1.0000
  H   H19       1.0  0.8053424295802375  0.11510765062967354  0.5334817625740431  1.0000
  H   H20       1.0  0.8526261180180612  0.9691956891472937  0.49051901797766506  1.0000
  H   H21       1.0  0.9023470508856056  0.12410307394286013  0.47804104652744517  1.0000
  C   C29       1.0  0.9020176101282691  0.4428951626731543  0.14393549658566895  1.0000
  C   C30       1.0  0.95638816509149  0.5432524567739412  0.1327216104406721  1.0000
  C   C31       1.0  0.9838802085547708  0.5941981770119769  0.00989818608267612  1.0000
  C   C32       1.0  0.9562849468006754  0.5434221949925544  0.8974261731326152  1.0000
  C   C33       1.0  0.9019152848831765  0.44306240305112055  0.9066484652323266  1.0000
  C   C34       1.0  0.8750840044948666  0.3933642493578353  0.030343285302737  1.0000
  C   C35       1.0  0.041402120833978984  0.7003650630236327  0.9991263171432507  1.0000
  C   C36       1.0  0.03630059486027215  0.8048266185907276  0.9035057358420446  1.0000
  C   C37       1.0  0.09046590230050677  0.9046663467177434  0.8934515772177067  1.0000
  C   C38       1.0  0.15035215671681224  0.902417692318159  0.9793482505672588  1.0000
  C   C39       1.0  0.15617392973368593  0.7976947742786524  0.0738787204705551  1.0000
  C   C40       1.0  0.10202416112640544  0.6978307227841827  0.08410493604239688  1.0000
  C   C41       1.0  0.20965382273380406  0.00808376602000882  0.9661101385304258  1.0000
  N   N4        1.0  0.26725233923072245  0.9768285448777729  0.8705692022167133  1.0000
  H   H22       1.0  0.8813304248773897  0.4046082102210471  0.47566392764721677  1.0000
  H   H23       1.0  0.9767439357633968  0.583255737414049  0.21963520894625455  1.0000
  H   H24       1.0  0.9780553029640388  0.5811087928126129  0.8025974500116781  1.0000
  H   H25       1.0  0.833139847603496  0.31594212621006124  0.03822571245820394  1.0000
  H   H26       1.0  0.8811836914079798  0.40484337184837016  0.5827079266642037  1.0000
  H   H27       1.0  0.9899666641065439  0.8100479927735096  0.8373521791991516  1.0000
  H   H28       1.0  0.08560978273072939  0.9839544084970338  0.8188141101911794  1.0000
  H   H29       1.0  0.20278668205019845  0.7931324809930893  0.13949262118481687  1.0000
  H   H30       1.0  0.10818986942844355  0.6175572388070538  0.15721604838166803  1.0000
  H   H31       1.0  0.18367451003750968  0.10248628501592894  0.9340069425737494  1.0000
  H   H32       1.0  0.23555919576076811  0.020024225594173828  0.06176138397745734  1.0000
  H   H33       1.0  0.3051458121279642  0.05544629047844385  0.8588482839009339  1.0000
  H   H34       1.0  0.2974097538574585  0.8972517529416382  0.9099660919989563  1.0000
  Zn  Zn1       1.0  0.8196473164253599  0.44098068070526275  0.5291137297619359  1.0000
  Zn  Zn2       1.0  0.9842783611023572  0.4449761205200531  0.521470007801917  1.0000
  C   C42       1.0  0.9019340677084048  0.4378567404600826  0.7624809728663293  1.0000
  C   C43       1.0  0.9019934072076308  0.44810174315673623  0.2881028082214536  1.0000
  C   C44       1.0  0.9019110848521901  0.6801861812900778  0.5200492640712837  1.0000
  C   C45       1.0  0.9020163342207237  0.20577074056753863  0.5305345893078872  1.0000
  O   O2        1.0  0.9644619092057474  0.4513597015818347  0.3335859239650478  1.0000
  O   O3        1.0  0.9644167195827448  0.43763024853364385  0.7111960754654116  1.0000
  O   O4        1.0  0.9643973182397214  0.63331431653432  0.5154307940863194  1.0000
  O   O5        1.0  0.96448125438237  0.2556756414872985  0.5293511105782651  1.0000
  O   O6        1.0  0.8394443669648523  0.6302811583759824  0.5212326295871832  1.0000
  O   O7        1.0  0.839463767970502  0.43459865077247395  0.7169978412764837  1.0000
  O   O8        1.0  0.8395089578629462  0.4483280582203375  0.33938612843688465  1.0000
  O   O9        1.0  0.8395283030254743  0.2526439888576264  0.5351514124175731  1.0000
