data_image0
_chemical_formula_structural       NC9NC5H8C12NCOCH13C13NH9Zn2C4O8
_chemical_formula_sum              "N4 C45 H30 O9 Zn2"
_cell_length_a       17.807436237873137
_cell_length_b       10.299155265289647
_cell_length_c       10.298528502251457
_cell_angle_alpha    85.52481818200185
_cell_angle_beta     89.38885601427037
_cell_angle_gamma    88.36808077728016

_space_group_name_H-M_alt    "P 1"
_space_group_IT_number       1

loop_
  _space_group_symop_operation_xyz
  'x, y, z'

loop_
  _atom_site_type_symbol
  _atom_site_label
  _atom_site_symmetry_multiplicity
  _atom_site_fract_x
  _atom_site_fract_y
  _atom_site_fract_z
  _atom_site_occupancy
  N   N1        1.0  0.7071468437927463  0.38835753918255844  0.5565389955223632  1.0000
  C   C1        1.0  0.6465673777258721  0.35316857575323235  0.5455239771404172  1.0000
  C   C2        1.0  0.5712131801837603  0.3093973804642609  0.5318224902553057  1.0000
  C   C3        1.0  0.5531404898397853  0.2380116921892408  0.4268271601347333  1.0000
  C   C4        1.0  0.479975478930477  0.19540175684433425  0.4134412929829361  1.0000
  C   C5        1.0  0.4238345239243413  0.22379995940875608  0.5050184107301758  1.0000
  C   C6        1.0  0.3460789503015951  0.17863147076793529  0.49087475170587336  1.0000
  C   C7        1.0  0.2838838538887814  0.2603857551782749  0.5167930302880739  1.0000
  C   C8        1.0  0.2105765824387921  0.21757276012086946  0.5034209054674168  1.0000
  C   C9        1.0  0.1473307932567052  0.3020184995684483  0.5297023451658842  1.0000
  N   N2        1.0  0.0964941683544766  0.3699070314227999  0.5508318978143516  1.0000
  C   C10       1.0  0.1988809200817233  0.09274748761592178  0.46410522463295734  1.0000
  C   C11       1.0  0.2602186499622672  0.010979352572823897  0.4381785593389096  1.0000
  C   C12       1.0  0.333406582082778  0.05339784172788575  0.45134823546929126  1.0000
  C   C13       1.0  0.4425985036268182  0.2956799816734341  0.610232853687432  1.0000
  C   C14       1.0  0.5158164322461956  0.33809955908142086  0.6234631059655142  1.0000
  H   H1        1.0  0.5955424101635252  0.21554872947771542  0.3551118335177701  1.0000
  H   H2        1.0  0.4670771164748281  0.14174290660629874  0.3305259726836627  1.0000
  H   H3        1.0  0.2923590309329939  0.35784906792941595  0.5456451961815432  1.0000
  H   H4        1.0  0.1424236931415992  0.05871216013972469  0.4535189625324465  1.0000
  H   H5        1.0  0.2510449819296544  0.9143366119919051  0.4081255885907875  1.0000
  H   H6        1.0  0.3800624378356004  0.9876537254502605  0.4323166682958466  1.0000
  H   H7        1.0  0.4009135453669673  0.31760341420992133  0.6832430019215685  1.0000
  H   H8        1.0  0.5292429051874371  0.39297944768839965  0.7053363088475484  1.0000
  C   C15       1.0  0.9019080005671406  0.997730626271819  0.5538029059851697  1.0000
  C   C16       1.0  0.8890784824519522  0.008096137679092008  0.41904946849460667  1.0000
  C   C17       1.0  0.8825008896600303  0.896217485064718  0.35060996535020217  1.0000
  C   C18       1.0  0.8888988589536729  0.7728450112025447  0.41874427940554626  1.0000
  C   C19       1.0  0.9017402142016041  0.7605236703002816  0.5535791438136279  1.0000
  C   C20       1.0  0.9081690711773299  0.8734876570214676  0.6202783083171255  1.0000
  C   C21       1.0  0.8689297360494264  0.9081565698861294  0.20805708628208142  1.0000
  C   C22       1.0  0.9070322761608995  0.0004965317064473673  0.12607114264768104  1.0000
  C   C23       1.0  0.8942671081625352  0.011600826948146237  0.9919192936722152  1.0000
  C   C24       1.0  0.843611298932401  0.929682727788333  0.9369045081506862  1.0000
  C   C25       1.0  0.8045910876864614  0.839202567363439  0.018835735323604608  1.0000
  C   C26       1.0  0.8173836191920083  0.8278409718887643  0.15294984322695693  1.0000
  N   N3        1.0  0.8284285592007482  0.9407017728066166  0.799549376441806  1.0000
  C   C27       1.0  0.8832868054614159  0.9750804644151593  0.7005156662193319  1.0000
  O   O1        1.0  0.9522067197646517  0.9743369260346837  0.7273672203661472  1.0000
  C   C28       1.0  0.8593236619523255  0.002721756578921486  0.5623102867485845  1.0000
  H   H9        1.0  0.9068661015203934  0.3212186914451509  0.6056288052511025  1.0000
  H   H10       1.0  0.8831360277094936  0.10344488791385165  0.367320674144167  1.0000
  H   H11       1.0  0.8848590170191722  0.6862597699715591  0.36616868651097967  1.0000
  H   H12       1.0  0.9180672757176714  0.8647775366950915  0.7242159680965028  1.0000
  H   H13       1.0  0.926427461833186  0.5299632042931077  0.807935469048088  1.0000
  H   H14       1.0  0.947147748268416  0.06362683182307882  0.16558029439284017  1.0000
  H   H15       1.0  0.9230898773524828  0.0857159602479507  0.9319091750875459  1.0000
  H   H16       1.0  0.7644035419798302  0.7767801020091911  0.9784604993229808  1.0000
  H   H17       1.0  0.7861467879270702  0.7574562303599851  0.21382839523214714  1.0000
  H   H18       1.0  0.7755151073426386  0.9143538946345279  0.7692477838460192  1.0000
  H   H19       1.0  0.8050931569192291  0.058739208578101554  0.5586510197884658  1.0000
  H   H20       1.0  0.8523730331313886  0.9094607490854146  0.5171826355302431  1.0000
  H   H21       1.0  0.9020934320033228  0.06080982113886013  0.5062813838794171  1.0000
  C   C29       1.0  0.9018347460770008  0.37925311023365116  0.1722739643361746  1.0000
  C   C30       1.0  0.8237274136107068  0.40281789845688487  0.17092287657864835  1.0000
  C   C31       1.0  0.7841575795415008  0.4146177556361734  0.05309170641712013  1.0000
  C   C32       1.0  0.8237050454498921  0.4025540794119402  0.9356635793841575  1.0000
  C   C33       1.0  0.9018134445284919  0.37900112116919304  0.9351080710416628  1.0000
  C   C34       1.0  0.940378142894285  0.36749869492985954  0.05388739121239383  1.0000
  C   C35       1.0  0.7015824203330677  0.4395247529799149  0.05267100832419458  1.0000
  C   C36       1.0  0.6683930754406192  0.5290351036264951  0.13404746889861308  1.0000
  C   C37       1.0  0.5906651731317027  0.552433010384348  0.13353199985945063  1.0000
  C   C38       1.0  0.5450923404658212  0.4867290481184128  0.051871078425510975  1.0000
  C   C39       1.0  0.5775401479444606  0.3974901894921419  0.9706094244879044  1.0000
  C   C40       1.0  0.6552600516279101  0.3739982901543737  0.9708884285236463  1.0000
  C   C41       1.0  0.4650713726767713  0.510867916527356  0.051461051923093803  1.0000
  N   N4        1.0  0.4007399104793274  0.5302740620040971  0.051131453254373405  1.0000
  H   H22       1.0  0.04936491736699766  0.3339194351132857  0.382215473449123  1.0000
  H   H23       1.0  0.7933854320080422  0.4102640214537534  0.2618814709924606  1.0000
  H   H24       1.0  0.7936449225507023  0.41332648287466145  0.8443974644175998  1.0000
  H   H25       1.0  0.0005769727949154202  0.34934157033408386  0.054193820212142585  1.0000
  H   H26       1.0  0.049482072975842506  0.33530378909478187  0.7266691230506943  1.0000
  H   H27       1.0  0.7026494818319465  0.582184092591143  0.19683211801662215  1.0000
  H   H28       1.0  0.5661585178052345  0.6219897154531215  0.19657797964670443  1.0000
  H   H29       1.0  0.542764169469141  0.3458160910285366  0.9072602324816588  1.0000
  H   H30       1.0  0.6790293251103838  0.30334625672671023  0.9084003725276153  1.0000
  Zn  Zn1       1.0  0.819504070655847  0.383029653132789  0.5548995631611742  1.0000
  Zn  Zn2       1.0  0.9841369253251196  0.3752243268672657  0.552482011241034  1.0000
  C   C42       1.0  0.9018169309511145  0.3738747373987945  0.7909176574106731  1.0000
  C   C43       1.0  0.9018258624514244  0.38438079608481357  0.3164640175938003  1.0000
  C   C44       1.0  0.9017681861585017  0.6163414138382335  0.548445684244953  1.0000
  C   C45       1.0  0.9018745514077076  0.14191256185003032  0.5589360612895486  1.0000
  O   O2        1.0  0.9643001926277351  0.38313394743301177  0.3639380699669903  1.0000
  O   O3        1.0  0.9642951283498261  0.3691965443353078  0.7416083654626024  1.0000
  O   O4        1.0  0.964254924051586  0.5649914914539858  0.5458105435735408  1.0000
  O   O5        1.0  0.9643403407486094  0.18733901230094507  0.5597357952913109  1.0000
  O   O6        1.0  0.8393005990512435  0.5709149703641003  0.5476457799290566  1.0000
  O   O7        1.0  0.8393408030046994  0.375121583705758  0.7434435321062494  1.0000
  O   O8        1.0  0.8393458673861413  0.3890589420570423  0.36577167502534236  1.0000
  O   O9        1.0  0.8393860155032676  0.19326399760335589  0.5615694977325638  1.0000
