data_image0
_chemical_formula_structural       NC12NC2H8C12NH11C12NCOH11Zn2C4O8
_chemical_formula_sum              "N4 C43 H30 O9 Zn2"
_cell_length_a       17.80743265337812
_cell_length_b       10.299770795358612
_cell_length_c       10.299148425239203
_cell_angle_alpha    85.53227456119625
_cell_angle_beta     91.51916060690998
_cell_angle_gamma    89.45311437677636

_space_group_name_H-M_alt    "P 1"
_space_group_IT_number       1

loop_
  _space_group_symop_operation_xyz
  'x, y, z'

loop_
  _atom_site_type_symbol
  _atom_site_label
  _atom_site_symmetry_multiplicity
  _atom_site_fract_x
  _atom_site_fract_y
  _atom_site_fract_z
  _atom_site_occupancy
  N   N1        1.0  0.7078700782197365  0.4072064636143413  0.6011829649820981  1.0000
  C   C1        1.0  0.6570652206582843  0.4367910992268016  0.5324791823614414  1.0000
  C   C2        1.0  0.5938589614661121  0.47359223706574327  0.44702032532766034  1.0000
  C   C3        1.0  0.6056131242345127  0.5276605411510888  0.3203913012651127  1.0000
  C   C4        1.0  0.5443136131037177  0.5629571898011427  0.23732862934194232  1.0000
  C   C5        1.0  0.4711057761324355  0.5444492471039053  0.2802350320450826  1.0000
  C   C6        1.0  0.45837475291601393  0.49026196371073527  0.407332228347566  1.0000
  C   C7        1.0  0.5205315830481321  0.4549685751846777  0.49037838758716257  1.0000
  C   C8        1.0  0.3805981077533521  0.47063881813710995  0.45309912788147577  1.0000
  C   C9        1.0  0.3617993768380218  0.4977771956120105  0.5801482422654165  1.0000
  C   C10       1.0  0.2885615955891759  0.4793108107781534  0.6230952075754028  1.0000
  C   C11       1.0  0.23317941520009852  0.43345146217098374  0.5398310824064481  1.0000
  C   C12       1.0  0.15780473793990812  0.41443172647115434  0.5841790748885645  1.0000
  N   N2        1.0  0.0972088351249239  0.3991411381617833  0.6198318100001743  1.0000
  C   C13       1.0  0.2512865483460122  0.4061439684942405  0.41332497371275  1.0000
  C   C14       1.0  0.324471512358923  0.4246252350289603  0.370122107935978  1.0000
  H   H1        1.0  0.6620861430054031  0.5424972038532836  0.28595178362033735  1.0000
  H   H2        1.0  0.5535325384086198  0.6050908683277012  0.13954239688483172  1.0000
  H   H3        1.0  0.42448065580447786  0.5741093219361086  0.2146393444611563  1.0000
  H   H4        1.0  0.512010818497644  0.4114496403770205  0.5880402459918279  1.0000
  H   H5        1.0  0.4034731951270542  0.5349316568079485  0.6457225047185451  1.0000
  H   H6        1.0  0.2751085280581688  0.5011194177516727  0.7211077079619037  1.0000
  H   H7        1.0  0.208896013284743  0.3702566290148259  0.3481636150835883  1.0000
  H   H8        1.0  0.3373958784436112  0.40128097279712027  0.2724130441319912  1.0000
  C   C15       1.0  0.9024749695118155  0.021806592534388214  0.6105438742377125  1.0000
  C   C16       1.0  0.8806897560374417  0.031488402221171885  0.4780806826925834  1.0000
  C   C17       1.0  0.8697199288595552  0.919256681029168  0.41092874235186816  1.0000
  C   C18       1.0  0.8808272716936568  0.7962039689326029  0.4780187118071635  1.0000
  C   C19       1.0  0.9026111255714023  0.7845308953656062  0.6104823888157755  1.0000
  C   C20       1.0  0.9133133499271103  0.8978898009620367  0.6760030834198796  1.0000
  C   C21       1.0  0.8466727663324183  0.9305528720952673  0.27079038975627023  1.0000
  C   C22       1.0  0.7919767510301057  0.02288281654633373  0.22298016367442286  1.0000
  C   C23       1.0  0.7703169742313284  0.03338489942783096  0.09108242819909607  1.0000
  C   C24       1.0  0.8029432667804112  0.951985848672683  0.004894996804907903  1.0000
  C   C25       1.0  0.8574591397341255  0.8598580920076302  0.05180597243476415  1.0000
  C   C26       1.0  0.8791791019860565  0.8490987491913009  0.18367661557451131  1.0000
  N   N3        1.0  0.7807561120616735  0.96286016618705  0.8699872838274589  1.0000
  H   H9        1.0  0.9107441917754199  0.3455702878143949  0.6610340943783135  1.0000
  H   H10       1.0  0.8731976692422766  0.1265705033190656  0.426365943654494  1.0000
  H   H11       1.0  0.8714492608167644  0.7093904954447454  0.42715380931969027  1.0000
  H   H12       1.0  0.9301190842552098  0.8896526989554551  0.7781925409269774  1.0000
  H   H13       1.0  0.9109444480653665  0.4526298019456931  0.6609440556133017  1.0000
  H   H14       1.0  0.7652429383192408  0.08581987135119729  0.2879075676511531  1.0000
  H   H15       1.0  0.727966780068637  0.10475720442277425  0.05614001007433034  1.0000
  H   H16       1.0  0.883263969508711  0.7965950164942027  0.9861447495108071  1.0000
  H   H17       1.0  0.9221054322867192  0.7782253862655646  0.21720698531877614  1.0000
  H   H18       1.0  0.8047576691011942  0.9025954649837516  0.8049926247797212  1.0000
  H   H19       1.0  0.7401644676858046  0.03125645314848624  0.8341058575444715  1.0000
  C   C27       1.0  0.9025995836138685  0.4033234077845995  0.22911963656269663  1.0000
  C   C28       1.0  0.9788274454837735  0.43730318379158173  0.22879824946348126  1.0000
  C   C29       1.0  0.017357197020104742  0.454319910813616  0.11149746383994441  1.0000
  C   C30       1.0  0.9786690131486296  0.4369663157036774  0.9935335360814084  1.0000
  C   C31       1.0  0.902486507520428  0.4030140737655077  0.9919066369926317  1.0000
  C   C32       1.0  0.8648987317575074  0.38638270135102415  0.11022689110118522  1.0000
  C   C33       1.0  0.09795172802477903  0.49024311169196944  0.11224796466886477  1.0000
  C   C34       1.0  0.14842268135280867  0.4318267053095264  0.031072526135439427  1.0000
  C   C35       1.0  0.22422576869204014  0.4657697301092538  0.031926111863082696  1.0000
  C   C36       1.0  0.2513325071787864  0.5574810633342844  0.1147252528556606  1.0000
  C   C37       1.0  0.20078732755640627  0.6177452207944301  0.19432857489180422  1.0000
  C   C38       1.0  0.12495030879096802  0.5839095673333285  0.1935701956325364  1.0000
  N   N4        1.0  0.3293594308768997  0.5920716341977139  0.11192401276298836  1.0000
  C   C39       1.0  0.3725785957357397  0.627849325794525  0.22272098354554082  1.0000
  O   O1        1.0  0.3471566608837071  0.6142134229126186  0.33586474479886674  1.0000
  H   H20       1.0  0.7588426385961605  0.33842189802899214  0.4370848956312774  1.0000
  H   H21       1.0  0.008635858328331691  0.4488810936808527  0.3201513502140221  1.0000
  H   H22       1.0  0.007819994887647175  0.45175410514160563  0.9026955601398234  1.0000
  H   H23       1.0  0.8061381388711996  0.36019093492750853  0.10968716110674759  1.0000
  H   H24       1.0  0.8731868667646585  0.3899187867704552  0.6638078585282936  1.0000
  H   H25       1.0  0.1294689605713577  0.35870965027768786  0.967998373591088  1.0000
  H   H26       1.0  0.26217681632780865  0.4194456704528269  0.9687930603421302  1.0000
  H   H27       1.0  0.2193151178756847  0.6930356343872976  0.25497552443316684  1.0000
  H   H28       1.0  0.08708838302873345  0.6328980309745202  0.2548147043521882  1.0000
  H   H29       1.0  0.3582515393986092  0.5825338160438038  0.026125628435464066  1.0000
  H   H30       1.0  0.42899370194674047  0.6637203914474514  0.2095960197918585  1.0000
  Zn  Zn1       1.0  0.820224834892386  0.40487551460900706  0.6065721065117846  1.0000
  Zn  Zn2       1.0  0.984854072496927  0.40146148946116056  0.6144532630582431  1.0000
  C   C40       1.0  0.9025052882819671  0.3978989229749983  0.8477239273145083  1.0000
  C   C41       1.0  0.9025754171271313  0.4084396823743768  0.3733016556601887  1.0000
  C   C42       1.0  0.9025822938727873  0.6403619385029873  0.6053183590970301  1.0000
  C   C43       1.0  0.9024983550710511  0.1659751076879632  0.6157072905571574  1.0000
  O   O2        1.0  0.9650432433204156  0.408855480398157  0.42468131668107767  1.0000
  O   O3        1.0  0.9649872440497899  0.394890979292845  0.8023255079635945  1.0000
  O   O4        1.0  0.9650485846325446  0.5906829476127504  0.6065812561408197  1.0000
  O   O5        1.0  0.9649818465769473  0.21306352257289718  0.620425468432849  1.0000
  O   O6        1.0  0.8400970046324877  0.593273482663726  0.6005998984408951  1.0000
  O   O7        1.0  0.840035664335115  0.3974830746687008  0.7963440808878957  1.0000
  O   O8        1.0  0.8400916638790861  0.4114475311504642  0.4186983281099954  1.0000
  O   O9        1.0  0.8400302671164533  0.21565556399701502  0.6144425772364865  1.0000
