data_image0
_chemical_formula_structural       NC12NC2H8C12NH11C12ClH9Zn2C4O8
_chemical_formula_sum              "N3 C42 H28 Cl1 Zn2 O8"
_cell_length_a       17.80743265337812
_cell_length_b       10.299770795358612
_cell_length_c       10.299771906710086
_cell_angle_alpha    85.53968522419491
_cell_angle_beta     91.54320236892109
_cell_angle_gamma    89.45311437677636

_space_group_name_H-M_alt    "P 1"
_space_group_IT_number       1

loop_
  _space_group_symop_operation_xyz
  'x, y, z'

loop_
  _atom_site_type_symbol
  _atom_site_label
  _atom_site_symmetry_multiplicity
  _atom_site_fract_x
  _atom_site_fract_y
  _atom_site_fract_z
  _atom_site_occupancy
  N   N1        1.0  0.7075316591514439  0.40703184325280684  0.6012655971504302  1.0000
  C   C1        1.0  0.6567101799235976  0.4366079022758631  0.5325658730609384  1.0000
  C   C2        1.0  0.5934832454707939  0.473398371917223  0.4471120643290316  1.0000
  C   C3        1.0  0.6052067725840163  0.5274508683555283  0.320490520609209  1.0000
  C   C4        1.0  0.5438871659072434  0.5627371479341183  0.23743275543832798  1.0000
  C   C5        1.0  0.4706897093820547  0.5442345614281228  0.28033662353615396  1.0000
  C   C6        1.0  0.45798943508681317  0.49006314412595176  0.40742631183962374  1.0000
  C   C7        1.0  0.5201663567699573  0.454780122610009  0.4904675653023831  1.0000
  C   C8        1.0  0.38022386241691575  0.4704457118317209  0.45319050779039727  1.0000
  C   C9        1.0  0.3614558687901949  0.49759994939534735  0.5802321170156624  1.0000
  C   C10       1.0  0.2882284778008485  0.47913892581633744  0.6231765453241838  1.0000
  C   C11       1.0  0.2328261531277394  0.4332691829894266  0.5399173388079437  1.0000
  C   C12       1.0  0.1574622050808204  0.41425498344070677  0.5842627115258681  1.0000
  N   N2        1.0  0.09687492781520872  0.3989688458159777  0.6199133405272894  1.0000
  C   C13       1.0  0.250902680355677  0.4059458970096994  0.4134187031960046  1.0000
  C   C14       1.0  0.3240771921984913  0.4244217703444131  0.3702183895374782  1.0000
  H   H1        1.0  0.6616714593220663  0.5422832318242488  0.28605303740635724  1.0000
  H   H2        1.0  0.5530824335608219  0.6048586193836696  0.139652299496815  1.0000
  H   H3        1.0  0.42404871933638527  0.5738864476678269  0.2147448108792287  1.0000
  H   H4        1.0  0.5116692197806881  0.41127337935320907  0.5881236545385857  1.0000
  H   H5        1.0  0.40314555161350724  0.5347625965091936  0.6458025058074341  1.0000
  H   H6        1.0  0.2747991226626931  0.5009597681128644  0.7211832558287856  1.0000
  H   H7        1.0  0.2084963806549132  0.37005042315694103  0.3482611938367759  1.0000
  H   H8        1.0  0.33697791930144827  0.401065310668862  0.2725150976905135  1.0000
  C   C15       1.0  0.9021388151501354  0.021633140735516143  0.6106259534300582  1.0000
  C   C16       1.0  0.8803215545468352  0.03129841447097914  0.4781705868688033  1.0000
  C   C17       1.0  0.8693354811433771  0.9190583104127341  0.4110226133874406  1.0000
  C   C18       1.0  0.8804590552102893  0.7960139734463173  0.4781086196441826  1.0000
  C   C19       1.0  0.9022749563344107  0.7843574358912435  0.610564471640243  1.0000
  C   C20       1.0  0.9129930322646038  0.8977245207184769  0.6760812957473981  1.0000
  C   C21       1.0  0.8462544146176969  0.9303370074040672  0.2708925391696799  1.0000
  C   C22       1.0  0.7915468324758618  0.02266098349847634  0.22308513737617797  1.0000
  C   C23       1.0  0.769855145350264  0.033146601016971866  0.09119519348159999  1.0000
  C   C24       1.0  0.8024605863730208  0.9517367911131625  0.005012853428281172  1.0000
  C   C25       1.0  0.8569878086084982  0.8596148905474561  0.05192105789111712  1.0000
  C   C26       1.0  0.8787396746327377  0.8488720097120751  0.1837839110505386  1.0000
  N   N3        1.0  0.7802407931165843  0.9625942675160587  0.8701131098396573  1.0000
  H   H9        1.0  0.9104202526304764  0.3454031389273935  0.6611131909673127  1.0000
  H   H10       1.0  0.87281695628422  0.1263740597950287  0.4264589027699339  1.0000
  H   H11       1.0  0.8710687384688862  0.7091941502733764  0.4272467218936258  1.0000
  H   H12       1.0  0.9298234895265347  0.8895001754624691  0.7782647166276586  1.0000
  H   H13       1.0  0.9106204871371346  0.45246264181876417  0.6610231575211512  1.0000
  H   H14       1.0  0.7648287278032969  0.0856061434711155  0.2880087059033529  1.0000
  H   H15       1.0  0.7274964974868459  0.10451454399920479  0.0562548395065432  1.0000
  H   H16       1.0  0.8827767528102543  0.7963436182604702  0.9862637137655228  1.0000
  H   H17       1.0  0.9216741170139686  0.7780028325269617  0.2173123000588757  1.0000
  H   H18       1.0  0.8042266258466289  0.9023214527492447  0.8051222902144262  1.0000
  H   H19       1.0  0.7396404678635543  0.0309860752443476  0.8342338031763075  1.0000
  C   C27       1.0  0.9021711503966219  0.4031023411536132  0.2292242475880295  1.0000
  C   C28       1.0  0.9703253507953666  0.4705739325745384  0.22615468330250144  1.0000
  C   C29       1.0  0.004896254146904866  0.5046534184146441  0.10747073658258799  1.0000
  C   C30       1.0  0.9703977823878599  0.4703572701963765  0.9908883953289007  1.0000
  C   C31       1.0  0.9022426165196715  0.4028882586618585  0.9919662571842802  1.0000
  C   C32       1.0  0.8685113120368707  0.36963778311542383  0.1116204689916116  1.0000
  C   C33       1.0  0.07699821386764394  0.5760313298660338  0.10527716499285611  1.0000
  C   C34       1.0  0.08889008856186287  0.6787902819376928  0.18563965452931175  1.0000
  C   C35       1.0  0.15678797562632885  0.7458715623327754  0.18338927320880427  1.0000
  C   C36       1.0  0.21356448155064123  0.7112249274461229  0.10112351477009618  1.0000
  C   C37       1.0  0.2023899657848489  0.6093105870759115  0.02092410193711869  1.0000
  C   C38       1.0  0.13455938090483022  0.54202759089233  0.022802093330359652  1.0000
  Cl  Cl1       1.0  0.298707622397574  0.7955120014181554  0.09853419747227887  1.0000
  H   H20       1.0  0.8761811770608086  0.37745000198441225  0.5578418896610193  1.0000
  H   H21       1.0  0.9972086573642446  0.49521673740910543  0.3164208266407833  1.0000
  H   H22       1.0  0.9962920110489639  0.4979621389941482  0.89901653318082  1.0000
  H   H23       1.0  0.8159330272875629  0.317587685515901  0.11322027209099073  1.0000
  H   H24       1.0  0.8762866723468428  0.3771332453294589  0.6649277856420222  1.0000
  H   H25       1.0  0.04534299666631858  0.7083452642597454  0.24892533924183047  1.0000
  H   H26       1.0  0.16510902253365267  0.8249732695573997  0.24541436699029862  1.0000
  H   H27       1.0  0.24628028171282468  0.5818956458542501  0.9573110896441763  1.0000
  H   H28       1.0  0.12748517996143804  0.46235978409651013  0.9610563007532109  1.0000
  Zn  Zn1       1.0  0.8198877196316748  0.40470156699724513  0.606654420327938  1.0000
  Zn  Zn2       1.0  0.9845188639428035  0.4012885256881502  0.6145351113116835  1.0000
  C   C39       1.0  0.9022265154437958  0.3977550793847626  0.8477919955950763  1.0000
  C   C40       1.0  0.9021818662020974  0.40823661460648086  0.3733977494366081  1.0000
  C   C41       1.0  0.9022448752900397  0.6401878343805301  0.6054007469756699  1.0000
  C   C42       1.0  0.9021634499067257  0.1658023004606124  0.6157890647315662  1.0000
  O   O1        1.0  0.9646621227966257  0.4086588265748714  0.4247743753123052  1.0000
  O   O2        1.0  0.9646974878661249  0.3947414684221848  0.8023962580601083  1.0000
  O   O3        1.0  0.9647114715854247  0.5905090011431762  0.6066635694164784  1.0000
  O   O4        1.0  0.9646480828924016  0.21289130433603343  0.6205069638908429  1.0000
  O   O5        1.0  0.839758444501547  0.5930987895154811  0.6006825650526544  1.0000
  O   O6        1.0  0.8397444610508447  0.39733281711070934  0.7964151843246081  1.0000
  O   O7        1.0  0.8397090958769144  0.4112501304449192  0.4187917401736636  1.0000
  O   O8        1.0  0.8396950559770842  0.2154825988900475  0.6145244261211693  1.0000
