data_image0
_chemical_formula_structural       NC9NC5H8C12OCH12C13NH9Zn2C4O8
_chemical_formula_sum              "N3 C44 H29 O9 Zn2"
_cell_length_a       17.807436237873137
_cell_length_b       10.29979075500242
_cell_length_c       10.298528502251457
_cell_angle_alpha    85.53676387981383
_cell_angle_beta     89.38885601427037
_cell_angle_gamma    88.37243818242351

_space_group_name_H-M_alt    "P 1"
_space_group_IT_number       1

loop_
  _space_group_symop_operation_xyz
  'x, y, z'

loop_
  _atom_site_type_symbol
  _atom_site_label
  _atom_site_symmetry_multiplicity
  _atom_site_fract_x
  _atom_site_fract_y
  _atom_site_fract_z
  _atom_site_occupancy
  N   N1        1.0  0.707206519160838  0.38824638959675317  0.5568284772048033  1.0000
  C   C1        1.0  0.6466255405769888  0.3530602433370682  0.5458061216924357  1.0000
  C   C2        1.0  0.5712694616303274  0.30929255229688635  0.532095508225088  1.0000
  C   C3        1.0  0.5531937029360867  0.23791257904084406  0.42708529371878545  1.0000
  C   C4        1.0  0.480026860536327  0.1953060549761958  0.4136905421150916  1.0000
  C   C5        1.0  0.4238871261618683  0.2237019840279495  0.5052735810744289  1.0000
  C   C6        1.0  0.346129611075119  0.1785371115008909  0.49112050412303243  1.0000
  C   C7        1.0  0.2839380286829215  0.26028485079976327  0.5170558290114828  1.0000
  C   C8        1.0  0.21062891701442424  0.2174752832792377  0.5036747773996431  1.0000
  C   C9        1.0  0.1473867575389821  0.30191426214195416  0.529973824590446  1.0000
  N   N2        1.0  0.0965530506697626  0.3697973589538306  0.5511175324445179  1.0000
  C   C10       1.0  0.1989278893289918  0.09266000407712838  0.4643330696745043  1.0000
  C   C11       1.0  0.2602621045935818  0.010898415254356086  0.4383893551862581  1.0000
  C   C12       1.0  0.3334518599756681  0.053313508456021674  0.4515678758507462  1.0000
  C   C13       1.0  0.442654195462425  0.2955762516980964  0.6105030114893046  1.0000
  C   C14       1.0  0.515873947390154  0.3379924330655637  0.6237421085284014  1.0000
  H   H1        1.0  0.5955946577408373  0.21545141467659623  0.35536528342628926  1.0000
  H   H2        1.0  0.4671261916779333  0.14165150057609122  0.33076403359246376  1.0000
  H   H3        1.0  0.292417394964344  0.3577403608008649  0.5459283166469786  1.0000
  H   H4        1.0  0.1424691994582912  0.05862740141240441  0.4537397109842589  1.0000
  H   H5        1.0  0.2510842825941738  0.9142634117298386  0.4083162337908075  1.0000
  H   H6        1.0  0.3801048898682722  0.9875746555425423  0.43252260059645553  1.0000
  H   H7        1.0  0.400970179531095  0.31749792908119034  0.6835177309033833  1.0000
  H   H8        1.0  0.5293027792176773  0.3928679280803189  0.7056267542283243  1.0000
  C   C15       1.0  0.9019508857323076  0.9976507496242509  0.5540109393859067  1.0000
  C   C16       1.0  0.8802002946970047  0.9874695436849201  0.6857847580024432  1.0000
  C   C17       1.0  0.869119488110099  0.8651772003697106  0.7525232730021003  1.0000
  C   C18       1.0  0.8800653259036274  0.7521936688023526  0.6857209442604122  1.0000
  C   C19       1.0  0.9018158836154035  0.7603826618769001  0.5539461934993251  1.0000
  C   C20       1.0  0.9126386214172849  0.8835577801360304  0.48882968629225965  1.0000
  C   C21       1.0  0.8461131718580542  0.8554599473433603  0.8919337632480573  1.0000
  C   C22       1.0  0.7912958643005743  0.7671755227725303  0.9378091056097038  1.0000
  C   C23       1.0  0.7697105870013602  0.7583004171126757  0.06888138844600378  1.0000
  C   C24       1.0  0.8024565598196868  0.8370636392302162  0.1557603505384415  1.0000
  C   C25       1.0  0.8574738182491051  0.9259470223211359  0.11175401905737314  1.0000
  C   C26       1.0  0.8788262097096383  0.934472158997003  0.9801583855059881  1.0000
  O   O1        1.0  0.892197763082196  0.006972352970694429  0.1951237845014111  1.0000
  C   C27       1.0  0.8760875085372798  0.008665597268276315  0.33071339905302255  1.0000
  H   H9        1.0  0.9102716701323761  0.3289801381600981  0.5038202704623067  1.0000
  H   H10       1.0  0.8708301727257108  0.07492207998221567  0.7363573714802778  1.0000
  H   H11       1.0  0.8725745131039812  0.6576303586658363  0.7372052247465952  1.0000
  H   H12       1.0  0.929418861626206  0.8906437264942528  0.38717174416879585  1.0000
  H   H13       1.0  0.9100664578676774  0.4360533548727215  0.5037189145303649  1.0000
  H   H14       1.0  0.7644267179417509  0.706243081266599  0.8719852738810905  1.0000
  H   H15       1.0  0.7272800064047582  0.6903290255890517  0.10318683720524446  1.0000
  H   H16       1.0  0.7846498873125952  0.8281223300219773  0.2567009251167557  1.0000
  H   H17       1.0  0.9218629135730368  0.0019880849351419094  0.9473570961285724  1.0000
  H   H18       1.0  0.8890636601317542  0.9115037903899631  0.38115208217048435  1.0000
  H   H19       1.0  0.9115379458827528  0.08160988838273653  0.37241309602016925  1.0000
  H   H20       1.0  0.8161136476196361  0.03641298946793148  0.34603041212200825  1.0000
  C   C28       1.0  0.9018940301120727  0.3791426895332215  0.1725615476852711  1.0000
  C   C29       1.0  0.8237877105242132  0.4027055911988673  0.17121537334114767  1.0000
  C   C30       1.0  0.7842183836448345  0.414504503701298  0.05338666352748489  1.0000
  C   C31       1.0  0.8237653310237413  0.40244179327483476  0.93595602113865  1.0000
  C   C32       1.0  0.9018727177323909  0.3788907206425869  0.9353956018493812  1.0000
  C   C33       1.0  0.9404369216927443  0.3673892152682878  0.054172523688553964  1.0000
  C   C34       1.0  0.7016442950066205  0.4394095070324304  0.05297115870739688  1.0000
  C   C35       1.0  0.668458797511526  0.5289126916298348  0.1343662827789116  1.0000
  C   C36       1.0  0.590731900908027  0.5523087251903507  0.13385569235726802  1.0000
  C   C37       1.0  0.5451562441078553  0.48661002307389856  0.05218107121485782  1.0000
  C   C38       1.0  0.5776002158586032  0.39737830876160585  0.9709008103880281  1.0000
  C   C39       1.0  0.6553191097965796  0.3738882901460634  0.9711749162081782  1.0000
  C   C40       1.0  0.4651363138727617  0.5107469589653522  0.05177607782533977  1.0000
  N   N3        1.0  0.4008056858040217  0.530151550818498  0.05145052546564588  1.0000
  H   H21       1.0  0.0494222528379038  0.3338126437511717  0.38249360442865643  1.0000
  H   H22       1.0  0.7934460489760865  0.4101511180715647  0.26217552032060065  1.0000
  H   H23       1.0  0.7937056711516347  0.4132133343169264  0.8446921522890976  1.0000
  H   H24       1.0  0.0006349711509718858  0.3492335443015817  0.05447516680834963  1.0000
  H   H25       1.0  0.049539467950032945  0.3351968869036004  0.7269475426771428  1.0000
  H   H26       1.0  0.7027174883903795  0.5820574255751936  0.19716201381084408  1.0000
  H   H27       1.0  0.5662282353171716  0.6218598616654878  0.1969161751752182  1.0000
  H   H28       1.0  0.5428220162905465  0.34570834724001975  0.9075408439922317  1.0000
  H   H29       1.0  0.6790853464632601  0.30324191300219594  0.9086721287982811  1.0000
  Zn  Zn1       1.0  0.8195635170169631  0.3829189300886424  0.5551879339443144  1.0000
  Zn  Zn2       1.0  0.9841960361921684  0.3751142287045035  0.5527687545622888  1.0000
  C   C41       1.0  0.9018759838091515  0.37376474728191145  0.7912041193336434  1.0000
  C   C42       1.0  0.9018853668883249  0.38426996487041887  0.3167526700991372  1.0000
  C   C43       1.0  0.901837660891134  0.6162120122441925  0.5487827020654139  1.0000
  C   C44       1.0  0.9019236339030547  0.14182114223750752  0.5591741575725839  1.0000
  O   O2        1.0  0.9643596434717028  0.38302321603923795  0.3642264624961795  1.0000
  O   O3        1.0  0.9643539801264521  0.36908692874674753  0.7418938519515361  1.0000
  O   O4        1.0  0.9643221916254475  0.5648662008489684  0.5461368545972973  1.0000
  O   O5        1.0  0.964391375795857  0.1872439559226684  0.5599833632881761  1.0000
  O   O6        1.0  0.8393681212322753  0.570789205535255  0.5479733260371427  1.0000
  O   O7        1.0  0.8393999094555685  0.3750114937684417  0.7437302540048789  1.0000
  O   O8        1.0  0.8394055729024288  0.38894773631809465  0.3660613029548969  1.0000
  O   O9        1.0  0.8394373052224344  0.19316846688065148  0.5618183011278512  1.0000
