data_image0
_chemical_formula_structural       NC10NC3NH7C13OH12C12NCOH11Zn2C4O8
_chemical_formula_sum              "N4 C43 H30 O10 Zn2"
_cell_length_a       19.210446455230148
_cell_length_b       10.299150109392551
_cell_length_c       10.299148425239203
_cell_angle_alpha    85.51660845067315
_cell_angle_beta     89.97590399293749
_cell_angle_gamma    89.92850971851941

_space_group_name_H-M_alt    "P 1"
_space_group_IT_number       1

loop_
  _space_group_symop_operation_xyz
  'x, y, z'

loop_
  _atom_site_type_symbol
  _atom_site_label
  _atom_site_symmetry_multiplicity
  _atom_site_fract_x
  _atom_site_fract_y
  _atom_site_fract_z
  _atom_site_occupancy
  N   N1        1.0  0.6554172282914541  0.4208981212509586  0.5667738807512757  1.0000
  C   C1        1.0  0.595188088389863  0.4231056796287489  0.5670043475509821  1.0000
  C   C2        1.0  0.5203829166633558  0.42584264786463133  0.5672898665023489  1.0000
  C   C3        1.0  0.4847405280796442  0.5420741375284619  0.5823659698532433  1.0000
  C   C4        1.0  0.412075015713286  0.5422257073315522  0.5823133211136047  1.0000
  C   C5        1.0  0.375215970372585  0.4265516231672022  0.5673761316317818  1.0000
  C   C6        1.0  0.2978942078319799  0.425195124722757  0.56722595778947  1.0000
  C   C7        1.0  0.2601207404233258  0.5287998833952443  0.5038272411721156  1.0000
  C   C8        1.0  0.1873427587033791  0.5273976088353156  0.5037186023021685  1.0000
  C   C9        1.0  0.1513367730209814  0.42264812419010056  0.5669575985253819  1.0000
  C   C10       1.0  0.0764076041304872  0.4213460173383847  0.5668211717197382  1.0000
  N   N2        1.0  0.0161700341558819  0.4202990792028425  0.5667115194601828  1.0000
  C   C11       1.0  0.1883865534929105  0.3191690770303133  0.6303312653245017  1.0000
  C   C12       1.0  0.2611664489035305  0.32029704398849534  0.6304902399973196  1.0000
  C   C13       1.0  0.4134677187717063  0.31214038234363994  0.5525876374253182  1.0000
  N   N3        1.0  0.4842370168482809  0.31458544363862284  0.5527524393019971  1.0000
  H   H1        1.0  0.5128170434386582  0.6315083015640677  0.5943869633449634  1.0000
  H   H2        1.0  0.3847814030526407  0.6322411672129435  0.5957289472737597  1.0000
  H   H3        1.0  0.2868327635557891  0.6100806906086653  0.4528075568157368  1.0000
  H   H4        1.0  0.1591811523205088  0.6078500783889629  0.4540296614395851  1.0000
  H   H5        1.0  0.1610350883040006  0.23775319153278907  0.6799210190950573  1.0000
  H   H6        1.0  0.2886829889334444  0.23996314214421766  0.6816169653477213  1.0000
  H   H7        1.0  0.387227365720749  0.22126196590507363  0.5391260336254877  1.0000
  C   C14       1.0  0.8358625439194705  0.0391987973317498  0.5668868255434485  1.0000
  C   C15       1.0  0.8345615566471594  0.027339241308442563  0.703707082947783  1.0000
  C   C16       1.0  0.8338413966494996  0.9041918061001898  0.7728141557007016  1.0000
  C   C17       1.0  0.834427397847121  0.7920842721443246  0.7033436864407696  1.0000
  C   C18       1.0  0.8357313684499987  0.8019883806919375  0.5666098333671898  1.0000
  C   C19       1.0  0.8364432356845042  0.9260057318214856  0.49918046463651367  1.0000
  C   C20       1.0  0.832459042739851  0.8926275388715254  0.9174643472922628  1.0000
  C   C21       1.0  0.7896465753560533  0.7997897790381515  0.985497784439181  1.0000
  C   C22       1.0  0.7883227197918291  0.7889892627278705  0.1216134741489362  1.0000
  C   C23       1.0  0.830243962216409  0.8698661150473438  0.19215631701759472  1.0000
  C   C24       1.0  0.8723903711102079  0.9636583451856977  0.12476561030603217  1.0000
  C   C25       1.0  0.8737303850124275  0.9746346318190204  0.9886496290701592  1.0000
  C   C26       1.0  0.8273577677719924  0.8606170167448753  0.33825302116798395  1.0000
  O   O1        1.0  0.7753248862577349  0.9438618999498851  0.37850540892746654  1.0000
  H   H8        1.0  0.8378659793079927  0.2688778519562689  0.3086322563056607  1.0000
  H   H9        1.0  0.8331403412725743  0.11409135753883537  0.7567195107735143  1.0000
  H   H10       1.0  0.8348173014207204  0.6969374802540383  0.7561807266277067  1.0000
  H   H11       1.0  0.837447057523613  0.9343612789371443  0.3937135527003153  1.0000
  H   H12       1.0  0.8361860691414162  0.47832245799268513  0.5140172060534955  1.0000
  H   H13       1.0  0.7563640452472921  0.7368597959161729  0.9333913005826604  1.0000
  H   H14       1.0  0.7544541912955461  0.7176932637477775  0.1719983160606694  1.0000
  H   H15       1.0  0.9043905967727841  0.028143092703970085  0.17761857232355538  1.0000
  H   H16       1.0  0.9076221256450654  0.046375663162357306  0.939071481262687  1.0000
  H   H17       1.0  0.8785549790884021  0.8883431565409551  0.3784169085866852  1.0000
  H   H18       1.0  0.816040301367491  0.758597535437165  0.3760701308802824  1.0000
  H   H19       1.0  0.7755694436008097  0.9341408690507631  0.47513861827667325  1.0000
  C   C27       1.0  0.8358492858196657  0.42074937804670776  0.18535203950699608  1.0000
  C   C28       1.0  0.9064683610542685  0.45619388931806704  0.18135748553588416  1.0000
  C   C29       1.0  0.9421631770010966  0.47395096102084033  0.06220012291006882  1.0000
  C   C30       1.0  0.9063216758763687  0.4558539550220613  0.9461004794477343  1.0000
  C   C31       1.0  0.8357446171382547  0.4204378499513981  0.9481445596595988  1.0000
  C   C32       1.0  0.8009224787776205  0.4030842302884561  0.06827600956181468  1.0000
  C   C33       1.0  0.016827626302124532  0.511422803425146  0.05906704246582439  1.0000
  C   C34       1.0  0.06361226644781892  0.4539695532644399  0.9754817522666328  1.0000
  C   C35       1.0  0.13383777024439647  0.4893691637413349  0.9726825977714206  1.0000
  C   C36       1.0  0.15892314992161505  0.5816079074855067  0.054153732341970295  1.0000
  C   C37       1.0  0.11206911040853851  0.6409076371274234  0.1361699672975285  1.0000
  C   C38       1.0  0.04181213050380239  0.6056147560632874  0.13906592973198717  1.0000
  N   N4        1.0  0.23120897791627715  0.6176977672639208  0.04759268696863517  1.0000
  C   C39       1.0  0.2712425392352198  0.6543072826295233  0.15630254477818317  1.0000
  O   O2        1.0  0.247691907774223  0.6401827021821127  0.27067193577944715  1.0000
  H   H20       1.0  0.7026701412383467  0.35308547932279666  0.40024469174806154  1.0000
  H   H21       1.0  0.934084070957485  0.4683444338673952  0.2712746866665334  1.0000
  H   H22       1.0  0.9333271460671025  0.4712020345137371  0.8538573232834978  1.0000
  H   H23       1.0  0.7464854439225759  0.37576336618594675  0.0705677564368099  1.0000
  H   H24       1.0  0.8086008327449266  0.40677956102601165  0.6214576427909981  1.0000
  H   H25       1.0  0.046074964378530536  0.38048298004606984  0.9133386394303784  1.0000
  H   H26       1.0  0.1690177467120153  0.4437691409764901  0.9077381435977068  1.0000
  H   H27       1.0  0.12921102430660292  0.7165595789076331  0.19590575363440865  1.0000
  H   H28       1.0  0.006713832838553868  0.6538811111601148  0.20211682729679925  1.0000
  H   H29       1.0  0.25798279098762955  0.6087132738349892  0.9604082317293638  1.0000
  H   H30       1.0  0.32350304798721585  0.6912632589144445  0.14045618609030708  1.0000
  Zn  Zn1       1.0  0.7595226941015968  0.42072178325891696  0.5667633854931384  1.0000
  Zn  Zn2       1.0  0.9120645527663638  0.42046482944608043  0.5667326551021505  1.0000
  C   C40       1.0  0.8357637446778481  0.4153226386842228  0.8039623491563861  1.0000
  C   C41       1.0  0.835825167643161  0.42586560991510414  0.32953381798379544  1.0000
  C   C42       1.0  0.8357532899857056  0.6578070709745347  0.5614866300681545  1.0000
  C   C43       1.0  0.8358355705422736  0.18337961725522112  0.5720096068927969  1.0000
  O   O3        1.0  0.8937059147219155  0.4274794852342787  0.3779108799919322  1.0000
  O   O4        1.0  0.8936587389670974  0.4135127617174401  0.7555615899755086  1.0000
  O   O5        1.0  0.893649516116423  0.609322008189034  0.5597607309225976  1.0000
  O   O6        1.0  0.8937150855321503  0.23167024818111193  0.5737116416703008  1.0000
  O   O7        1.0  0.7778721092807611  0.609516364612988  0.5597843989286426  1.0000
  O   O8        1.0  0.7778813318694162  0.4137086786000672  0.7555851881644393  1.0000
  O   O9        1.0  0.7779285078925637  0.4276753574949297  0.37793291668457063  1.0000
  O   O10       1.0  0.7779376786881891  0.23186611111243827  0.5737337757411369  1.0000
