data_image0
_chemical_formula_structural       NC10NC5H10C13OH12C16H10Zn2C4O8
_chemical_formula_sum              "N2 C48 H32 O9 Zn2"
_cell_length_a       19.4436361288709
_cell_length_b       10.299150109392551
_cell_length_c       10.299151387937775
_cell_angle_alpha    85.56522917257966
_cell_angle_beta     89.69351296060239
_cell_angle_gamma    89.39953782186457

_space_group_name_H-M_alt    "P 1"
_space_group_IT_number       1

loop_
  _space_group_symop_operation_xyz
  'x, y, z'

loop_
  _atom_site_type_symbol
  _atom_site_label
  _atom_site_symmetry_multiplicity
  _atom_site_fract_x
  _atom_site_fract_y
  _atom_site_fract_z
  _atom_site_occupancy
  N   N1        1.0  0.6475540829256123  0.40879838816038405  0.5616123567877347  1.0000
  C   C1        1.0  0.5887157865205367  0.4187047700916766  0.5759931493952435  1.0000
  C   C2        1.0  0.5153835556588722  0.43105937011431483  0.5939814983616123  1.0000
  C   C3        1.0  0.4732096060104662  0.3990355792396194  0.4993176465710638  1.0000
  C   C4        1.0  0.397302873378289  0.4094760614130326  0.5046422902374368  1.0000
  C   C5        1.0  0.35756287047606594  0.38475375343439544  0.6117238496948232  1.0000
  C   C6        1.0  0.2814422516959456  0.38866734774962963  0.598763058929761  1.0000
  C   C7        1.0  0.2408648545773371  0.44635732915275184  0.6925153009676799  1.0000
  C   C8        1.0  0.16920132056243384  0.449992657259094  0.6819701013740482  1.0000
  C   C9        1.0  0.1371204834566685  0.3955420350345822  0.5779593206571989  1.0000
  C   C10       1.0  0.0633277014381003  0.3992385712919191  0.5672588173813478  1.0000
  N   N2        1.0  0.004003309763884001  0.402210392510189  0.5586563221613163  1.0000
  C   C11       1.0  0.17697309469032474  0.33714500598228003  0.48459055223282754  1.0000
  C   C12       1.0  0.2486530791742909  0.33345538489636395  0.49488399037941555  1.0000
  C   C13       1.0  0.3856964794935686  0.34432349948312124  0.7428330379807717  1.0000
  C   C14       1.0  0.4443502887686601  0.38746090304330427  0.7900615651472069  1.0000
  C   C15       1.0  0.4885441884195313  0.4853076692571827  0.7156609344391387  1.0000
  H   H1        1.0  0.4953180283547327  0.3698929925672114  0.40901977926608946  1.0000
  H   H2        1.0  0.3726049861034793  0.43194855307554714  0.41147568006883084  1.0000
  H   H3        1.0  0.2647238774924995  0.48967238573473115  0.7733498791557152  1.0000
  H   H4        1.0  0.1388451040151289  0.49532956227097835  0.7548764748051646  1.0000
  H   H5        1.0  0.1526421390740172  0.2940257081700681  0.40409039462179486  1.0000
  H   H6        1.0  0.2783440373411739  0.28587509359239793  0.422674702672168  1.0000
  H   H7        1.0  0.3547391304719296  0.2801179018006288  0.8071018592630439  1.0000
  H   H8        1.0  0.4595014666978579  0.35341616407065124  0.888008153807542  1.0000
  H   H9        1.0  0.458420576025542  0.5760225541283659  0.6903786127921268  1.0000
  H   H10       1.0  0.5318217925278186  0.5109118723349559  0.7787379157591501  1.0000
  C   C16       1.0  0.8258467950497  0.024103553301861202  0.5602779251815801  1.0000
  C   C17       1.0  0.8245655664947371  0.012381967356478452  0.6970994878982957  1.0000
  C   C18       1.0  0.8238561385260422  0.8893052665157909  0.7662077256007043  1.0000
  C   C19       1.0  0.8244329968726137  0.7771289163020909  0.6967371917411298  1.0000
  C   C20       1.0  0.8257171758455676  0.7868950787359367  0.5600020036598241  1.0000
  C   C21       1.0  0.8264184619543007  0.9108432601347778  0.4925714245433408  1.0000
  C   C22       1.0  0.8224947565619826  0.8778869798797594  0.9108593526618389  1.0000
  C   C23       1.0  0.780195124536842  0.7858178236363627  0.9792316527616403  1.0000
  C   C24       1.0  0.7788912786677502  0.7751550577765123  0.11534887822836837  1.0000
  C   C25       1.0  0.8203146106281517  0.8553959676226472  0.18555075953488265  1.0000
  C   C26       1.0  0.8619561497630743  0.948431198207522  0.11782648949881569  1.0000
  C   C27       1.0  0.8632759612016153  0.9592694658948149  0.9817088429178731  1.0000
  C   C28       1.0  0.8174673728797787  0.8463190457833266  0.3316608650754048  1.0000
  O   O1        1.0  0.7660564602094061  0.9304619733222323  0.3723279274295137  1.0000
  H   H11       1.0  0.8278183298829537  0.2535296907118887  0.302024519552307  1.0000
  H   H12       1.0  0.8231629477162777  0.0992027670465625  0.7501197779018938  1.0000
  H   H13       1.0  0.8248198860197927  0.6820205919658402  0.7495675786540081  1.0000
  H   H14       1.0  0.8274070414144725  0.919092437984946  0.3871034986749018  1.0000
  H   H15       1.0  0.8261648229007877  0.4631768749313889  0.5074092386601838  1.0000
  H   H16       1.0  0.7473080212700899  0.7233960510823464  0.9273956082826211  1.0000
  H   H17       1.0  0.7454283428193264  0.7044641713856283  0.16600202060976255  1.0000
  H   H18       1.0  0.89357626885111  0.01242965785303296  0.1704192478109403  1.0000
  H   H19       1.0  0.8967618572706298  0.030405685431581952  0.931862154623234  1.0000
  H   H20       1.0  0.8680550757101908  0.8732294122347939  0.3714114147029881  1.0000
  H   H21       1.0  0.806286088802071  0.7445196131395907  0.369566229711635  1.0000
  H   H22       1.0  0.7663010938297442  0.9208190736238804  0.4689527268178606  1.0000
  C   C29       1.0  0.8258218751383093  0.4053298406226735  0.17876870534271005  1.0000
  C   C30       1.0  0.7594508471473038  0.46051384937509  0.17439104953984175  1.0000
  C   C31       1.0  0.7257583123943762  0.4886679958171305  0.05501580970223574  1.0000
  C   C32       1.0  0.7593311346142108  0.4608936860649169  0.939079570942456  1.0000
  C   C33       1.0  0.8257420854020404  0.40566879191613836  0.9415112210927874  1.0000
  C   C34       1.0  0.8585792885557224  0.37822877891013285  0.0617856463029709  1.0000
  C   C35       1.0  0.6555458028702768  0.5470463048183358  0.051430187497034874  1.0000
  C   C36       1.0  0.6380589709522012  0.6471897329291503  0.9562341728889745  1.0000
  C   C37       1.0  0.5719636280079098  0.7020963913840446  0.9529877653259944  1.0000
  C   C38       1.0  0.5224880446992941  0.657684162962028  0.04464252760906806  1.0000
  C   C39       1.0  0.5393514207157971  0.5581106408229981  0.13968141682917823  1.0000
  C   C40       1.0  0.6054270462172632  0.5031167470152103  0.14317758467122577  1.0000
  C   C41       1.0  0.45445235855382266  0.7142565371509293  0.041172253535395775  1.0000
  C   C42       1.0  0.3974734314438525  0.7616350466322637  0.038265862870671796  1.0000
  C   C43       1.0  0.3307517002830069  0.8171148554118237  0.03486250814507641  1.0000
  C   C44       1.0  0.2737819810391406  0.8644859461828447  0.03195669358956832  1.0000
  H   H23       1.0  0.85133640076006  0.3840414073645768  0.5079331272313936  1.0000
  H   H24       1.0  0.7341753971169189  0.483377148706317  0.2638963769361897  1.0000
  H   H25       1.0  0.7332296786891832  0.4807566408469248  0.846916094750787  1.0000
  H   H26       1.0  0.9097721364713579  0.33566039599847675  0.06444677865884274  1.0000
  H   H27       1.0  0.9509166022363631  0.3006794933300103  0.7388684195705304  1.0000
  H   H28       1.0  0.675758514707658  0.68419795104973  0.8853614309513023  1.0000
  H   H29       1.0  0.5595120315167881  0.7793818371502974  0.8792106074505641  1.0000
  H   H30       1.0  0.5013848112568303  0.5227486856159536  0.2108871857386001  1.0000
  H   H31       1.0  0.6170659632823114  0.4250846244248492  0.2165687413491728  1.0000
  H   H32       1.0  0.22375786389960647  0.9060816126390068  0.02940515589499948  1.0000
  Zn  Zn1       1.0  0.7504176311351752  0.40689376660354637  0.5607668224895017  1.0000
  Zn  Zn2       1.0  0.9011397537549601  0.4041044102449125  0.5595125415424287  1.0000
  C   C45       1.0  0.8257565190406372  0.4004306788555967  0.7973384211999504  1.0000
  C   C46       1.0  0.8258025114385867  0.4105691063463217  0.3229410560096724  1.0000
  C   C47       1.0  0.8257386771530061  0.6427090475667099  0.5548789663979383  1.0000
  C   C48       1.0  0.8258203021532118  0.16828917818484967  0.5654005810432319  1.0000
  O   O2        1.0  0.8829942738061851  0.41126323936841747  0.37085062289130377  1.0000
  O   O3        1.0  0.8829593604745335  0.39761850892809547  0.7484765106077047  1.0000
  O   O4        1.0  0.8829441817234799  0.5932613705603706  0.552688791342379  1.0000
  O   O5        1.0  0.8830094011345943  0.21562038793568084  0.5666382452060055  1.0000
  O   O6        1.0  0.7685479323214782  0.5953777898660595  0.5536411192471176  1.0000
  O   O7        1.0  0.7685631108114753  0.3997364886374244  0.7494287687020889  1.0000
  O   O8        1.0  0.7685980243598798  0.41338117312318867  0.37180131959144247  1.0000
  O   O9        1.0  0.7686131516768706  0.21773831244419495  0.5675890392779612  1.0000
