data_image0
_chemical_formula_structural       NC10NC3NCH9C12SCH12C13NH13Zn2C4O8
_chemical_formula_sum              "N4 C44 H34 S1 Zn2 O8"
_cell_length_a       19.437513618241372
_cell_length_b       10.299776766347529
_cell_length_c       10.299780419254978
_cell_angle_alpha    85.57449051580876
_cell_angle_beta     90.33405371402336
_cell_angle_gamma    89.50378728869872

_space_group_name_H-M_alt    "P 1"
_space_group_IT_number       1

loop_
  _space_group_symop_operation_xyz
  'x, y, z'

loop_
  _atom_site_type_symbol
  _atom_site_label
  _atom_site_symmetry_multiplicity
  _atom_site_fract_x
  _atom_site_fract_y
  _atom_site_fract_z
  _atom_site_occupancy
  N   N1        1.0  0.6477798068715745  0.41015825560119357  0.5758349516210495  1.0000
  C   C1        1.0  0.5888438404069578  0.4271675645259796  0.5728608661338606  1.0000
  C   C2        1.0  0.5154000795073248  0.44841914248748505  0.5691692610472427  1.0000
  C   C3        1.0  0.4736557343324558  0.3472288994137074  0.5574996779970978  1.0000
  C   C4        1.0  0.3977646641265019  0.357292381407891  0.550279687031741  1.0000
  C   C5        1.0  0.3581713665935672  0.4381498927333909  0.6160281844114257  1.0000
  C   C6        1.0  0.2819912795870922  0.42954045713329614  0.6075835018069677  1.0000
  C   C7        1.0  0.24887558053910383  0.3081983823402157  0.6122137930601559  1.0000
  C   C8        1.0  0.1771425478025987  0.30182561921378337  0.6050453418778636  1.0000
  C   C9        1.0  0.1375546390436646  0.4163223084786829  0.5936087665283618  1.0000
  C   C10       1.0  0.0637072034131783  0.40961134497681884  0.5862721946804206  1.0000
  N   N2        1.0  0.0043389630597806  0.40421632044738254  0.5803740493648322  1.0000
  C   C11       1.0  0.1699537361539004  0.537353929114049  0.5897236887679624  1.0000
  C   C12       1.0  0.24167112609687244  0.5439806887966763  0.5969541859240282  1.0000
  C   C13       1.0  0.3868328149186866  0.5304466504322944  0.7059543691436063  1.0000
  N   N3        1.0  0.4438089885821859  0.5936551852300698  0.6855577073656847  1.0000
  C   C14       1.0  0.4876595937110333  0.584377809436315  0.572453667406192  1.0000
  H   H1        1.0  0.49605630336954787  0.2521724642734564  0.5453688457234809  1.0000
  H   H2        1.0  0.3730662367396813  0.2877728855354733  0.4919564824794074  1.0000
  H   H3        1.0  0.27833992232753446  0.21828960961751198  0.6232246369986469  1.0000
  H   H4        1.0  0.1525642268349648  0.20760147785016625  0.6089223354777216  1.0000
  H   H5        1.0  0.1398040497345152  0.6266081367166509  0.5810248308128865  1.0000
  H   H6        1.0  0.26576785841354106  0.6386176207166396  0.5930617770605979  1.0000
  H   H7        1.0  0.3568200382426459  0.5508439987916876  0.7903198271976186  1.0000
  H   H8        1.0  0.5304001890320283  0.6546899115791798  0.5782243172089976  1.0000
  H   H9        1.0  0.4579945294726715  0.6124731048222949  0.4818146969968182  1.0000
  C   C15       1.0  0.8261275535829432  0.025820987513602844  0.5781037924009347  1.0000
  C   C16       1.0  0.830245061635416  0.01422020735432672  0.714664014394568  1.0000
  C   C17       1.0  0.83226519486481  0.8912044837582968  0.7838646809209426  1.0000
  C   C18       1.0  0.8301135035242069  0.7789346266536264  0.7146775292614571  1.0000
  C   C19       1.0  0.8259978330589445  0.7885434285166903  0.5781165813123401  1.0000
  C   C20       1.0  0.8240275095325583  0.9124252454911328  0.5105941379852084  1.0000
  C   C21       1.0  0.8366134717835306  0.8799961997810929  0.9283298910547086  1.0000
  C   C22       1.0  0.7972285075089529  0.7872081709796552  0.0018678918812301548  1.0000
  C   C23       1.0  0.801341408252434  0.7768939748819617  0.1378234931431066  1.0000
  C   C24       1.0  0.8446675127424697  0.8590924933876726  0.20204549871016153  1.0000
  C   C25       1.0  0.8842164929578001  0.9513042998717194  0.12988258944692332  1.0000
  C   C26       1.0  0.880204477881709  0.9619667012344331  0.993917857959494  1.0000
  S   S1        1.0  0.8500207994749267  0.845396158744583  0.37649620590913546  1.0000
  C   C27       1.0  0.7808828543787859  0.9626143860896048  0.395143896947303  1.0000
  H   H10       1.0  0.8245856633229282  0.35769444224775815  0.5260684934167299  1.0000
  H   H11       1.0  0.8309417857015692  0.10105116080639975  0.7676288528297386  1.0000
  H   H12       1.0  0.8326041571046764  0.6838908344398145  0.7674690774823261  1.0000
  H   H13       1.0  0.8208514975439573  0.9206062579975512  0.40524373922476586  1.0000
  H   H14       1.0  0.8243952264895226  0.46475162193407366  0.5260851749421209  1.0000
  H   H15       1.0  0.7626003839257087  0.7238109461299492  0.954315036185416  1.0000
  H   H16       1.0  0.7705745145363931  0.7053565097714176  0.19315082987498167  1.0000
  H   H17       1.0  0.9181121812717371  0.014769951049773189  0.17901498459554266  1.0000
  H   H18       1.0  0.9118395410960592  0.03312105440530999  0.9400145530287396  1.0000
  H   H19       1.0  0.7946618039908844  0.058703860133031194  0.34644383109534815  1.0000
  H   H20       1.0  0.7728977120231991  0.9734496995993842  0.5003168234007204  1.0000
  H   H21       1.0  0.7324754325557044  0.9278794404557862  0.35240744290160664  1.0000
  C   C28       1.0  0.8261095451206515  0.4070965573901453  0.19675661632145602  1.0000
  C   C29       1.0  0.875905039619306  0.5052948919303177  0.1887308345808203  1.0000
  C   C30       1.0  0.9010837460408705  0.5551489341213067  0.06751951356615682  1.0000
  C   C31       1.0  0.8758105180215605  0.505468698046134  0.9534294586747083  1.0000
  C   C32       1.0  0.8260158412924797  0.40726783055759475  0.9594636974258233  1.0000
  C   C33       1.0  0.8014422983034875  0.3586351147847717  0.08158516787203585  1.0000
  C   C34       1.0  0.9537654237638901  0.6590317263030232  0.06012053163409714  1.0000
  C   C35       1.0  0.9490967407012637  0.7636861437913609  0.964236777402236  1.0000
  C   C36       1.0  0.9987042540698025  0.8613750742066835  0.9573586443573356  1.0000
  C   C37       1.0  0.053547788310243094  0.8567580591776394  0.04673122534829344  1.0000
  C   C38       1.0  0.05887606268999579  0.7518138151199802  0.14156659863803367  1.0000
  C   C39       1.0  0.009282778963174865  0.6540999488372552  0.1486176830355248  1.0000
  C   C40       1.0  0.10785934205704173  0.960069690978935  0.036969163423612894  1.0000
  N   N4        1.0  0.1606068651698762  0.9265390646752953  0.9447621627226841  1.0000
  H   H22       1.0  0.8071630989280025  0.3696310655913402  0.5272719888366861  1.0000
  H   H23       1.0  0.8945480314074413  0.544489673289162  0.27683879381956045  1.0000
  H   H24       1.0  0.8957489092067651  0.5422910460747383  0.8598764865687043  1.0000
  H   H25       1.0  0.7630275711095187  0.28287852081104625  0.0870081318636926  1.0000
  H   H26       1.0  0.8070287283458405  0.36987201059938357  0.6343075437001491  1.0000
  H   H27       1.0  0.906664466289225  0.770739619163963  0.8953950142520366  1.0000
  H   H28       1.0  0.9942595240212679  0.9408484385006726  0.8824643012378734  1.0000
  H   H29       1.0  0.10156370149562766  0.7454083368122848  0.2098851006197735  1.0000
  H   H30       1.0  0.014926794512520658  0.5735894510255819  0.22206138671907838  1.0000
  H   H31       1.0  0.08407054569915373  0.05549166391366578  0.0033875853814921975  1.0000
  H   H32       1.0  0.13158375881457918  0.9709845527791039  0.1341280821016464  1.0000
  H   H33       1.0  0.19531202880507204  0.0036513871500614137  0.9352659280194611  1.0000
  H   H34       1.0  0.18822241625138236  0.8457763070716284  0.9858846708404143  1.0000
  Zn  Zn1       1.0  0.7506750824252592  0.4084400539639521  0.5771523457735954  1.0000
  Zn  Zn2       1.0  0.9014436942196695  0.40592385500765005  0.5790673244765783  1.0000
  C   C41       1.0  0.8260328793245091  0.40206186899361973  0.8152956514991736  1.0000
  C   C42       1.0  0.826087543414573  0.4123036511377838  0.3409241671512533  1.0000
  C   C43       1.0  0.8260194292323509  0.6443715545945701  0.5729391372487753  1.0000
  C   C44       1.0  0.8261009423168478  0.16999240611944977  0.58328074995793  1.0000
  O   O1        1.0  0.883296062843546  0.41309064927492445  0.3900348385395289  1.0000
  O   O2        1.0  0.8832542479118795  0.3993641542699933  0.7676380307894908  1.0000
  O   O3        1.0  0.8832426153286932  0.5950323029925728  0.571933421045614  1.0000
  O   O4        1.0  0.883307643990003  0.2174225106792398  0.5857393502593615  1.0000
  O   O5        1.0  0.7688110812049984  0.596941399152431  0.5704803193304928  1.0000
  O   O6        1.0  0.7688227135281409  0.4012748107073021  0.7661848598577732  1.0000
  O   O7        1.0  0.7688645287051313  0.4150012601051378  0.3885801062698173  1.0000
  O   O8        1.0  0.7688761098383903  0.21933311224262586  0.5842847153533759  1.0000
