data_image0
_chemical_formula_structural       NC10NC3NCH9C12NH11C15H12Zn2C4O8
_chemical_formula_sum              "N4 C45 H32 Zn2 O8"
_cell_length_a       19.437513618241372
_cell_length_b       10.299770795358612
_cell_length_c       10.299157797200024
_cell_angle_alpha    85.53969178690444
_cell_angle_beta     90.36969697792763
_cell_angle_gamma    89.53989505547142

_space_group_name_H-M_alt    "P 1"
_space_group_IT_number       1

loop_
  _space_group_symop_operation_xyz
  'x, y, z'

loop_
  _atom_site_type_symbol
  _atom_site_label
  _atom_site_symmetry_multiplicity
  _atom_site_fract_x
  _atom_site_fract_y
  _atom_site_fract_z
  _atom_site_occupancy
  N   N1        1.0  0.6477774420559063  0.41088466998406714  0.5755411169775506  1.0000
  C   C1        1.0  0.5888461619861195  0.42789554355225734  0.5725649585713299  1.0000
  C   C2        1.0  0.5154082643560245  0.4491490641086402  0.5688707660728829  1.0000
  C   C3        1.0  0.47362629266458456  0.3479643911129058  0.5572104735654073  1.0000
  C   C4        1.0  0.3977361826279928  0.35803156563848004  0.549988690563733  1.0000
  C   C5        1.0  0.3581916803452344  0.43885603579385735  0.6157356087413546  1.0000
  C   C6        1.0  0.2820059184635471  0.4302508499934987  0.6072909447108155  1.0000
  C   C7        1.0  0.24885128163624104  0.3089060177105636  0.6119343058126914  1.0000
  C   C8        1.0  0.17711374371798444  0.3025368652894196  0.6047657733271423  1.0000
  C   C9        1.0  0.1375602301264963  0.4170397376348478  0.5933161333784605  1.0000
  C   C10       1.0  0.06370812069863702  0.4103324688798937  0.5859794979038719  1.0000
  N   N2        1.0  0.0043361229611708  0.40494041469667374  0.5800813014187167  1.0000
  C   C11       1.0  0.16999840882666964  0.538073737102756  0.5894180951729409  1.0000
  C   C12       1.0  0.24172040926973581  0.544696855501873  0.5966486537049553  1.0000
  C   C13       1.0  0.3869137651029301  0.5311075400879774  0.705661531752795  1.0000
  N   N3        1.0  0.4439042521008466  0.5943266242656562  0.6852561988275516  1.0000
  C   C14       1.0  0.48771421903332046  0.5851065276560026  0.5721414058203491  1.0000
  H   H1        1.0  0.49599112806596646  0.2529137805594879  0.5450882476243257  1.0000
  H   H2        1.0  0.37299520663362157  0.2885413869170732  0.4916666579357323  1.0000
  H   H3        1.0  0.2782892884637472  0.2189913609690457  0.622955619055066  1.0000
  H   H4        1.0  0.1525052803557033  0.20831044005330313  0.6086529450402345  1.0000
  H   H5        1.0  0.1398756064703965  0.6273326550056195  0.5807090753127968  1.0000
  H   H6        1.0  0.2658474165541719  0.6393360805045107  0.5927460223011476  1.0000
  H   H7        1.0  0.3569357963348661  0.5514622090002661  0.7900336122393787  1.0000
  H   H8        1.0  0.5304801830998248  0.6554159440914673  0.577905357910363  1.0000
  H   H9        1.0  0.4580284396262395  0.6132478456883073  0.48149013164234145  1.0000
  C   C15       1.0  0.8259977426896632  0.026544949550403762  0.5778500708952987  1.0000
  C   C16       1.0  0.8060013976599678  0.03609174870225851  0.4461771833726371  1.0000
  C   C17       1.0  0.7959321901112688  0.9237919876582286  0.37942319934895163  1.0000
  C   C18       1.0  0.8061273116524523  0.8008080560356652  0.4461102297438371  1.0000
  C   C19       1.0  0.8261224117455487  0.7892699856653675  0.5777836519944559  1.0000
  C   C20       1.0  0.8359459889616322  0.9026952721755724  0.6429160981587303  1.0000
  C   C21       1.0  0.7747775188799918  0.9349453472062264  0.2401209306208889  1.0000
  C   C22       1.0  0.7246710071878304  0.026971709282056278  0.19429303830041222  1.0000
  C   C23       1.0  0.7047897307189415  0.037339534490745896  0.06318105767170379  1.0000
  C   C24       1.0  0.7346388176717494  0.9561073166641542  0.9758119164164287  1.0000
  C   C25       1.0  0.7845800468248788  0.8642820503378744  0.020747092030724  1.0000
  C   C26       1.0  0.8045164311435015  0.8536572893405855  0.15182979956346632  1.0000
  N   N4        1.0  0.7142735361635544  0.966844132605629  0.8417090887214265  1.0000
  H   H10       1.0  0.8335880193969043  0.3503599181570891  0.6280403063795816  1.0000
  H   H11       1.0  0.7991223910033513  0.13112665326355377  0.3947342760246877  1.0000
  H   H12       1.0  0.7975214890139412  0.7139372289303932  0.3955854935349836  1.0000
  H   H13       1.0  0.8513717404409809  0.8945623215866474  0.7444958926037835  1.0000
  H   H14       1.0  0.8337713809096758  0.4574205108399681  0.6279430115252103  1.0000
  H   H15       1.0  0.7002108585239735  0.08977135444965656  0.2601887666852434  1.0000
  H   H16       1.0  0.665993827115404  0.10847703883092175  0.029773513161069243  1.0000
  H   H17       1.0  0.8081891898193805  0.8011512379948924  0.954151213074923  1.0000
  H   H18       1.0  0.8438394670964742  0.7830216867711267  0.1838044275730515  1.0000
  H   H19       1.0  0.7362314911911951  0.9067019644829102  0.7758451144039022  1.0000
  H   H20       1.0  0.6770877697776173  0.035015071775129636  0.8072988177120339  1.0000
  C   C27       1.0  0.825980328159756  0.40801504311156833  0.19642383329863589  1.0000
  C   C28       1.0  0.7543164702885776  0.3912304331936771  0.19568806827142726  1.0000
  C   C29       1.0  0.7181280747926536  0.3826087010615633  0.07817457706666042  1.0000
  C   C30       1.0  0.7545208557501282  0.39101829432610735  0.960423394770916  1.0000
  C   C31       1.0  0.8261398067843665  0.40779985818794695  0.9592099050903142  1.0000
  C   C32       1.0  0.8614513333239153  0.4161944771108075  0.07773509641807652  1.0000
  C   C33       1.0  0.6423633291758966  0.36486896558148607  0.07844300663663062  1.0000
  C   C34       1.0  0.6113916763066803  0.2784064120324772  0.99694933801866  1.0000
  C   C35       1.0  0.5400938916169421  0.26180562617461556  0.9972341925103358  1.0000
  C   C36       1.0  0.4984977570353469  0.3306794890314917  0.0795285392548819  1.0000
  C   C37       1.0  0.5291013487249756  0.417993724464522  0.16004073053463563  1.0000
  C   C38       1.0  0.6003984404117099  0.4345987202256052  0.15990381757187833  1.0000
  C   C39       1.0  0.4216902660699519  0.3151448396932508  0.07748905527594507  1.0000
  C   C40       1.0  0.3907637139179992  0.4094277180861674  0.9796759940080997  1.0000
  C   C41       1.0  0.3653467050132443  0.4869562339015616  0.8992467781590725  1.0000
  H   H21       1.0  0.9612967095114745  0.4388994997047353  0.4051679783609019  1.0000
  H   H22       1.0  0.7266418124056884  0.38306696098381066  0.2868741765821885  1.0000
  H   H23       1.0  0.7267477441300103  0.38624328508138617  0.869437909472111  1.0000
  H   H24       1.0  0.9166931971771981  0.42913482398301617  0.07751482924120912  1.0000
  H   H25       1.0  0.85368967415116  0.414213126366459  0.6312708314955024  1.0000
  H   H26       1.0  0.6423897029339147  0.22252411929867733  0.9339768893768929  1.0000
  H   H27       1.0  0.5173045196171556  0.1950299594847047  0.9333908570243747  1.0000
  H   H28       1.0  0.4977014900036695  0.4735735381706403  0.222663090741952  1.0000
  H   H29       1.0  0.6226269996423012  0.5034909609349336  0.22209858334159938  1.0000
  H   H30       1.0  0.4079427598044829  0.2151339872746496  0.05387767898754636  1.0000
  H   H31       1.0  0.3997922337693539  0.33095482001877574  0.1744301593121078  1.0000
  H   H32       1.0  0.3430520292540309  0.5550232900010335  0.8286375110746289  1.0000
  Zn  Zn1       1.0  0.7506725817823069  0.40916579498991235  0.5768588258671066  1.0000
  Zn  Zn2       1.0  0.9014409899317883  0.406648617171506  0.5787742640054028  1.0000
  C   C42       1.0  0.8261073002334087  0.4026669194767154  0.8150274609695207  1.0000
  C   C43       1.0  0.826007918161517  0.4131491037747692  0.3406057771514428  1.0000
  C   C44       1.0  0.8260942271608357  0.6451002301715278  0.572620701109215  1.0000
  C   C45       1.0  0.8260209395468049  0.17071423362255  0.5830126057369296  1.0000
  O   O1        1.0  0.8832330018485994  0.4139112198493846  0.38972145391088175  1.0000
  O   O2        1.0  0.8833119495499647  0.39999334406803655  0.7673651836523845  1.0000
  O   O3        1.0  0.8833006218642306  0.5957613209381509  0.5716200000805538  1.0000
  O   O4        1.0  0.8832442780684441  0.2181432531558687  0.5854665394474636  1.0000
  O   O5        1.0  0.7688692421957916  0.597671159865955  0.5701665497645692  1.0000
  O   O6        1.0  0.7688805701189508  0.40190474331365267  0.765911663950742  1.0000
  O   O7        1.0  0.7688016221294277  0.41582257427889147  0.38826637271424924  1.0000
  O   O8        1.0  0.7688128983653024  0.22005459826918172  0.5840115556256036  1.0000
