data_image0
_chemical_formula_structural       NC10NC5H10C12NCOCH13C12OCH12Zn2C4O8
_chemical_formula_sum              "N3 C46 H35 O10 Zn2"
_cell_length_a       19.4436361288709
_cell_length_b       10.299155265289647
_cell_length_c       10.299794127170987
_cell_angle_alpha    85.56075829467142
_cell_angle_beta     89.69815743819767
_cell_angle_gamma    89.39615277754326

_space_group_name_H-M_alt    "P 1"
_space_group_IT_number       1

loop_
  _space_group_symop_operation_xyz
  'x, y, z'

loop_
  _atom_site_type_symbol
  _atom_site_label
  _atom_site_symmetry_multiplicity
  _atom_site_fract_x
  _atom_site_fract_y
  _atom_site_fract_z
  _atom_site_occupancy
  N   N1        1.0  0.6474468838198864  0.4090009055663242  0.561780796361167  1.0000
  C   C1        1.0  0.5886089045552083  0.41890514141169555  0.5761615101514073  1.0000
  C   C2        1.0  0.515277071551926  0.43125705716927043  0.5941497580601836  1.0000
  C   C3        1.0  0.47309999043106427  0.399247225391552  0.4994886455480536  1.0000
  C   C4        1.0  0.3971931622009844  0.4096868786986114  0.504813713169654  1.0000
  C   C5        1.0  0.3574586185636253  0.38494908877615175  0.6118880961736637  1.0000
  C   C6        1.0  0.2813373100343721  0.38886455231384587  0.5989282356641219  1.0000
  C   C7        1.0  0.24076219723104123  0.4465405776685698  0.6926795027146502  1.0000
  C   C8        1.0  0.1690980878302545  0.45017742433579455  0.6821350901832235  1.0000
  C   C9        1.0  0.137014416011026  0.3957422369429109  0.5781260302389493  1.0000
  C   C10       1.0  0.063221049891396  0.39944031408683855  0.5674263261298325  1.0000
  N   N2        1.0  0.0038961886370418005  0.4024133740755125  0.5588244733902941  1.0000
  C   C11       1.0  0.1768647819344277  0.3373591116244494  0.48475816971848484  1.0000
  C   C12       1.0  0.248545332504882  0.3336680089461377  0.4950508301538734  1.0000
  C   C13       1.0  0.38559923142019353  0.3444999303372389  0.7429878178815241  1.0000
  C   C14       1.0  0.44425374870847667  0.38763023222079385  0.7902167956596242  1.0000
  C   C15       1.0  0.4884413178712029  0.4854873473221182  0.7158265486336222  1.0000
  H   H1        1.0  0.49520538156057553  0.37011794690714006  0.40919348513841003  1.0000
  H   H2        1.0  0.3724904947944013  0.4321728355999854  0.41165341131213085  1.0000
  H   H3        1.0  0.2646233918427093  0.48984363364059447  0.7735128102951134  1.0000
  H   H4        1.0  0.1387436327599175  0.49550347403611417  0.7550407371523131  1.0000
  H   H5        1.0  0.1525316630852556  0.29425176469073233  0.4042592785664041  1.0000
  H   H6        1.0  0.2782346302348853  0.286098482701314  0.4228420828581767  1.0000
  H   H7        1.0  0.354646711774397  0.28028529031032723  0.8072490288611673  1.0000
  H   H8        1.0  0.4594102797442345  0.35357138986550196  0.8881560552214187  1.0000
  H   H9        1.0  0.4583137467882575  0.5762054582285427  0.6905516003954122  1.0000
  H   H10       1.0  0.5317208743811348  0.5110822275146487  0.7789019901262924  1.0000
  C   C16       1.0  0.8257516377461007  0.024308210950909848  0.5604206943407211  1.0000
  C   C17       1.0  0.8140109189661926  0.0341978355740884  0.42559975355147595  1.0000
  C   C18       1.0  0.8079915221416574  0.9220756073680167  0.3571255309666461  1.0000
  C   C19       1.0  0.8138464836769133  0.7989410423137022  0.4252933481862966  1.0000
  C   C20       1.0  0.8255980365259047  0.7870960002511818  0.5601957855315112  1.0000
  C   C21       1.0  0.8314813265476664  0.9002979333164148  0.6269289174332382  1.0000
  C   C22       1.0  0.7955721083951041  0.9335112896916428  0.2145012481116717  1.0000
  C   C23       1.0  0.830458039369691  0.02696090794610173  0.13279846535775897  1.0000
  C   C24       1.0  0.8187762121463776  0.037591656551947406  0.9985794644070309  1.0000
  C   C25       1.0  0.7724025488742612  0.954095018357151  0.9432163510858289  1.0000
  C   C26       1.0  0.7366764880529261  0.8624771982051183  0.02485794562483723  1.0000
  C   C27       1.0  0.7483833680148952  0.8515899595833978  0.1590394052322155  1.0000
  N   N3        1.0  0.7585075376991457  0.964564816417853  0.8057775423526183  1.0000
  C   C28       1.0  0.8087339901103658  0.0005531090943264871  0.7071482549084616  1.0000
  O   O1        1.0  0.8718295129254563  0.0019270269058548894  0.7344819579396091  1.0000
  C   C29       1.0  0.7868005124143083  0.027377009172426803  0.5687973318073838  1.0000
  H   H11       1.0  0.8302889697147396  0.34798002946856665  0.6122727239940418  1.0000
  H   H12       1.0  0.8085724035385021  0.12933289243125867  0.37383786007492303  1.0000
  H   H13       1.0  0.8101498481741284  0.7121995623297273  0.3726982387429405  1.0000
  H   H14       1.0  0.8405395037251214  0.8919549511899888  0.7309186618623771  1.0000
  H   H15       1.0  0.8481903325979306  0.5574481477352886  0.8146828519015512  1.0000
  H   H16       1.0  0.867182527319222  0.09133873262801884  0.17258416158462841  1.0000
  H   H17       1.0  0.8451656977552628  0.11254745732844307  0.9387831992561995  1.0000
  H   H18       1.0  0.6998860470072534  0.7988044661606205  0.9842058046246995  1.0000
  H   H19       1.0  0.7197837677642701  0.7802915215994933  0.21968690535959157  1.0000
  H   H20       1.0  0.7100661203439423  0.9365851550746904  0.7751074395494215  1.0000
  H   H21       1.0  0.7371523864427195  0.08173931617469044  0.5647556844397794  1.0000
  H   H22       1.0  0.7804387762558412  0.9338757385294313  0.5236283292357955  1.0000
  H   H23       1.0  0.8259583953078123  0.08673332606410455  0.5130801016682036  1.0000
  C   C30       1.0  0.8256980470406332  0.40558817449713214  0.17895665656324589  1.0000
  C   C31       1.0  0.7583111600095059  0.357707307012503  0.1823367549066517  1.0000
  C   C32       1.0  0.7241467570180514  0.3335486392006737  0.06690273623301746  1.0000
  C   C33       1.0  0.7582643548435778  0.3579346552456173  0.9470321843032434  1.0000
  C   C34       1.0  0.8256516268798479  0.40581602307991793  0.941659820781326  1.0000
  C   C35       1.0  0.8589918313639368  0.42937177369449997  0.05814495115099794  1.0000
  C   C36       1.0  0.6528572183748209  0.28288626170422293  0.07153337145321337  1.0000
  C   C37       1.0  0.6036094957202502  0.33246702892560065  0.9807790659678752  1.0000
  C   C38       1.0  0.5366084184859234  0.28477168984002943  0.9854005259070728  1.0000
  C   C39       1.0  0.5178810690969791  0.18717676933526017  0.08027158600214324  1.0000
  C   C40       1.0  0.5664505347649152  0.13620383812785586  0.17189451556822277  1.0000
  C   C41       1.0  0.6335449774232116  0.1845370442307004  0.16682071591564718  1.0000
  O   O2        1.0  0.5502811976550842  0.03792262873854635  0.26887950590545673  1.0000
  C   C42       1.0  0.4843653890971552  0.9798629543910008  0.2854809753581522  1.0000
  H   H24       1.0  0.8513845011023431  0.4237743540086891  0.5051261938106135  1.0000
  H   H25       1.0  0.7318910108771094  0.3407654787863741  0.27483806786083176  1.0000
  H   H26       1.0  0.732485923121155  0.33781512342057707  0.8579205619155497  1.0000
  H   H27       1.0  0.910978271803524  0.46630900453967716  0.05476895385224645  1.0000
  H   H28       1.0  0.8513152067986344  0.4241224288832419  0.6121554427969782  1.0000
  H   H29       1.0  0.6166742958129401  0.4092972786826863  0.9073291523050253  1.0000
  H   H30       1.0  0.49899603270366594  0.32386498223039784  0.9153632104151384  1.0000
  H   H31       1.0  0.4656365467517537  0.15210547614625525  0.08154402603091837  1.0000
  H   H32       1.0  0.6708545332481899  0.14369920173269657  0.23668729566604285  1.0000
  H   H33       1.0  0.4701989748200716  0.9316655026296855  0.1967523042590309  1.0000
  H   H34       1.0  0.4861477323725061  0.9053487818281735  0.3691601682698884  1.0000
  H   H35       1.0  0.4451769931021963  0.054850922937939695  0.30606103340285484  1.0000
  Zn  Zn1       1.0  0.7503104549700537  0.40709641687832754  0.5609351782334164  1.0000
  Zn  Zn2       1.0  0.9010326104882013  0.40430725743769247  0.5596807753403987  1.0000
  C   C43       1.0  0.825659889178036  0.4005988818415791  0.797494144220027  1.0000
  C   C44       1.0  0.8256848218236668  0.4108064008032697  0.323121922633256  1.0000
  C   C45       1.0  0.8256238262633848  0.6429113632559555  0.5550634037579631  1.0000
  C   C46       1.0  0.8257208336174332  0.16849235993618605  0.565552733218905  1.0000
  O   O3        1.0  0.882878656985225  0.41149354756236645  0.3710290652023587  1.0000
  O   O4        1.0  0.8828606828015632  0.397793847692675  0.7486345653398523  1.0000
  O   O5        1.0  0.8828307903996069  0.5934642555664211  0.5528700331982004  1.0000
  O   O6        1.0  0.8829084979599774  0.2158231499022374  0.5667935003990696  1.0000
  O   O7        1.0  0.768434516064203  0.5955805253669977  0.5538224535959804  1.0000
  O   O8        1.0  0.7684644081529698  0.39991167789917403  0.7495869160352819  1.0000
  O   O9        1.0  0.7684823824865656  0.4136113320421111  0.3719798545809918  1.0000
  O   O10       1.0  0.7685122234544475  0.2179409251215798  0.5677443871438785  1.0000
