data_image0
_chemical_formula_structural       NC12NC2H8C12OCH12C12ClH9Zn2C4O8
_chemical_formula_sum              "N2 C43 H29 O9 Cl1 Zn2"
_cell_length_a       17.80743265337812
_cell_length_b       10.29979075500242
_cell_length_c       10.299771906710086
_cell_angle_alpha    85.53978707277841
_cell_angle_beta     91.54320236892109
_cell_angle_gamma    89.41792083348325

_space_group_name_H-M_alt    "P 1"
_space_group_IT_number       1

loop_
  _space_group_symop_operation_xyz
  'x, y, z'

loop_
  _atom_site_type_symbol
  _atom_site_label
  _atom_site_symmetry_multiplicity
  _atom_site_fract_x
  _atom_site_fract_y
  _atom_site_fract_z
  _atom_site_occupancy
  N   N1        1.0  0.7070314016534133  0.40703931671139637  0.6012440050314871  1.0000
  C   C1        1.0  0.6561994069241877  0.43661553282787846  0.5325438270718241  1.0000
  C   C2        1.0  0.5929593919512932  0.4734061978820514  0.4470894537583834  1.0000
  C   C3        1.0  0.6046637011862847  0.5274589814205359  0.32046708055631634  1.0000
  C   C4        1.0  0.5433315487906486  0.5627454484224244  0.2374087738869961  1.0000
  C   C5        1.0  0.47014067069343013  0.544242763639823  0.2803129259229937  1.0000
  C   C6        1.0  0.4574596565576614  0.4900710586058239  0.4074034455336515  1.0000
  C   C7        1.0  0.5196491228012938  0.45478784968388797  0.4904452404448518  1.0000
  C   C8        1.0  0.3797010586891122  0.47045352211347713  0.45316794253086834  1.0000
  C   C9        1.0  0.3609234106178174  0.49760790390700893  0.5802091350509038  1.0000
  C   C10       1.0  0.2877025832791169  0.4791467822721549  0.6231538466597775  1.0000
  C   C11       1.0  0.23231656717989832  0.43327679580781275  0.5398953440543608  1.0000
  C   C12       1.0  0.1569593794603584  0.4142624952650513  0.5842410085616005  1.0000
  N   N2        1.0  0.09637753704328922  0.398976276447905  0.6198918721420068  1.0000
  C   C13       1.0  0.2504028089560513  0.40595336470027843  0.4133971277418451  1.0000
  C   C14       1.0  0.3235707518685231  0.4244293361697109  0.3701965305550836  1.0000
  H   H1        1.0  0.6611231144111057  0.5422914236714493  0.2860293697380347  1.0000
  H   H2        1.0  0.5525118405344622  0.60486714360044  0.13962767155512212  1.0000
  H   H3        1.0  0.4234891381866974  0.5738948073757095  0.21472065823226205  1.0000
  H   H4        1.0  0.5111674542427025  0.4112808753407444  0.5881019973296082  1.0000
  H   H5        1.0  0.40259988059669083  0.5347707484104915  0.6457789535497571  1.0000
  H   H6        1.0  0.274265469937034  0.5009677404702244  0.7211602223047071  1.0000
  H   H7        1.0  0.2080092715676875  0.37005770018848216  0.3482401692296677  1.0000
  H   H8        1.0  0.3364797831503342  0.4010727524361757  0.272493597133167  1.0000
  C   C15       1.0  0.9017755826893064  0.0216385671464443  0.6106102755870895  1.0000
  C   C16       1.0  0.8800410159961395  0.010883770505985435  0.741007667739656  1.0000
  C   C17       1.0  0.868968325087214  0.8882991924511773  0.8070450111216365  1.0000
  C   C18       1.0  0.8799060393250482  0.7756042919626118  0.7409354177591045  1.0000
  C   C19       1.0  0.9016405725811836  0.784366874802433  0.6105370914881378  1.0000
  C   C20       1.0  0.912455391956992  0.9078274251448639  0.5461054177601721  1.0000
  C   C21       1.0  0.8459789618378694  0.8779752351140317  0.944999606330547  1.0000
  C   C22       1.0  0.7911671947452696  0.7882308038848121  0.9874400444564613  1.0000
  C   C23       1.0  0.7695978565180424  0.7787864821546477  0.11714632655761748  1.0000
  C   C24       1.0  0.8023544323170202  0.8584276133619845  0.20606358358987065  1.0000
  C   C25       1.0  0.8573663779735647  0.9487764310919501  0.16550444314920698  1.0000
  C   C26       1.0  0.8787027664619432  0.9578645449999725  0.035260302951105604  1.0000
  O   O1        1.0  0.8921005001827966  0.030732258930475487  0.25103666572036853  1.0000
  C   C27       1.0  0.8760067390694534  0.032002567086636624  0.38560226690624766  1.0000
  H   H9        1.0  0.9100902636874214  0.35318739640225316  0.5609461384934749  1.0000
  H   H10       1.0  0.8706770430756288  0.09808889300619628  0.7909880559504672  1.0000
  H   H11       1.0  0.8724214880806129  0.6808437466643319  0.7919449366428519  1.0000
  H   H12       1.0  0.9292232700624158  0.9153558879181988  0.4455093666728631  1.0000
  H   H13       1.0  0.909885038917886  0.46025513373854676  0.5608319562628306  1.0000
  H   H14       1.0  0.7642900133748473  0.7265782840712757  0.9199430747043806  1.0000
  H   H15       1.0  0.7271714179020751  0.7096849320427666  0.14879317831687533  1.0000
  H   H16       1.0  0.7845600337523186  0.8490163703628635  0.3058781374877899  1.0000
  H   H17       1.0  0.9217355119487121  0.026526874266156852  0.00515535149105717  1.0000
  H   H18       1.0  0.8889890414790518  0.9351894524768628  0.43684675403742035  1.0000
  H   H19       1.0  0.9114622815324738  0.1058946383554118  0.4295148297044872  1.0000
  H   H20       1.0  0.8160346943261338  0.058150857714254656  0.3971654108806485  1.0000
  C   C28       1.0  0.9016722899976678  0.40310979374062716  0.22920271577069085  1.0000
  C   C29       1.0  0.9698025014798328  0.4705817435373394  0.22613211607531514  1.0000
  C   C30       1.0  0.0043612881771519785  0.5046614103908511  0.10744764637625503  1.0000
  C   C31       1.0  0.9698750101046831  0.4703650800083743  0.9908658314265844  1.0000
  C   C32       1.0  0.901743832235819  0.4028957101117723  0.9919447286522232  1.0000
  C   C33       1.0  0.8680243496600949  0.36964505795522484  0.11159945071682098  1.0000
  C   C34       1.0  0.07643787012441061  0.5760397009664717  0.1052529794308199  1.0000
  C   C35       1.0  0.0882932097988216  0.6787991988429583  0.1856138920423993  1.0000
  C   C36       1.0  0.15616724671827775  0.745880835540689  0.18336248130170318  1.0000
  C   C37       1.0  0.21295607094154456  0.711234016628215  0.10109725454553331  1.0000
  C   C38       1.0  0.20181778990147725  0.6093191349393359  0.020899405676136462  1.0000
  C   C39       1.0  0.1340111268847004  0.5420357813816918  0.022778429585068594  1.0000
  Cl  Cl1       1.0  0.2980692442785422  0.7955215382915766  0.09850664378976348  1.0000
  H   H21       1.0  0.8756914371199824  0.37745731831886364  0.5578207515009821  1.0000
  H   H22       1.0  0.9966770465214219  0.4952246792623216  0.3163978812484711  1.0000
  H   H23       1.0  0.9957594241033368  0.49797009542958226  0.898993545657949  1.0000
  H   H24       1.0  0.8154645708541476  0.31759468389127754  0.11320005256990484  1.0000
  H   H25       1.0  0.8757970450259922  0.377140559981455  0.6649066523428893  1.0000
  H   H26       1.0  0.04473560989552916  0.7083543381464883  0.2488991232081863  1.0000
  H   H27       1.0  0.16446016972610655  0.8249829629145349  0.24538636119917712  1.0000
  H   H28       1.0  0.24571785296486448  0.58190404810304  0.9572868140891466  1.0000
  H   H29       1.0  0.12696525111240664  0.46236755142980934  0.9610338595792269  1.0000
  Zn  Zn1       1.0  0.8193882906423771  0.40470902807855724  0.6066328639690974  1.0000
  Zn  Zn2       1.0  0.9840206484296  0.401295968641072  0.6145136073289095  1.0000
  C   C40       1.0  0.9017295562155982  0.3977625035697614  0.8477705458360882  1.0000
  C   C41       1.0  0.9016811803584639  0.40824409446422094  0.3733761388294081  1.0000
  C   C42       1.0  0.9016617212795158  0.6401965462486501  0.6053755768766578  1.0000
  C   C43       1.0  0.9017489593997602  0.1658084926269503  0.6157711744883168  1.0000
  O   O2        1.0  0.9641612868393299  0.4086663086751934  0.4247527582258983  1.0000
  O   O3        1.0  0.9642016001001598  0.39474887660036995  0.8023748545475831  1.0000
  O   O4        1.0  0.9641459804365766  0.5905174491418574  0.6066391616820719  1.0000
  O   O5        1.0  0.964216850314262  0.2128977466159152  0.6204883510261567  1.0000
  O   O6        1.0  0.8391920325767704  0.5931072512698397  0.6006581175757082  1.0000
  O   O7        1.0  0.8392476519541949  0.39734023905285976  0.7963937410455995  1.0000
  O   O8        1.0  0.8392073386048687  0.4112576263089682  0.41877008332146026  1.0000
  O   O9        1.0  0.8392629020875071  0.21548905493360637  0.6145057734908299  1.0000
