data_image0
_chemical_formula_structural       NC9NC5H8C12ClH9C12IH9Zn2C4O8
_chemical_formula_sum              "N2 C42 H26 Cl1 I1 Zn2 O8"
_cell_length_a       17.807436237873137
_cell_length_b       10.299768534541528
_cell_length_c       10.29977335064465
_cell_angle_alpha    85.54596918474078
_cell_angle_beta     89.4010069247268
_cell_angle_gamma    88.408414792471

_space_group_name_H-M_alt    "P 1"
_space_group_IT_number       1

loop_
  _space_group_symop_operation_xyz
  'x, y, z'

loop_
  _atom_site_type_symbol
  _atom_site_label
  _atom_site_symmetry_multiplicity
  _atom_site_fract_x
  _atom_site_fract_y
  _atom_site_fract_z
  _atom_site_occupancy
  N   N1        1.0  0.7075342797558168  0.388145042211832  0.5571535834691652  1.0000
  C   C1        1.0  0.6469391908127184  0.3529591942177781  0.5461290233203642  1.0000
  C   C2        1.0  0.5715655601309879  0.3091918741863817  0.532415667530244  1.0000
  C   C3        1.0  0.5534511007248343  0.23780856376196713  0.42741146003496455  1.0000
  C   C4        1.0  0.480267166404046  0.19520239857918398  0.4140140449342977  1.0000
  C   C5        1.0  0.42414889989171983  0.22360203097561704  0.5055883788480131  1.0000
  C   C6        1.0  0.3463732721884485  0.1784375410727408  0.4914324726381758  1.0000
  C   C7        1.0  0.2842145121841776  0.26018460301795976  0.5173728780622058  1.0000
  C   C8        1.0  0.21088823659440964  0.21737539978776188  0.5039891404296855  1.0000
  C   C9        1.0  0.1476799203130688  0.30181365562055973  0.5302934975552147  1.0000
  N   N2        1.0  0.0968734211636612  0.36969617121856446  0.5514414740907727  1.0000
  C   C10       1.0  0.1991371259113126  0.09256116706274065  0.4646396429500961  1.0000
  C   C11       1.0  0.2604385127401612  0.01080025551779018  0.43869084757216315  1.0000
  C   C12       1.0  0.3336452642254183  0.05321498400683056  0.4518720395523932  1.0000
  C   C13       1.0  0.4429548759741666  0.29547963469462535  0.6108118250603851  1.0000
  C   C14       1.0  0.5161916317847898  0.337895454213363  0.6240535858459644  1.0000
  H   H1        1.0  0.5958351624968883  0.2153445044980309  0.35569824386859206  1.0000
  H   H2        1.0  0.4673369203996296  0.14154514525689543  0.33109255800918325  1.0000
  H   H3        1.0  0.2927327581876299  0.35763920790812165  0.5462516819101026  1.0000
  H   H4        1.0  0.1426647965217588  0.05852885611158154  0.4540441433240501  1.0000
  H   H5        1.0  0.2512219623537283  0.914166080621111  0.4086116461959117  1.0000
  H   H6        1.0  0.3802721202171232  0.9874767621832556  0.4328224490677579  1.0000
  H   H7        1.0  0.4012877151718376  0.3174042813666369  0.6838195309581103  1.0000
  H   H8        1.0  0.5296503567390368  0.3927735698626573  0.7059334670435153  1.0000
  C   C15       1.0  0.9021365827167759  0.9975584150614474  0.554296415529228  1.0000
  C   C16       1.0  0.9070717369020523  0.006929417812908234  0.4177553065400199  1.0000
  C   C17       1.0  0.9096446426132032  0.8945349877723057  0.34857516994394233  1.0000
  C   C18       1.0  0.9072152215943355  0.7716348968916351  0.4177686913783514  1.0000
  C   C19       1.0  0.9022783000868615  0.7602724488650525  0.5543097642466877  1.0000
  C   C20       1.0  0.8997671809350941  0.8737902051849458  0.6218089872676926  1.0000
  C   C21       1.0  0.9148666232047591  0.9055023479550633  0.20412604460178807  1.0000
  C   C22       1.0  0.8721207284192506  0.0010893072823927596  0.1302894958968508  1.0000
  C   C23       1.0  0.8771027422221478  0.011213130229158486  0.9943368767609413  1.0000
  C   C24       1.0  0.9247579442655302  0.9262760592757113  0.9305300179499922  1.0000
  C   C25       1.0  0.967491386528618  0.8310023680544687  0.002855531287837998  1.0000
  C   C26       1.0  0.9626427856918172  0.8204799678889834  0.13882083633536624  1.0000
  Cl  Cl1       1.0  0.9309249137501697  0.9392279108932428  0.7599548207324367  1.0000
  H   H9        1.0  0.9002174991024002  0.32144317949542467  0.6063226118822915  1.0000
  H   H10       1.0  0.9099632026300462  0.10181990464367785  0.3649803814885344  1.0000
  H   H11       1.0  0.9081461239319412  0.684772190843641  0.3648089752068482  1.0000
  H   H12       1.0  0.8959591758222453  0.8657927552718138  0.7271441786422823  1.0000
  H   H13       1.0  0.9004270142978352  0.4284876596135582  0.6063427668937278  1.0000
  H   H14       1.0  0.8341407355549711  0.0668514981631243  0.17759009849167717  1.0000
  H   H15       1.0  0.8437422535111676  0.08492393634186635  0.938714646960229  1.0000
  H   H16       1.0  0.004633398698411728  0.7652337545789872  0.9538777476522671  1.0000
  H   H17       1.0  0.9969564401592884  0.7470177338204187  0.19293477932820902  1.0000
  C   C27       1.0  0.9021716413854649  0.3790232265362208  0.17293444431414606  1.0000
  C   C28       1.0  0.9702850775552302  0.4447985535367418  0.16559932482390427  1.0000
  C   C29       1.0  0.004834791635791813  0.478017889320149  0.04475199433820265  1.0000
  C   C30       1.0  0.9703573019501149  0.4445809766106761  0.9303286474933383  1.0000
  C   C31       1.0  0.9022432369905261  0.37880768433343515  0.9356718180475125  1.0000
  C   C32       1.0  0.8685321081336245  0.34639604184882455  0.05743730152976401  1.0000
  C   C33       1.0  0.07689282932955743  0.5476003910793736  0.03804607196239629  1.0000
  C   C34       1.0  0.08872972624569453  0.6500576713223745  0.11768512224367123  1.0000
  C   C35       1.0  0.15659004758587303  0.715433726299628  0.11117109550339488  1.0000
  C   C36       1.0  0.21336779083253687  0.6793840044171877  0.025348073349327205  1.0000
  C   C37       1.0  0.20225572916712542  0.5777785672931648  0.9458411474463082  1.0000
  C   C38       1.0  0.13447157765218143  0.5121729331312381  0.9519481104552008  1.0000
  I   I1        1.0  0.31567668565575535  0.778173965208252  0.015830940459700793  1.0000
  H   H18       1.0  0.8761955059226162  0.354025878656989  0.5031782684344286  1.0000
  H   H19       1.0  0.9971538658667976  0.4687721333163073  0.25418250663412056  1.0000
  H   H20       1.0  0.9962350496703025  0.4715422153472728  0.8368367609487573  1.0000
  H   H21       1.0  0.8159852715663758  0.2956545275215061  0.06232765903317983  1.0000
  H   H22       1.0  0.8763003540047154  0.3537087717141738  0.6102568842026157  1.0000
  H   H23       1.0  0.04517291095123199  0.6806992665331117  0.18371543262333123  1.0000
  H   H24       1.0  0.16491906334361595  0.7943152870106092  0.17263637221518624  1.0000
  H   H25       1.0  0.24618192360166313  0.5493556772811441  0.8795143225037889  1.0000
  H   H26       1.0  0.1274479826064887  0.4326886332623754  0.8906245806672826  1.0000
  Zn  Zn1       1.0  0.8198891446459824  0.3828176292146839  0.5555127028175588  1.0000
  Zn  Zn2       1.0  0.9845185371116024  0.375012995215634  0.5530930311615265  1.0000
  C   C39       1.0  0.9022270628979095  0.37367491831351396  0.7914980258426823  1.0000
  C   C40       1.0  0.9021824169239309  0.3841572594444247  0.31710780920880843  1.0000
  C   C41       1.0  0.9022471535665473  0.6161049424492169  0.5491321665380662  1.0000
  C   C42       1.0  0.9021622697953934  0.14172567767791833  0.5594737385502744  1.0000
  O   O1        1.0  0.9646620287078326  0.3829128042208023  0.3645754546246731  1.0000
  O   O2        1.0  0.9646973505134564  0.3689948573196258  0.7421935317642816  1.0000
  O   O3        1.0  0.9647127319028965  0.5647602073004296  0.5464813979995191  1.0000
  O   O4        1.0  0.9646465911341188  0.18714746622076373  0.5602874918406644  1.0000
  O   O5        1.0  0.8397610344435339  0.5706831608743081  0.5483182429573052  1.0000
  O   O6        1.0  0.839745653334061  0.37491937118906193  0.744030307504103  1.0000
  O   O7        1.0  0.8397103314234377  0.38883727327396356  0.3664106689632882  1.0000
  O   O8        1.0  0.8396948938540651  0.19307192595791434  0.562122803546935  1.0000
