data_image0
_chemical_formula_structural       NC10NC5H10C12ClH9C12ClH9Zn2C4O8
_chemical_formula_sum              "N2 C43 H28 Cl2 Zn2 O8"
_cell_length_a       19.4436361288709
_cell_length_b       10.299768534541528
_cell_length_c       10.299771906710086
_cell_angle_alpha    85.54593327708469
_cell_angle_beta     89.71369758328774
_cell_angle_gamma    89.43641405984484

_space_group_name_H-M_alt    "P 1"
_space_group_IT_number       1

loop_
  _space_group_symop_operation_xyz
  'x, y, z'

loop_
  _atom_site_type_symbol
  _atom_site_label
  _atom_site_symmetry_multiplicity
  _atom_site_fract_x
  _atom_site_fract_y
  _atom_site_fract_z
  _atom_site_occupancy
  N   N1        1.0  0.6477595550110822  0.4097053570213345  0.562157326868612  1.0000
  C   C1        1.0  0.5889273632942433  0.41960036333672757  0.5765418026994262  1.0000
  C   C2        1.0  0.5156027559932642  0.43194073761251617  0.5945347448186042  1.0000
  C   C3        1.0  0.4733999073326204  0.3999886361235272  0.4998592793220362  1.0000
  C   C4        1.0  0.3974977382293394  0.41042425486129064  0.505187864552697  1.0000
  C   C5        1.0  0.3577696984273065  0.385626716354627  0.612259363132994  1.0000
  C   C6        1.0  0.2816479449857264  0.38954932769483563  0.599300140770308  1.0000
  C   C7        1.0  0.2411080020086492  0.44716581142775347  0.6930737713026105  1.0000
  C   C8        1.0  0.1694436982294551  0.4508084325968962  0.6825300195124857  1.0000
  C   C9        1.0  0.1373245570898122  0.3964384314348941  0.5784991456457895  1.0000
  C   C10       1.0  0.0635309965784133  0.40014236742536036  0.5678001144149412  1.0000
  N   N2        1.0  0.0042059790649639  0.4031201375335649  0.559198802640964  1.0000
  C   C11       1.0  0.1771395466794942  0.33811469014060624  0.4851087172746016  1.0000
  C   C12       1.0  0.248820234569989  0.33441796368195376  0.4954006884826414  1.0000
  C   C13       1.0  0.3859144994866674  0.345105328589006  0.7433523656198797  1.0000
  C   C14       1.0  0.44459196343137836  0.3882043530301351  0.7905970249707566  1.0000
  C   C15       1.0  0.48880498517746473  0.486095629573952  0.7162340896370887  1.0000
  H   H1        1.0  0.495481241066397  0.37091429737395454  0.4095508684366651  1.0000
  H   H2        1.0  0.3727897698471453  0.4329621084395807  0.41203037433789413  1.0000
  H   H3        1.0  0.2649971330547784  0.4904181153903542  0.7739243450196418  1.0000
  H   H4        1.0  0.1391167691810691  0.49608813656238393  0.7554532062345973  1.0000
  H   H5        1.0  0.1527786131242748  0.29505788374101427  0.40459263661288025  1.0000
  H   H6        1.0  0.2784812749179701  0.2868945840075008  0.42317372935357866  1.0000
  H   H7        1.0  0.35494754162275605  0.28085932758739696  0.8075963578538503  1.0000
  H   H8        1.0  0.45975019630097314  0.3540919009958523  0.8885300599114119  1.0000
  H   H9        1.0  0.4587074134895928  0.5768201117174685  0.6909864502107732  1.0000
  H   H10       1.0  0.5321032962002883  0.5116516537889229  0.7793204331955392  1.0000
  C   C16       1.0  0.8259211863914045  0.025048495418430905  0.5606764781025622  1.0000
  C   C17       1.0  0.8304394211862376  0.03456996367318754  0.42417024689930316  1.0000
  C   C18       1.0  0.8327949688074592  0.9222539764420338  0.3550082939571515  1.0000
  C   C19       1.0  0.8305707837962256  0.7992798148928635  0.424184646531927  1.0000
  C   C20       1.0  0.8260509309886591  0.7877668475105971  0.5606908291149673  1.0000
  C   C21       1.0  0.823751950224714  0.9012080447833787  0.6281723051462496  1.0000
  C   C22       1.0  0.8375757990513694  0.9333805470208747  0.21059607346951292  1.0000
  C   C23       1.0  0.7984412350007473  0.027665034289804158  0.13645719149738333  1.0000
  C   C24       1.0  0.8030023704678412  0.03794075023975374  0.0005397816727499283  1.0000
  C   C25       1.0  0.8466315061799481  0.9544558299514636  0.9370699509036169  1.0000
  C   C26       1.0  0.8857546699549046  0.8604842322914337  0.009697709151190281  1.0000
  C   C27       1.0  0.8813156762657864  0.8498140043666687  0.14562874844958218  1.0000
  Cl  Cl1       1.0  0.8522774931188377  0.9675957032575822  0.7665383369820011  1.0000
  H   H11       1.0  0.8241642261658512  0.34887475051963257  0.6126891116796025  1.0000
  H   H12       1.0  0.8330866134458991  0.12954858994566876  0.37141576162863066  1.0000
  H   H13       1.0  0.8314230478313368  0.7124455077025857  0.3712315040726044  1.0000
  H   H14       1.0  0.8202656435078248  0.8930944944771598  0.7334805845334986  1.0000
  H   H15       1.0  0.8243560407939773  0.4559256148024877  0.6127107484856322  1.0000
  H   H16       1.0  0.7636699158602324  0.09226989997691559  0.18348919057653457  1.0000
  H   H17       1.0  0.7724602985112033  0.1106350573831516  0.9446816001082352  1.0000
  H   H18       1.0  0.9197588041311061  0.7958474107905747  0.9609826021157493  1.0000
  H   H19       1.0  0.9127303874713465  0.7773973143066039  0.1999853841594017  1.0000
  C   C28       1.0  0.8259533374014739  0.4065146139259057  0.17931468232261505  1.0000
  C   C29       1.0  0.888349432767031  0.4742443079282044  0.17247050578131695  1.0000
  C   C30       1.0  0.9199995629672892  0.5084547163300663  0.05187188855888625  1.0000
  C   C31       1.0  0.8884157429468674  0.47402792227378976  0.9372001747727867  1.0000
  C   C32       1.0  0.8260187637045474  0.4063008044719256  0.9420527027414725  1.0000
  C   C33       1.0  0.7951372976480096  0.3729225859752914  0.06357508496181197  1.0000
  C   C34       1.0  0.9860098855533177  0.5801056806953624  0.04568506411913398  1.0000
  C   C35       1.0  0.9968976659218397  0.6829089034005809  0.12539888817389855  1.0000
  C   C36       1.0  0.059059102039384026  0.7502473168558201  0.119388075174923  1.0000
  C   C37       1.0  0.11103815688502672  0.7158164600309311  0.03396790730415522  1.0000
  C   C38       1.0  0.10080712924846535  0.6138605645636666  0.9543774448642672  1.0000
  C   C39       1.0  0.038707307401828484  0.5463206924501876  0.9600121111743789  1.0000
  Cl  Cl2       1.0  0.1889878577607309  0.8004259743837638  0.026663071877411904  1.0000
  H   H20       1.0  0.802159164626769  0.38076384907725624  0.5093717462870619  1.0000
  H   H21       1.0  0.9129614515901049  0.4989889374399594  0.2612475443301787  1.0000
  H   H22       1.0  0.9121222738467553  0.5017308369632185  0.8438944172243912  1.0000
  H   H23       1.0  0.7470011644462196  0.3206733723734687  0.06808685311429619  1.0000
  H   H24       1.0  0.8022557441795772  0.3804474954753776  0.6164517535315395  1.0000
  H   H25       1.0  0.9570301976689466  0.7122983607591555  0.1911043037341058  1.0000
  H   H26       1.0  0.066677606712507  0.8293799408934537  0.18096006823412059  1.0000
  H   H27       1.0  0.1409888357849034  0.5866124329845888  0.888325889619312  1.0000
  H   H28       1.0  0.03223029510384512  0.466626705820264  0.898650167897725  1.0000
  Zn  Zn1       1.0  0.7506222946474271  0.40780153149318177  0.5613110727594348  1.0000
  Zn  Zn2       1.0  0.9013432300557898  0.40501335251549997  0.560055737731969  1.0000
  C   C40       1.0  0.8260039887725802  0.40116760720817823  0.797878773438879  1.0000
  C   C41       1.0  0.825963182088224  0.41164888491721885  0.32348815084171223  1.0000
  C   C42       1.0  0.8260224165696256  0.6435983952646795  0.5555130101388666  1.0000
  C   C43       1.0  0.8259447026011958  0.16921653750947052  0.5658539837792762  1.0000
  O   O1        1.0  0.8831642945900224  0.41230822810152157  0.3713976907099885  1.0000
  O   O2        1.0  0.8831965786019575  0.3983911210883342  0.7490160894666265  1.0000
  O   O3        1.0  0.8832106883431415  0.5941570622848233  0.5533040272714693  1.0000
  O   O4        1.0  0.8831501334112193  0.21654229717385554  0.5671096559589939  1.0000
  O   O5        1.0  0.7688153398583392  0.5962725877877106  0.5542571549539632  1.0000
  O   O6        1.0  0.7688012303734796  0.40050820689535294  0.7499691479331225  1.0000
  O   O7        1.0  0.7687689462656381  0.4144252690900434  0.3723491877742382  1.0000
  O   O8        1.0  0.7687547850907952  0.21865932884643868  0.568061250390949  1.0000
