data_image0
_chemical_formula_structural       NC11NC3H8C16H10C15H12Zn2C4O8
_chemical_formula_sum              "N2 C49 H30 Zn2 O8"
_cell_length_a       17.807433833752565
_cell_length_b       10.29914801576943
_cell_length_c       10.299157797200024
_cell_angle_alpha    85.52082761248347
_cell_angle_beta     88.54730741847368
_cell_angle_gamma    90.69784511463686

_space_group_name_H-M_alt    "P 1"
_space_group_IT_number       1

loop_
  _space_group_symop_operation_xyz
  'x, y, z'

loop_
  _atom_site_type_symbol
  _atom_site_label
  _atom_site_symmetry_multiplicity
  _atom_site_fract_x
  _atom_site_fract_y
  _atom_site_fract_z
  _atom_site_occupancy
  N   N1        1.0  0.7072781649154991  0.4390038879322318  0.5339979594509059  1.0000
  C   C1        1.0  0.6564691091932948  0.4042558418647302  0.6005775134363864  1.0000
  C   C2        1.0  0.5932575167002582  0.36103213761450426  0.6833939827581448  1.0000
  C   C3        1.0  0.6050039133121464  0.2974426569340214  0.8061439256554661  1.0000
  C   C4        1.0  0.5436994250122049  0.25589950126306893  0.8866756743804696  1.0000
  C   C5        1.0  0.4704942957373854  0.2776323542729797  0.8450984328128763  1.0000
  C   C6        1.0  0.4577710217670767  0.34137652643535343  0.7218882091693084  1.0000
  C   C7        1.0  0.37999722125046076  0.3644403790434203  0.6775296480367448  1.0000
  C   C8        1.0  0.3611815089548563  0.3476023770443877  0.5479506203704669  1.0000
  C   C9        1.0  0.2879464215968009  0.3692965108761084  0.5063293213304141  1.0000
  C   C10       1.0  0.2325838290502337  0.40814742740206444  0.5934666090013578  1.0000
  C   C11       1.0  0.1572118000690533  0.4305004576043512  0.5504836852673396  1.0000
  N   N2        1.0  0.09661806269577661  0.4484706332579904  0.515928542887782  1.0000
  C   C12       1.0  0.25070788542998496  0.42519617066479287  0.722514392789376  1.0000
  C   C13       1.0  0.32389026483356226  0.4034670335265256  0.7643911466158799  1.0000
  C   C14       1.0  0.519932825081774  0.382915112264546  0.6413728788654971  1.0000
  H   H1        1.0  0.6614749215360923  0.28001750577575946  0.8395180893267602  1.0000
  H   H2        1.0  0.5529123352666768  0.20641691767980852  0.9814363031017939  1.0000
  H   H3        1.0  0.4238647500046406  0.24305590998783488  0.9085544971375263  1.0000
  H   H4        1.0  0.4028396329900054  0.3159767790873773  0.47924416948635007  1.0000
  H   H5        1.0  0.2744800124315586  0.35544214636007676  0.4062961830619687  1.0000
  H   H6        1.0  0.2083326879262321  0.4555987802143935  0.7907065569184741  1.0000
  H   H7        1.0  0.3368284166069834  0.41886698819018986  0.8642408856991373  1.0000
  H   H8        1.0  0.5114186374260741  0.43376009906229696  0.5468460148713139  1.0000
  C   C15       1.0  0.901898245251909  0.06233462460309935  0.5251311010082704  1.0000
  C   C16       1.0  0.8847146014974652  0.07155407488053722  0.3924467439690089  1.0000
  C   C17       1.0  0.8760572984036845  0.9591001601931738  0.3250057845023826  1.0000
  C   C18       1.0  0.8848147946309101  0.8363048125473892  0.3920374797679085  1.0000
  C   C19       1.0  0.9020051541782617  0.825130058993277  0.5248062830211273  1.0000
  C   C20       1.0  0.9104423778478828  0.9386588392414728  0.5905355290911087  1.0000
  C   C21       1.0  0.8578792611026627  0.9698988368847921  0.18464172792295597  1.0000
  C   C22       1.0  0.8934033643961048  0.889802056595289  0.09777031382056078  1.0000
  C   C23       1.0  0.8762685766754691  0.9000899372112373  0.9656662959210451  1.0000
  C   C24       1.0  0.8234336425870152  0.9903711466777133  0.9186375006268102  1.0000
  C   C25       1.0  0.7877722612400645  0.0704452744648203  0.004231269202271459  1.0000
  C   C26       1.0  0.8048534902810531  0.06039735124434853  0.13635872060230936  1.0000
  C   C27       1.0  0.8058210835989935  0.0008395026255445526  0.7826226787731998  1.0000
  C   C28       1.0  0.7910707554288445  0.009606650924126603  0.6687122361575311  1.0000
  C   C29       1.0  0.7737982952878109  0.01987286283964984  0.5353242683179364  1.0000
  C   C30       1.0  0.7590504424873525  0.028638688815475488  0.4214322196751037  1.0000
  H   H9        1.0  0.9084691783223866  0.3862620855177219  0.5761830760984545  1.0000
  H   H10       1.0  0.8790353979659562  0.16648626610902872  0.3407971732735262  1.0000
  H   H11       1.0  0.8771966050582728  0.7492411318076211  0.34097250915008215  1.0000
  H   H12       1.0  0.9236943662030823  0.9308316962033406  0.6928793371675144  1.0000
  H   H13       1.0  0.9339858634774786  0.5967203715439928  0.7756002772248001  1.0000
  H   H14       1.0  0.9351443566902924  0.8204019791692969  0.1316849027369611  1.0000
  H   H15       1.0  0.9043605387425395  0.8378685577107329  0.9001838920772567  1.0000
  H   H16       1.0  0.7466284954977864  0.14042461990459887  0.9689189891657399  1.0000
  H   H17       1.0  0.7758855827407766  0.12220785633485254  0.20107894279871075  1.0000
  H   H18       1.0  0.7461006403119734  0.03633582590821849  0.3214253949417727  1.0000
  C   C31       1.0  0.9018646157630444  0.4438364903728256  0.14358064830426964  1.0000
  C   C32       1.0  0.8236128343377597  0.4239529181583608  0.14739505502612205  1.0000
  C   C33       1.0  0.7840977133557131  0.41376627774111596  0.03217933086198754  1.0000
  C   C34       1.0  0.823836018530848  0.4237495953684034  0.9121174898442526  1.0000
  C   C35       1.0  0.9020387646319679  0.4436281802562103  0.9063566772413463  1.0000
  C   C36       1.0  0.9405964085779092  0.4535497871408223  0.02263978393617938  1.0000
  C   C37       1.0  0.7013680570887283  0.3927502456126959  0.03725830914130612  1.0000
  C   C38       1.0  0.667552272911444  0.3049416304893908  0.9577571530210074  1.0000
  C   C39       1.0  0.5897002133284911  0.28525772081114265  0.9625689038605478  1.0000
  C   C40       1.0  0.5442772126494893  0.3523395437859984  0.04747849789291503  1.0000
  C   C41       1.0  0.5776910645458443  0.4409840046791238  0.12602123796623466  1.0000
  C   C42       1.0  0.6555423672518346  0.4606720946658276  0.12135747122028451  1.0000
  C   C43       1.0  0.4604088595850305  0.3334837151651069  0.050314965281186286  1.0000
  C   C44       1.0  0.4266353982917114  0.42643789209870997  0.9544321784133647  1.0000
  C   C45       1.0  0.3988786534707294  0.5028744172603301  0.8755893461351865  1.0000
  H   H19       1.0  0.04962040830251402  0.4805723682661738  0.343733381156875  1.0000
  H   H20       1.0  0.7933941616757386  0.41459256652458754  0.24033886997307685  1.0000
  H   H21       1.0  0.7935097107712541  0.4177737401352748  0.8228948415865229  1.0000
  H   H22       1.0  0.0009165529120502836  0.4688789597122056  0.01891203024656951  1.0000
  H   H23       1.0  0.9321212409503533  0.4512327848047386  0.5766683857369612  1.0000
  H   H24       1.0  0.7014023087291752  0.2503944026726319  0.892837282080015  1.0000
  H   H25       1.0  0.5648182109205605  0.21749133430547674  0.900192723298809  1.0000
  H   H26       1.0  0.543402264948384  0.4952113592656342  0.19061660255260104  1.0000
  H   H27       1.0  0.6798119163116024  0.5305309956105282  0.18211995141358517  1.0000
  H   H28       1.0  0.4454012789592226  0.23287012633342363  0.0276082604489285  1.0000
  H   H29       1.0  0.43649698024208616  0.34834854352452105  0.14863956796088185  1.0000
  H   H30       1.0  0.374531662482781  0.5699836327946126  0.80637156401417  1.0000
  Zn  Zn1       1.0  0.8196332502310523  0.4417323091496881  0.5287910025255083  1.0000
  Zn  Zn2       1.0  0.9842629635484003  0.4457315886166626  0.5211460908802135  1.0000
  C   C46       1.0  0.9020034661634733  0.43849339886756766  0.7621779808246567  1.0000
  C   C47       1.0  0.9018945456261335  0.44897218130079763  0.28775915587381995  1.0000
  C   C48       1.0  0.9019799036985953  0.6809468148624691  0.5196924065071526  1.0000
  C   C49       1.0  0.9019180517114902  0.20651720348144442  0.5302448027066313  1.0000
  O   O1        1.0  0.9643807077963654  0.4522078055630614  0.3332455783865331  1.0000
  O   O2        1.0  0.964467446906139  0.4382921554764614  0.7108888738168697  1.0000
  O   O3        1.0  0.964447578018172  0.6340763343061318  0.5150800954648862  1.0000
  O   O4        1.0  0.9644005204864295  0.256423634686344  0.529054261963702  1.0000
  O   O5        1.0  0.83949563711298  0.6310402617166646  0.5208828340440208  1.0000
  O   O6        1.0  0.839515506200426  0.4352576433481037  0.7166915424826987  1.0000
  O   O7        1.0  0.839428766777719  0.44917324860231944  0.33904668559036955  1.0000
  O   O8        1.0  0.8394485794856433  0.25338906840930653  0.5348554665443546  1.0000
