data_image0
_chemical_formula_structural       NC10NC5H10C12NH11C13OH12Zn2C4O8
_chemical_formula_sum              "N3 C44 H33 O9 Zn2"
_cell_length_a       19.4436361288709
_cell_length_b       10.299770795358612
_cell_length_c       10.299153481560891
_cell_angle_alpha    85.5776922204699
_cell_angle_beta     89.72153825952512
_cell_angle_gamma    89.43566516156574

_space_group_name_H-M_alt    "P 1"
_space_group_IT_number       1

loop_
  _space_group_symop_operation_xyz
  'x, y, z'

loop_
  _atom_site_type_symbol
  _atom_site_label
  _atom_site_symmetry_multiplicity
  _atom_site_fract_x
  _atom_site_fract_y
  _atom_site_fract_z
  _atom_site_occupancy
  N   N1        1.0  0.6476506891979799  0.40876224856134025  0.5619917414255404  1.0000
  C   C1        1.0  0.5888194261297595  0.418666889790001  0.5763752501666564  1.0000
  C   C2        1.0  0.515495980683273  0.43101931567065677  0.5943669866252845  1.0000
  C   C3        1.0  0.4732867980318565  0.3990040755818405  0.499694259397766  1.0000
  C   C4        1.0  0.3973849276674144  0.40944331985997784  0.5050217462201099  1.0000
  C   C5        1.0  0.3576644586195703  0.3847166793403025  0.612096809678919  1.0000
  C   C6        1.0  0.2815417827038914  0.38863071733216126  0.5991370551255479  1.0000
  C   C7        1.0  0.241007939737539  0.44630995450947  0.6929051343740373  1.0000
  C   C8        1.0  0.169342882407594  0.4499456040746481  0.6823609002656559  1.0000
  C   C9        1.0  0.1372169101699295  0.39550606483093675  0.5783351409580839  1.0000
  C   C10       1.0  0.0634225849588399  0.3992029266094361  0.5676356194673295  1.0000
  N   N2        1.0  0.0040969526771961  0.4021750095206591  0.5590339135513009  1.0000
  C   C11       1.0  0.1770258309799262  0.3371198186806086  0.4849503442492096  1.0000
  C   C12       1.0  0.2487072553701058  0.33342989617177365  0.4952428016829171  1.0000
  C   C13       1.0  0.3858185968731597  0.3442820109145881  0.743195287649516  1.0000
  C   C14       1.0  0.4444990400130459  0.3874127687335909  0.7904356118362652  1.0000
  C   C15       1.0  0.48870626433477143  0.4852554772774058  0.7160613812964991  1.0000
  H   H1        1.0  0.4953620805525247  0.3698695222917616  0.40938830698718975  1.0000
  H   H2        1.0  0.3726703659175193  0.431919496707319  0.41186104912765553  1.0000
  H   H3        1.0  0.2649023730998654  0.48961631028835995  0.7737516241544569  1.0000
  H   H4        1.0  0.1390206938699107  0.495274112287436  0.755279718184819  1.0000
  H   H5        1.0  0.1526596169344254  0.2940091842244812  0.4044383288181994  1.0000
  H   H6        1.0  0.2783636183604757  0.285858155918008  0.42302046220426015  1.0000
  H   H7        1.0  0.3548565116431907  0.280078138287029  0.8074468160431538  1.0000
  H   H8        1.0  0.4596642739174034  0.3533650683987861  0.8883731571585414  1.0000
  H   H9        1.0  0.45860633990153765  0.5759639484336201  0.6908036218542912  1.0000
  H   H10       1.0  0.5320087674501203  0.5108536089825837  0.7791454339505703  1.0000
  C   C16       1.0  0.82581479025204  0.02410120003652927  0.56055293443077  1.0000
  C   C17       1.0  0.8058318601775734  0.033596511284757824  0.42930720599370775  1.0000
  C   C18       1.0  0.7957694320947177  0.921270523759918  0.36276834174718076  1.0000
  C   C19       1.0  0.8059577381750033  0.7983125459097723  0.4292376080191511  1.0000
  C   C20       1.0  0.8259394236756454  0.7868259660546517  0.5604838973357908  1.0000
  C   C21       1.0  0.8357563864337751  0.900276843849657  0.6254064710509772  1.0000
  C   C22       1.0  0.774628953012478  0.9323694115511879  0.2239179762050183  1.0000
  C   C23       1.0  0.7245406859157711  0.02445601910237749  0.17914605376871395  1.0000
  C   C24       1.0  0.7046727578528148  0.03477252159437216  0.04845878412079019  1.0000
  C   C25       1.0  0.734517179765432  0.9534280280583661  0.960466399331307  1.0000
  C   C26       1.0  0.7844402646221414  0.8615422210038715  0.004349125888828631  1.0000
  C   C27       1.0  0.8043632847795182  0.8509686633889921  0.1350059651079345  1.0000
  N   N3        1.0  0.7141655607507492  0.9641124057681814  0.8267986119184694  1.0000
  H   H11       1.0  0.833399963538244  0.34793585209053  0.6105810168880295  1.0000
  H   H12       1.0  0.798957800918521  0.12860960938874744  0.3780115584591348  1.0000
  H   H13       1.0  0.7973573565818138  0.7114236523065295  0.37889639684509624  1.0000
  H   H14       1.0  0.8511717890405353  0.8921836148774971  0.726656742600517  1.0000
  H   H15       1.0  0.8335832726222857  0.4549960477806225  0.6104798712102275  1.0000
  H   H16       1.0  0.7000846684234657  0.08734387285303535  0.2455527944853768  1.0000
  H   H17       1.0  0.6658908681828848  0.10595805474776543  0.015868738853924258  1.0000
  H   H18       1.0  0.8080455820802362  0.7983242753672547  0.9372601651612857  1.0000
  H   H19       1.0  0.8436722184629616  0.7802831225130789  0.16615208187037966  1.0000
  H   H20       1.0  0.7361201701712102  0.9038865832215466  0.7604762401726286  1.0000
  H   H21       1.0  0.6769933559364558  0.03232778884199372  0.7931720327554928  1.0000
  C   C28       1.0  0.8258180159718457  0.405317239083099  0.17914639279589073  1.0000
  C   C29       1.0  0.7547052414006293  0.3822512756845069  0.18041013883734314  1.0000
  C   C30       1.0  0.718774348652658  0.3707168075561029  0.06388227713681638  1.0000
  C   C31       1.0  0.7548675645305263  0.3825655739294591  0.9451007960091737  1.0000
  C   C32       1.0  0.8259362179130268  0.40560991856006745  0.9418904707075355  1.0000
  C   C33       1.0  0.860996469330445  0.4168475876146096  0.05945019602327606  1.0000
  C   C34       1.0  0.6435906104717404  0.3463434871384994  0.06619143992961551  1.0000
  C   C35       1.0  0.600101960613138  0.41238374288357527  0.9738788671327288  1.0000
  C   C36       1.0  0.5293496319150456  0.38949095221701313  0.9761298765116715  1.0000
  C   C37       1.0  0.500894950996969  0.29930482982853723  0.0698340818098171  1.0000
  C   C38       1.0  0.5439223778103663  0.2343693742360573  0.16306891444107152  1.0000
  C   C39       1.0  0.614677964471903  0.257232457393169  0.16099603032916887  1.0000
  C   C40       1.0  0.42467215902398103  0.2774268386179408  0.0743850549660936  1.0000
  O   O1        1.0  0.393794435567548  0.36558526420757964  0.15414065027718804  1.0000
  H   H22       1.0  0.9599595673422398  0.449686634884344  0.3839900292251808  1.0000
  H   H23       1.0  0.7269750215296593  0.3750000555594626  0.27211651625562117  1.0000
  H   H24       1.0  0.7275773007171901  0.37201766948406667  0.8551491161445304  1.0000
  H   H25       1.0  0.9158134767109146  0.4346260326477198  0.05768979953670694  1.0000
  H   H26       1.0  0.8532626364575466  0.41455966763248164  0.6131736824657539  1.0000
  H   H27       1.0  0.6206732289718592  0.4832595743522512  0.9011441515330194  1.0000
  H   H28       1.0  0.4967255888042162  0.4423740059170329  0.9049150979133325  1.0000
  H   H29       1.0  0.5227172612187444  0.16571164621776102  0.23724857357629237  1.0000
  H   H30       1.0  0.6468886176805269  0.20415654360464885  0.23273747056387806  1.0000
  H   H31       1.0  0.41373947758220037  0.17584176796213447  0.11330373115165138  1.0000
  H   H32       1.0  0.4029042572248343  0.29119435602393295  0.97443363258592  1.0000
  H   H33       1.0  0.3437932801118498  0.34715575763911444  0.15385390105206964  1.0000
  Zn  Zn1       1.0  0.7505133830386972  0.40685784519356627  0.5611456887085606  1.0000
  Zn  Zn2       1.0  0.9012342502732833  0.40406880934692113  0.5598906484953075  1.0000
  C   C41       1.0  0.8259114822700285  0.400380966567897  0.7977160011311601  1.0000
  C   C42       1.0  0.825837797196656  0.4105472961782637  0.32332044968699125  1.0000
  C   C43       1.0  0.8259115272692181  0.6426528223345134  0.5553218007662939  1.0000
  C   C44       1.0  0.8258377005227263  0.16827388109365904  0.5657147198604435  1.0000
  O   O2        1.0  0.8830422186576834  0.41123846082947413  0.37123029951815667  1.0000
  O   O3        1.0  0.8831007113785524  0.3975720083809928  0.7488532310573004  1.0000
  O   O4        1.0  0.883099976871728  0.5932096106445746  0.5531182055819399  1.0000
  O   O5        1.0  0.8830429017201153  0.21560086877042162  0.5669652280454696  1.0000
  O   O6        1.0  0.7687046801582298  0.5953257867232382  0.5540711095798503  1.0000
  O   O7        1.0  0.7687054149061583  0.39968974473081764  0.7498060656680767  1.0000
  O   O8        1.0  0.7686469219816976  0.413356151323526  0.37218157271913577  1.0000
  O   O9        1.0  0.7686476050548862  0.21771855001311669  0.5679165986159491  1.0000
