data_image0
_chemical_formula_structural       NC12NC2H8C12SCH12C12BrH9Zn2C4O8
_chemical_formula_sum              "N2 C43 H29 S1 Br1 Zn2 O8"
_cell_length_a       17.80743265337812
_cell_length_b       10.299776766347529
_cell_length_c       10.299148005577397
_cell_angle_alpha    85.55397783742741
_cell_angle_beta     91.50743167608279
_cell_angle_gamma    89.41689066054833

_space_group_name_H-M_alt    "P 1"
_space_group_IT_number       1

loop_
  _space_group_symop_operation_xyz
  'x, y, z'

loop_
  _atom_site_type_symbol
  _atom_site_label
  _atom_site_symmetry_multiplicity
  _atom_site_fract_x
  _atom_site_fract_y
  _atom_site_fract_z
  _atom_site_occupancy
  N   N1        1.0  0.7075258554394361  0.4068203246292206  0.6013478634933165  1.0000
  C   C1        1.0  0.6567184914165461  0.4363860498736132  0.5326486001674229  1.0000
  C   C2        1.0  0.5935091139280186  0.4731636655929532  0.4471953647100839  1.0000
  C   C3        1.0  0.6052588244204099  0.5271971163215337  0.3205746286108746  1.0000
  C   C4        1.0  0.5439564545914367  0.5624709030485195  0.23751737784173566  1.0000
  C   C5        1.0  0.4707501945779916  0.5439747701657665  0.28042095529305766  1.0000
  C   C6        1.0  0.45802361062067176  0.48982246887625425  0.40750984031796134  1.0000
  C   C7        1.0  0.5201833002511671  0.45455193773359825  0.4905505791410403  1.0000
  C   C8        1.0  0.3802486043129932  0.47021192029193015  0.45327373699346674  1.0000
  C   C9        1.0  0.3614246934771966  0.4973851533264748  0.5803219059400655  1.0000
  C   C10       1.0  0.2881884691647721  0.47893058938949484  0.623266048675098  1.0000
  C   C11       1.0  0.23283301749157853  0.4330484366332825  0.5400000008678061  1.0000
  C   C12       1.0  0.1574599300856312  0.4140409073863529  0.5843450831392785  1.0000
  N   N2        1.0  0.09686530541473741  0.39876013222543105  0.6199954786390849  1.0000
  C   C13       1.0  0.2509653267963174  0.4057062367662809  0.41349480775259484  1.0000
  C   C14       1.0  0.3241487592568499  0.42417561210164645  0.3702947727526591  1.0000
  H   H1        1.0  0.6617305843551956  0.5420242997117759  0.2861373769762472  1.0000
  H   H2        1.0  0.5531718030438675  0.6045776663740785  0.13973758004296433  1.0000
  H   H3        1.0  0.42412216615801007  0.5736167881469594  0.21482971058559608  1.0000
  H   H4        1.0  0.5116666321404922  0.41105988589879794  0.5882058807749961  1.0000
  H   H5        1.0  0.4030770835209192  0.534557572373819  0.6458977765689393  1.0000
  H   H6        1.0  0.27471565862308633  0.5007660845949022  0.7212778987206225  1.0000
  H   H7        1.0  0.20859570869360042  0.3698010510714458  0.3483319446340061  1.0000
  H   H8        1.0  0.33709339122677223  0.4008045471153514  0.2725862120988667  1.0000
  C   C15       1.0  0.9022700117073151  0.021423561582536887  0.6106736216254594  1.0000
  C   C16       1.0  0.9067477295478451  0.009749691537460192  0.7474080722606276  1.0000
  C   C17       1.0  0.9089442933660931  0.8866973243172956  0.8166944012313262  1.0000
  C   C18       1.0  0.9066040745948306  0.7744648869618763  0.7474163828544915  1.0000
  C   C19       1.0  0.9021283633808269  0.7841467680612868  0.6106812789119827  1.0000
  C   C20       1.0  0.8999859632164845  0.9080643351375228  0.5430752829670606  1.0000
  C   C21       1.0  0.9136729345445054  0.8754117645295764  0.9613436256018586  1.0000
  C   C22       1.0  0.8706571677598479  0.7828313309998927  0.033329362356709136  1.0000
  C   C23       1.0  0.8751299359132302  0.7724442877550081  0.1694589598857289  1.0000
  C   C24       1.0  0.9224306768779135  0.8543627406274443  0.23540057914458368  1.0000
  C   C25       1.0  0.9656253540176297  0.9463654883670846  0.16479653750008216  1.0000
  C   C26       1.0  0.9612627478594137  0.9571001412640125  0.028661800757501577  1.0000
  S   S1        1.0  0.9282526980490075  0.8405724823621824  0.4100775495091489  1.0000
  C   C27       1.0  0.8527559297199828  0.9581944751373609  0.425991186796996  1.0000
  H   H9        1.0  0.9005933535927856  0.3533247060850553  0.5585730046237567  1.0000
  H   H10       1.0  0.9075013947848803  0.09655764105850206  0.8004048647995421  1.0000
  H   H11       1.0  0.9093166206898089  0.6793875036383931  0.8003108516800386  1.0000
  H   H12       1.0  0.8965321079385334  0.9163017305886111  0.43759049283070217  1.0000
  H   H13       1.0  0.9003854063732344  0.46038301027727835  0.5585821524694152  1.0000
  H   H14       1.0  0.8328518331673916  0.7196566016675552  0.984402428703907  1.0000
  H   H15       1.0  0.8415270029483771  0.7010697476910485  0.22357351763469746  1.0000
  H   H16       1.0  0.0026307034757568903  0.009612429130080757  0.21527416097858776  1.0000
  H   H17       1.0  0.9958134757617662  0.02808590856853921  0.9760057438281631  1.0000
  H   H18       1.0  0.8678082119455824  0.05421950506045392  0.3778322826217422  1.0000
  H   H19       1.0  0.8440225341028851  0.9690397224436881  0.5308568737709519  1.0000
  H   H20       1.0  0.7999038259690033  0.9237621042662328  0.38133584479359695  1.0000
  C   C28       1.0  0.9023015640119959  0.4028350889464294  0.22929414909150436  1.0000
  C   C29       1.0  0.8316260381862796  0.4650774895063543  0.2204732286241673  1.0000
  C   C30       1.0  0.7956862652736162  0.4965846419556619  0.09885750058850329  1.0000
  C   C31       1.0  0.8313753196494339  0.46500987557958307  0.9851841840654467  1.0000
  C   C32       1.0  0.9020967733690884  0.4027352576884111  0.992060692011365  1.0000
  C   C33       1.0  0.9371242748012729  0.37202935826570904  0.11451856793433968  1.0000
  C   C34       1.0  0.7209206252603811  0.5624315107599067  0.09057097327966157  1.0000
  C   C35       1.0  0.7051214297819681  0.6640754292536222  0.16989418950123536  1.0000
  C   C36       1.0  0.6347180907605308  0.7259413412316214  0.16189846036869637  1.0000
  C   C37       1.0  0.5793136599633616  0.6871449885510497  0.07487943982101597  1.0000
  C   C38       1.0  0.5943581650036689  0.5863035521763313  0.995667626896287  1.0000
  C   C39       1.0  0.664697674971516  0.5242169981848457  0.003267756254670795  1.0000
  Br  Br1       1.0  0.483186889706759  0.7718049268745029  0.0642267302323758  1.0000
  H   H21       1.0  0.9295017477609445  0.37894634673627503  0.5601592787417786  1.0000
  H   H22       1.0  0.8039002828813634  0.48759751110543115  0.30848521709594734  1.0000
  H   H23       1.0  0.8043906535504185  0.49066324725726584  0.8910757411033394  1.0000
  H   H24       1.0  0.9916391585804454  0.32402415715250354  0.12060637434147603  1.0000
  H   H25       1.0  0.03578943959004266  0.28592607408633053  0.7977008974653259  1.0000
  H   H26       1.0  0.7475045974033255  0.6968148093881223  0.23683236408247788  1.0000
  H   H27       1.0  0.6233588032617193  0.8042421247722871  0.22316038002018357  1.0000
  H   H28       1.0  0.5515301861095198  0.5557253471963131  0.9284011875136962  1.0000
  H   H29       1.0  0.6748000055499316  0.4452529514027226  0.9421467151356309  1.0000
  Zn  Zn1       1.0  0.8198808124799334  0.40449085897217363  0.6067366495936071  1.0000
  Zn  Zn2       1.0  0.9845103450040128  0.4010790031010387  0.6146172858830858  1.0000
  C   C40       1.0  0.9021347776163625  0.3975805081586261  0.8478813794114721  1.0000
  C   C41       1.0  0.9022581772783723  0.4079909552501728  0.3734727696091804  1.0000
  C   C42       1.0  0.9021526403873231  0.6399766103480005  0.6055042605436465  1.0000
  C   C43       1.0  0.9022402586020887  0.16559329392286015  0.6158499550135188  1.0000
  O   O1        1.0  0.9647196669654784  0.40842086385206233  0.4248510920877451  1.0000
  O   O2        1.0  0.9646232941292988  0.3945601002278991  0.8024839036611786  1.0000
  O   O3        1.0  0.9646368759731763  0.5902980355404401  0.6067626250144791  1.0000
  O   O4        1.0  0.9647060289691103  0.21268293900666868  0.6205722706670718  1.0000
  O   O5        1.0  0.8396850723348577  0.5928869242322574  0.6007816621135156  1.0000
  O   O6        1.0  0.8396714902163249  0.39715054922336845  0.7965028715275961  1.0000
  O   O7        1.0  0.8397678635300763  0.41101126779518893  0.41886849849656294  1.0000
  O   O8        1.0  0.8397542255062205  0.21527333364836188  0.6145897744471567  1.0000
