data_image0
_chemical_formula_structural       NC8NC6H8C12NH11C12OCH12Zn2C4O8
_chemical_formula_sum              "N3 C43 H31 O9 Zn2"
_cell_length_a       17.457602349358154
_cell_length_b       10.299770795358612
_cell_length_c       10.299794127170987
_cell_angle_alpha    85.57261220462476
_cell_angle_beta     92.8688978689242
_cell_angle_gamma    91.70596819880058

_space_group_name_H-M_alt    "P 1"
_space_group_IT_number       1

loop_
  _space_group_symop_operation_xyz
  'x, y, z'

loop_
  _atom_site_type_symbol
  _atom_site_label
  _atom_site_symmetry_multiplicity
  _atom_site_fract_x
  _atom_site_fract_y
  _atom_site_fract_z
  _atom_site_occupancy
  N   N1        1.0  0.7227829100293393  0.45243212365200836  0.6264672329263674  1.0000
  C   C1        1.0  0.6616973248881244  0.40650375936374816  0.6158554515492598  1.0000
  C   C2        1.0  0.5857042743342816  0.3493745913652002  0.6026639365713435  1.0000
  C   C3        1.0  0.5271778903537234  0.3895583873451802  0.6775548619554912  1.0000
  C   C4        1.0  0.4526232670405262  0.33454766375362355  0.6649775968867191  1.0000
  C   C5        1.0  0.3905060959367601  0.37697590379550205  0.7442899367157403  1.0000
  C   C6        1.0  0.315966578272233  0.39542801576543796  0.6885278654264022  1.0000
  C   C7        1.0  0.2574401506045101  0.43542791766970446  0.76352675270366  1.0000
  C   C8        1.0  0.1814627382161195  0.4544852353865545  0.7055492870885545  1.0000
  N   N2        1.0  0.12038981398996898  0.46980093917197996  0.6589355562476311  1.0000
  C   C9        1.0  0.2729610877544602  0.4572189980201169  0.8947961852101127  1.0000
  C   C10       1.0  0.3467159460463942  0.4391559864478236  0.9509458062240923  1.0000
  C   C11       1.0  0.4052307705936284  0.39933627288381257  0.8764046038388149  1.0000
  C   C12       1.0  0.43788364717493  0.23867530507590518  0.5760766091928406  1.0000
  C   C13       1.0  0.4963983366982658  0.19877030632517867  0.5015856462959241  1.0000
  C   C14       1.0  0.5701681775637768  0.2538935664484132  0.5147128251209976  1.0000
  H   H1        1.0  0.5395311215309156  0.46477227836146917  0.7441766367507732  1.0000
  H   H2        1.0  0.3036257631825398  0.3804278918053614  0.5865096356320219  1.0000
  H   H3        1.0  0.22810175777226674  0.4881190024136619  0.953626765684918  1.0000
  H   H4        1.0  0.3585433593543293  0.45571366320448425  0.05259067870010892  1.0000
  H   H5        1.0  0.4617105271270005  0.38435793018892705  0.9225098462903947  1.0000
  H   H6        1.0  0.3813914499964449  0.19333659894468913  0.5654286689871901  1.0000
  H   H7        1.0  0.4845592000538578  0.12467252755936431  0.43376552778795197  1.0000
  H   H8        1.0  0.6150273582761817  0.2221240127148385  0.4563934083938095  1.0000
  C   C15       1.0  0.9215205028269386  0.07974511134308848  0.642735607776401  1.0000
  C   C16       1.0  0.8992616667916616  0.08791049283416186  0.5095136951151038  1.0000
  C   C17       1.0  0.8880533118394136  0.9749148623947927  0.4419797547158859  1.0000
  C   C18       1.0  0.8994020970488552  0.8526349942828866  0.5094566129121669  1.0000
  C   C19       1.0  0.921659544660648  0.8424782604848868  0.6426789627173566  1.0000
  C   C20       1.0  0.9325944786142933  0.9565824450774909  0.7085723379391613  1.0000
  C   C21       1.0  0.8645050911168606  0.9846067819302425  0.3010387308903246  1.0000
  C   C22       1.0  0.8086437549023027  0.07333155907888345  0.25129207867584746  1.0000
  C   C23       1.0  0.786513066118875  0.08232580517299404  0.11864001253643641  1.0000
  C   C24       1.0  0.8198248879679412  0.0029958281032995693  0.033620355827589155  1.0000
  C   C25       1.0  0.8755021818290921  0.9144608385480923  0.08246146201318827  1.0000
  C   C26       1.0  0.8976943316798855  0.9052132429403762  0.21508857540695558  1.0000
  N   N3        1.0  0.797155372217834  0.012325738648421458  0.8979399232490826  1.0000
  H   H9        1.0  0.9299695200883061  0.40408456078759714  0.6935137997373677  1.0000
  H   H10       1.0  0.8916061830653933  0.18246671164274297  0.4575387081697109  1.0000
  H   H11       1.0  0.8898207176705439  0.7651731052513802  0.45826441790915307  1.0000
  H   H12       1.0  0.9497655791782593  0.9495151615230449  0.8113470941351257  1.0000
  H   H13       1.0  0.9301740207643953  0.5111570862187874  0.6934308800619935  1.0000
  H   H14       1.0  0.7813477471689233  0.13456918418930042  0.31526324426590846  1.0000
  H   H15       1.0  0.7432607573294657  0.1509081641246639  0.0821980228648489  1.0000
  H   H16       1.0  0.9018494208028844  0.8528360163800953  0.017723579646395704  1.0000
  H   H17       1.0  0.9415348913121018  0.8371664411054127  0.25013912585637965  1.0000
  H   H18       1.0  0.8216611064505964  0.953582023954896  0.8338045145640032  1.0000
  H   H19       1.0  0.7556988728770082  0.07804623295893487  0.8606214580887337  1.0000
  C   C27       1.0  0.9216158832983248  0.460999334919977  0.26135799855578634  1.0000
  C   C28       1.0  0.8464281445894715  0.4085923701279126  0.2580292398557591  1.0000
  C   C29       1.0  0.8083088438406381  0.38213901451197785  0.13919393321455154  1.0000
  C   C30       1.0  0.8463760272079409  0.4088165595209057  0.022720072170453465  1.0000
  C   C31       1.0  0.9215641955832549  0.4612240505086691  0.024056604076620802  1.0000
  C   C32       1.0  0.9587638797866803  0.4870191319410928  0.14386096326777364  1.0000
  C   C33       1.0  0.728766670662631  0.3266884153045486  0.13672717185087513  1.0000
  C   C34       1.0  0.6738523416816712  0.37295650697281313  0.04109024814152762  1.0000
  C   C35       1.0  0.5990950388887932  0.32076098896598393  0.03904123989951369  1.0000
  C   C36       1.0  0.5781654704132876  0.22191312423550769  0.132027571557656  1.0000
  C   C37       1.0  0.6323226554976866  0.17420736572779205  0.22846537486031204  1.0000
  C   C38       1.0  0.7071843644772511  0.2270469885349755  0.23007147613683898  1.0000
  O   O1        1.0  0.6142462014048332  0.07484516855406964  0.3238197030261898  1.0000
  C   C39       1.0  0.5406952688316835  0.012358854833699473  0.33385607098532044  1.0000
  H   H20       1.0  0.9502758303466915  0.4809107706347213  0.5900847943719709  1.0000
  H   H21       1.0  0.8169502868710345  0.389875903927952  0.3479006744421069  1.0000
  H   H22       1.0  0.8176126947958444  0.38696570219702564  0.9310415846331574  1.0000
  H   H23       1.0  0.01676838249552448  0.5274480761236529  0.14566059576019752  1.0000
  H   H24       1.0  0.9501986760678266  0.481254168229605  0.697107240216627  1.0000
  H   H25       1.0  0.6884570391832804  0.4506603430860534  0.9689572859909426  1.0000
  H   H26       1.0  0.557155346371567  0.3573241920153405  0.965275175664897  1.0000
  H   H27       1.0  0.5198738436350993  0.18333266442994645  0.12809918102155615  1.0000
  H   H28       1.0  0.7487855484161149  0.18871898434800038  0.3036362876509564  1.0000
  H   H29       1.0  0.5248734023720597  0.963212117910148  0.24370785345841428  1.0000
  H   H30       1.0  0.5426531015859564  0.9379687949211288  0.4176944726514513  1.0000
  H   H31       1.0  0.49701218656467366  0.08470873080398755  0.35055938446311985  1.0000
  Zn  Zn1       1.0  0.8375236726195062  0.45744090810631  0.635844388023997  1.0000
  Zn  Zn2       1.0  0.005649034487867022  0.4647815099560906  0.6495690339210063  1.0000
  C   C40       1.0  0.9215712888714493  0.45600776747879856  0.879890493173553  1.0000
  C   C41       1.0  0.9216032544497303  0.4662163694112531  0.40552320598246494  1.0000
  C   C42       1.0  0.921629669187136  0.6983037557974654  0.6375144808696862  1.0000
  C   C43       1.0  0.9215448164754669  0.22391881829473959  0.6478992829539194  1.0000
  O   O2        1.0  0.9854017136962513  0.4707473082101037  0.45911479857202875  1.0000
  O   O3        1.0  0.9853760889736886  0.45704719579453346  0.836715215499011  1.0000
  O   O4        1.0  0.985422371634474  0.6527042334578184  0.6409948003997727  1.0000
  O   O5        1.0  0.9853553736739641  0.2750902773035695  0.6548351116176234  1.0000
  O   O6        1.0  0.8578172760604753  0.647132138255256  0.6305783056370013  1.0000
  O   O7        1.0  0.8577709936853326  0.4514766608862426  0.8262986513782726  1.0000
  O   O8        1.0  0.8577966185565343  0.4651767275877903  0.4486966731383908  1.0000
  O   O9        1.0  0.8577502785228147  0.2695196874209298  0.6444170835472505  1.0000
