data_image0
_chemical_formula_structural       NC12NC2H8C12SCH12C12IH9Zn2C4O8
_chemical_formula_sum              "N2 C43 H29 S1 I1 Zn2 O8"
_cell_length_a       17.80743265337812
_cell_length_b       10.299776766347529
_cell_length_c       10.29977335064465
_cell_angle_alpha    85.54589617011163
_cell_angle_beta     91.54321816322954
_cell_angle_gamma    89.41689066054833

_space_group_name_H-M_alt    "P 1"
_space_group_IT_number       1

loop_
  _space_group_symop_operation_xyz
  'x, y, z'

loop_
  _atom_site_type_symbol
  _atom_site_label
  _atom_site_symmetry_multiplicity
  _atom_site_fract_x
  _atom_site_fract_y
  _atom_site_fract_z
  _atom_site_occupancy
  N   N1        1.0  0.7070189408383577  0.4070289884847129  0.6013932625712004  1.0000
  C   C1        1.0  0.6561866780870745  0.4366049629202955  0.5326962291659032  1.0000
  C   C2        1.0  0.5929463297147709  0.4733953273432687  0.4472457674490753  1.0000
  C   C3        1.0  0.6046501489535385  0.5274476685237997  0.32062914135299625  1.0000
  C   C4        1.0  0.5433176766194165  0.5627338464992737  0.23757458655271102  1.0000
  C   C5        1.0  0.4701269661835119  0.5442313128642167  0.2804767713898131  1.0000
  C   C6        1.0  0.4574464431514015  0.49006005127996977  0.4075615312158638  1.0000
  C   C7        1.0  0.519636229302608  0.4547771313522304  0.49059957460605297  1.0000
  C   C8        1.0  0.3796880230890242  0.4704426752144777  0.4533239424335809  1.0000
  C   C9        1.0  0.3609101584216768  0.4975969540286882  0.580367987502936  1.0000
  C   C10       1.0  0.2876894983889006  0.47913598328750084  0.6233107363070332  1.0000
  C   C11       1.0  0.2323038685360825  0.4332662529300484  0.5400473912459718  1.0000
  C   C12       1.0  0.15694685315340862  0.4142521078737995  0.5843910341131839  1.0000
  N   N2        1.0  0.0963651492835784  0.39896601405730925  0.6200402724309868  1.0000
  C   C13       1.0  0.2503903284635327  0.40594292627722695  0.41354630438346285  1.0000
  C   C14       1.0  0.3235581039011808  0.4244187465931739  0.3703476716205112  1.0000
  H   H1        1.0  0.6611094277679519  0.5422799895815944  0.28619300752273835  1.0000
  H   H2        1.0  0.5524975866623234  0.6048551975189889  0.13979796260434885  1.0000
  H   H3        1.0  0.4234751654767856  0.57388311635365  0.21488765571926471  1.0000
  H   H4        1.0  0.5111549544802131  0.41127051039676266  0.5882517064306412  1.0000
  H   H5        1.0  0.4025863151801047  0.5347595898614392  0.6459417295939265  1.0000
  H   H6        1.0  0.27425221035961783  0.5009568561790523  0.721319404969927  1.0000
  H   H7        1.0  0.2079970933327494  0.37004746218070617  0.34838555639687874  1.0000
  H   H8        1.0  0.33646732328011425  0.4010622586732191  0.27264228250482914  1.0000
  C   C15       1.0  0.9017664770481392  0.021630834135219823  0.6107187179970386  1.0000
  C   C16       1.0  0.9062937516638586  0.009936564780762547  0.7474487303463662  1.0000
  C   C17       1.0  0.9085154269811662  0.8868738607855282  0.8167328103408089  1.0000
  C   C18       1.0  0.9061500997228593  0.7746517589653276  0.7474570406704752  1.0000
  C   C19       1.0  0.9016248314968873  0.7843540394715848  0.6107263750350134  1.0000
  C   C20       1.0  0.8994579288379141  0.9082816926352761  0.5431225735241427  1.0000
  C   C21       1.0  0.9132964934924789  0.8755667208893149  0.9613773395185683  1.0000
  C   C22       1.0  0.870306816555381  0.7829755478619539  0.033360739676645434  1.0000
  C   C23       1.0  0.8748289222665627  0.7725681955452668  0.16948591855284978  1.0000
  C   C24       1.0  0.922153562504517  0.8544768106373478  0.23542539740192714  1.0000
  C   C25       1.0  0.9653226505655261  0.9464900917406163  0.1648236475055319  1.0000
  C   C26       1.0  0.9609107049869011  0.957245054476062  0.028693329582580973  1.0000
  S   S1        1.0  0.9280388919882633  0.8406604924468546  0.41009669789821324  1.0000
  C   C27       1.0  0.8525478912513988  0.9582801110785101  0.42600981864271115  1.0000
  H   H9        1.0  0.9000709360657442  0.3535397514894236  0.5586197921377631  1.0000
  H   H10       1.0  0.9070666245703688  0.09673660775036752  0.8004438026537453  1.0000
  H   H11       1.0  0.908881816402048  0.6795664843560048  0.8003497925858287  1.0000
  H   H12       1.0  0.895965842623967  0.9165348252825055  0.4376412073357967  1.0000
  H   H13       1.0  0.8998629921616538  0.46059805431688683  0.5586289396864905  1.0000
  H   H14       1.0  0.832483749335628  0.7198081179018812  0.9844353941511648  1.0000
  H   H15       1.0  0.8412456020837146  0.7011855821713228  0.22359871978855994  1.0000
  H   H16       1.0  0.0023462946686916286  0.009729501785104233  0.21529963252262174  1.0000
  H   H17       1.0  0.9954423487128556  0.028238677497937514  0.9760389818247854  1.0000
  H   H18       1.0  0.8675827192072334  0.054312325792129856  0.37785247766518504  1.0000
  H   H19       1.0  0.8438525021882483  0.9691097135522285  0.5308721017642253  1.0000
  H   H20       1.0  0.7996796030294657  0.9238544023041155  0.38135592611434377  1.0000
  C   C28       1.0  0.9016598056886699  0.403099259214468  0.22935162472160386  1.0000
  C   C29       1.0  0.9697488435124685  0.4706920435340498  0.2262767049230543  1.0000
  C   C30       1.0  0.004286235478963452  0.5048332614775606  0.1075903118114192  1.0000
  C   C31       1.0  0.969821148788568  0.4704763917398256  0.9910105504248699  1.0000
  C   C32       1.0  0.901731481418593  0.40288562538419903  0.9920934819086127  1.0000
  C   C33       1.0  0.8680323750756292  0.36957447652803554  0.1117504779218863  1.0000
  C   C34       1.0  0.07631846261506414  0.5763384735624029  0.10539130686439413  1.0000
  C   C35       1.0  0.08811729932694146  0.6791122345058149  0.18576895800403825  1.0000
  C   C36       1.0  0.1559533705189582  0.7462989919020735  0.18349930269138914  1.0000
  C   C37       1.0  0.21274454101744156  0.711763621205886  0.1012292246615436  1.0000
  C   C38       1.0  0.20167022348599195  0.6098610450832627  0.021029030285110384  1.0000
  C   C39       1.0  0.13391040746207494  0.5424467387982854  0.022896391771531244  1.0000
  I   I1        1.0  0.3150167912282871  0.8132834699134353  0.09811106906401545  1.0000
  H   H21       1.0  0.8756929425546971  0.3774087958720991  0.5579707526834963  1.0000
  H   H22       1.0  0.996608740390832  0.49538254401519555  0.3165404506157634  1.0000
  H   H23       1.0  0.9956888944550466  0.49812813513508303  0.8991371668283312  1.0000
  H   H24       1.0  0.8155043602917982  0.31743086538494136  0.11335425892038309  1.0000
  H   H25       1.0  0.8757979085166758  0.3770944836324781  0.6650559342669298  1.0000
  H   H26       1.0  0.04454907387417051  0.708592122317125  0.24907358445142447  1.0000
  H   H27       1.0  0.16425308337699618  0.8254032914679201  0.2454841646827146  1.0000
  H   H28       1.0  0.2456070039540561  0.5826097316147609  0.9574509566279756  1.0000
  H   H29       1.0  0.12691634002393393  0.4627745192735866  0.9611349608356927  1.0000
  Zn  Zn1       1.0  0.8193758509408673  0.4046987188787394  0.6067818737560042  1.0000
  Zn  Zn2       1.0  0.9840082396501957  0.4012856873014303  0.6146622542466236  1.0000
  C   C40       1.0  0.9017172143526265  0.3977523918651473  0.8479187762177418  1.0000
  C   C41       1.0  0.9016686737266197  0.4082336156187505  0.37352556532191383  1.0000
  C   C42       1.0  0.9016472321925179  0.640184654113757  0.6055495247083604  1.0000
  C   C43       1.0  0.9017386000055203  0.16579979422227575  0.6158948833656483  1.0000
  O   O1        1.0  0.9641487844998153  0.40865585912752866  0.42490222010312695  1.0000
  O   O2        1.0  0.9641892774224877  0.3947387567495273  0.8025227740315197  1.0000
  O   O3        1.0  0.9641319238484024  0.5905058915717523  0.6068078483337356  1.0000
  O   O4        1.0  0.9642060818851428  0.2128887347873798  0.620617045736787  1.0000
  O   O5        1.0  0.8391779525249647  0.5930956725589058  0.6008270795698227  1.0000
  O   O6        1.0  0.8392353057993028  0.3973300980506618  0.7965419360372354  1.0000
  O   O7        1.0  0.839194812788282  0.4112471556092727  0.418919820701926  1.0000
  O   O8        1.0  0.839252110181412  0.21548002195316385  0.6146347437036925  1.0000
