data_image0
_chemical_formula_structural       NC9NC5H8C16H10C15H12Zn2C4O8
_chemical_formula_sum              "N2 C49 H30 Zn2 O8"
_cell_length_a       17.807436237873137
_cell_length_b       10.29914801576943
_cell_length_c       10.299157797200024
_cell_angle_alpha    85.52082761248347
_cell_angle_beta     89.41431720980768
_cell_angle_gamma    88.40369483635645

_space_group_name_H-M_alt    "P 1"
_space_group_IT_number       1

loop_
  _space_group_symop_operation_xyz
  'x, y, z'

loop_
  _atom_site_type_symbol
  _atom_site_label
  _atom_site_symmetry_multiplicity
  _atom_site_fract_x
  _atom_site_fract_y
  _atom_site_fract_z
  _atom_site_occupancy
  N   N1        1.0  0.7072769181520434  0.3882890332078175  0.5564606266906684  1.0000
  C   C1        1.0  0.6466819517984763  0.35309986033873053  0.5454508754793648  1.0000
  C   C2        1.0  0.5713084736023288  0.3093284045290643  0.5317559403756564  1.0000
  C   C3        1.0  0.5531831496949616  0.23793891289114466  0.4267769920478157  1.0000
  C   C4        1.0  0.47999935737575716  0.1953287219798634  0.41339750615752235  1.0000
  C   C5        1.0  0.4238921102233143  0.22373047360246678  0.5049646739698925  1.0000
  C   C6        1.0  0.3461166392300951  0.17856171592887526  0.4908277762070814  1.0000
  C   C7        1.0  0.2839576384046499  0.2603165003025554  0.516733795057448  1.0000
  C   C8        1.0  0.2106315159184006  0.21750325163019868  0.5033680765645518  1.0000
  C   C9        1.0  0.1474228849881316  0.3019494874666182  0.5296368867052756  1.0000
  N   N2        1.0  0.0966161330297891  0.36983841842795284  0.5507562859877657  1.0000
  C   C10       1.0  0.1988808075187891  0.09267722627931407  0.4640710965827284  1.0000
  C   C11       1.0  0.2601824346723459  0.010908591024840542  0.4381566933729326  1.0000
  C   C12       1.0  0.3333890238115869  0.05332732821921371  0.4513200276683549  1.0000
  C   C13       1.0  0.4427089577406449  0.29561430480367457  0.6101626567043337  1.0000
  C   C14       1.0  0.5159455593007941  0.33803413271970206  0.6233865628328568  1.0000
  H   H1        1.0  0.5955585922569112  0.21547317239484665  0.35506948605182487  1.0000
  H   H2        1.0  0.46706040790065584  0.14166684962868703  0.33049477485683654  1.0000
  H   H3        1.0  0.2924753221666042  0.35778032543818084  0.5455714865600629  1.0000
  H   H4        1.0  0.1424086057946872  0.058641698994545965  0.4534899243117583  1.0000
  H   H5        1.0  0.2509662476695493  0.914265283358285  0.408118174659335  1.0000
  H   H6        1.0  0.3800163169813818  0.9875828839184515  0.4322981945426754  1.0000
  H   H7        1.0  0.4010506148398381  0.31754057174585504  0.6831649641902158  1.0000
  H   H8        1.0  0.5294127919545428  0.3929169924846869  0.7052470921198406  1.0000
  C   C15       1.0  0.901896655419466  0.9976646817813535  0.5537747679163811  1.0000
  C   C16       1.0  0.8847130419557057  0.008116272452588058  0.4205446701901172  1.0000
  C   C17       1.0  0.8760557541226947  0.8962831232440497  0.35282876074166536  1.0000
  C   C18       1.0  0.8848132349125338  0.7728598258453321  0.42013858805390747  1.0000
  C   C19       1.0  0.9020035641573634  0.7604524503464886  0.5534533452830841  1.0000
  C   C20       1.0  0.9104407729541628  0.8733762457472682  0.6194505517640034  1.0000
  C   C21       1.0  0.857877748865236  0.9083852425790676  0.21188738222128256  1.0000
  C   C22       1.0  0.8934017895381196  0.8257412328866076  0.12614418916522285  1.0000
  C   C23       1.0  0.8762670320220458  0.8372577507107886  0.9934959822126794  1.0000
  C   C24       1.0  0.8234321910690345  0.9313274498261569  0.9447891858123234  1.0000
  C   C25       1.0  0.787770872584631  0.013958650436937337  0.029250373485046444  1.0000
  C   C26       1.0  0.804852071515469  0.0026859303935184986  0.16192031295134623  1.0000
  C   C27       1.0  0.8058196631277721  0.9430587012155707  0.8082150012193927  1.0000
  C   C28       1.0  0.7910693609589491  0.9528835108239375  0.693836098343251  1.0000
  C   C29       1.0  0.7737969312651611  0.964388231646194  0.559899569069406  1.0000
  C   C30       1.0  0.7590491044616654  0.9742115414372614  0.44553913878213613  1.0000
  H   H9        1.0  0.9084675769069489  0.32112097882777824  0.6050354313138517  1.0000
  H   H10       1.0  0.8790338484352841  0.10345568674597527  0.3687147319031505  1.0000
  H   H11       1.0  0.8771950587689558  0.6863424017222738  0.3688316689837914  1.0000
  H   H12       1.0  0.9236927379492538  0.8645988787412806  0.7222152338606382  1.0000
  H   H13       1.0  0.9339842170821838  0.5297496099249404  0.805263024781051  1.0000
  H   H14       1.0  0.9351427082528494  0.7533481486561351  0.16138444323950973  1.0000
  H   H15       1.0  0.9043589445696576  0.7730220579657556  0.9289057597302377  1.0000
  H   H16       1.0  0.7466271793690422  0.08688817899552292  0.9926313957944606  1.0000
  H   H17       1.0  0.7758842150387347  0.06657355774715779  0.22572053436165307  1.0000
  H   H18       1.0  0.7460993251137125  0.9828372344626097  0.3451210372534561  1.0000
  C   C31       1.0  0.9018630259898821  0.37916895892856406  0.17222324716298298  1.0000
  C   C32       1.0  0.8236113825039064  0.36489637249560447  0.1735524312181853  1.0000
  C   C33       1.0  0.7840963311776352  0.35754313443606134  0.057081734035528076  1.0000
  C   C34       1.0  0.823834566303574  0.3646770464490918  0.9382819542125258  1.0000
  C   C35       1.0  0.9020371745518226  0.37894816159683886  0.9350048069481565  1.0000
  C   C36       1.0  0.9405947505297934  0.3861050213024291  0.052512477850497286  1.0000
  C   C37       1.0  0.7013668207433894  0.3424591707739171  0.059533275428248045  1.0000
  C   C38       1.0  0.6675510961753028  0.257075291302034  0.9789581532997995  1.0000
  C   C39       1.0  0.5896991738270442  0.24297370564790977  0.9812973763630133  1.0000
  C   C40       1.0  0.5442762532180065  0.3133125510997108  0.06476436718790679  1.0000
  C   C41       1.0  0.577690046213675  0.39956109659665096  0.1443683081770446  1.0000
  C   C42       1.0  0.6555412116863051  0.4136669168305307  0.142177045169529  1.0000
  C   C43       1.0  0.460408047993539  0.300470440351968  0.06493723346379388  1.0000
  C   C44       1.0  0.4266346462348124  0.3958463182060785  0.9679818247334597  1.0000
  C   C45       1.0  0.3988779503423804  0.47427312010894007  0.8882574573627227  1.0000
  H   H19       1.0  0.049618558070975594  0.40531011762225333  0.37706860219056826  1.0000
  H   H20       1.0  0.7933927631102297  0.3577028283076715  0.26553652194049127  1.0000
  H   H21       1.0  0.7935083120020596  0.36087571655641293  0.8480961633136039  1.0000
  H   H22       1.0  0.0009147885338429695  0.39710898279193607  0.05070045038749038  1.0000
  H   H23       1.0  0.9321195978419456  0.38439572455704174  0.6062719141663795  1.0000
  H   H24       1.0  0.7014010723234585  0.20010087184545178  0.9151133361754589  1.0000
  H   H25       1.0  0.5648172152801756  0.1769914646170605  0.9181309605472077  1.0000
  H   H26       1.0  0.5434013070592264  0.4562471040534468  0.20787468411139898  1.0000
  H   H27       1.0  0.6798107179646209  0.4817855878121864  0.20371030952050817  1.0000
  H   H28       1.0  0.4454004938225321  0.20093295892605134  0.04175389821030473  1.0000
  H   H29       1.0  0.4364962108015597  0.3170498522334251  0.16250241132960186  1.0000
  H   H30       1.0  0.3745310022723957  0.543128118522124  0.8182664315817423  1.0000
  Zn  Zn1       1.0  0.819631805412261  0.38296111660519117  0.5548219898680695  1.0000
  Zn  Zn2       1.0  0.9842612285265171  0.37515574493436477  0.5524056044964041  1.0000
  C   C46       1.0  0.9020018761455507  0.3738159112586241  0.790824989476427  1.0000
  C   C47       1.0  0.901892955800212  0.38430250375796593  0.316402705284365  1.0000
  C   C48       1.0  0.9019783137222079  0.6162710167825429  0.5483386668312715  1.0000
  C   C49       1.0  0.9019164618441329  0.14184584045224669  0.5588890986542527  1.0000
  O   O1        1.0  0.9643790078221781  0.38305760424055424  0.3638736452578819  1.0000
  O   O2        1.0  0.964465746779051  0.3691357345906059  0.7415196954625856  1.0000
  O   O3        1.0  0.9644458779261079  0.5649213381041094  0.5457102860884091  1.0000
  O   O4        1.0  0.964398820477317  0.18727201270963234  0.559682958072437  1.0000
  O   O5        1.0  0.8394941572815173  0.5708448514949296  0.5475446371097985  1.0000
  O   O6        1.0  0.8395140263339385  0.37506080842823275  0.7433539765770045  1.0000
  O   O7        1.0  0.8394272870641326  0.38898263326823446  0.3657063649003687  1.0000
  O   O8        1.0  0.8394470997371318  0.19319703241973718  0.5615157750923079  1.0000
