data_image0
_chemical_formula_structural       NC9NC5H8C12OCH12C12IH9Zn2C4O8
_chemical_formula_sum              "N2 C43 H29 O9 I1 Zn2"
_cell_length_a       17.807436237873137
_cell_length_b       10.29979075500242
_cell_length_c       10.29977335064465
_cell_angle_alpha    85.53982299009832
_cell_angle_beta     89.4010069247268
_cell_angle_gamma    88.37243818242351

_space_group_name_H-M_alt    "P 1"
_space_group_IT_number       1

loop_
  _space_group_symop_operation_xyz
  'x, y, z'

loop_
  _atom_site_type_symbol
  _atom_site_label
  _atom_site_symmetry_multiplicity
  _atom_site_fract_x
  _atom_site_fract_y
  _atom_site_fract_z
  _atom_site_occupancy
  N   N1        1.0  0.7070306062048854  0.38817755142326704  0.557011468307264  1.0000
  C   C1        1.0  0.6464482840696227  0.35299087940568774  0.5459905104063061  1.0000
  C   C2        1.0  0.5710905338908833  0.30922253437977143  0.532281635415802  1.0000
  C   C3        1.0  0.5530019751538566  0.23783755221712988  0.42728473598301586  1.0000
  C   C4        1.0  0.4798335000234675  0.1952303892331153  0.41389168280554767  1.0000
  C   C5        1.0  0.4237049290089032  0.2236306867255049  0.5054631092288833  1.0000
  C   C6        1.0  0.3459456887567366  0.17846513910754314  0.4913118268577654  1.0000
  C   C7        1.0  0.2837572677071742  0.2602141155014981  0.5172438632017713  1.0000
  C   C8        1.0  0.2104465249779848  0.2174039097150855  0.5038645082790276  1.0000
  C   C9        1.0  0.1472075711804937  0.301844143022159  0.530160220806166  1.0000
  N   N2        1.0  0.0963764415878415  0.3697282483726647  0.5513012476827177  1.0000
  C   C10       1.0  0.1987407018015183  0.09258675394372617  0.4645277889993755  1.0000
  C   C11       1.0  0.2600717547008372  0.010823927625694285  0.43858736411935784  1.0000
  C   C12       1.0  0.3332631164564477  0.05323964943267612  0.4517642137752462  1.0000
  C   C13       1.0  0.4424848250731988  0.29550997375868127  0.6106791967741283  1.0000
  C   C14       1.0  0.5157061907583069  0.33792678662091125  0.6239166151236688  1.0000
  H   H1        1.0  0.595394187769053  0.21537296686346252  0.35557381963641865  1.0000
  H   H2        1.0  0.46692272297834003  0.14157187930223025  0.3309756891891371  1.0000
  H   H3        1.0  0.2922401533517254  0.35767100269809005  0.5461126898667865  1.0000
  H   H4        1.0  0.1422807206712472  0.058553645983927094  0.45393577352464853  1.0000
  H   H5        1.0  0.2508902669890757  0.9141874896363781  0.40851805593221346  1.0000
  H   H6        1.0  0.379913824857383  0.9874998880741912  0.43272135342165186  1.0000
  H   H7        1.0  0.4008097091478052  0.31743513388782607  0.6836846580759242  1.0000
  H   H8        1.0  0.5291450037764542  0.392806187470391  0.7057908780233813  1.0000
  C   C15       1.0  0.9017746293373404  0.9975817770563746  0.5541942877462143  1.0000
  C   C16       1.0  0.8800401006491553  0.9874068566270079  0.6859513977207339  1.0000
  C   C17       1.0  0.8689674290408462  0.8651176966877179  0.7526814504175783  1.0000
  C   C18       1.0  0.8799051240773096  0.752130978700574  0.6858875920701504  1.0000
  C   C19       1.0  0.9016396193283456  0.7603136862206944  0.5541295500692744  1.0000
  C   C20       1.0  0.9124544198635313  0.8834856984724311  0.48902129949785755  1.0000
  C   C21       1.0  0.8459781059951132  0.8554070934347049  0.8920742637076766  1.0000
  C   C22       1.0  0.7911663903350291  0.7671248570824801  0.9379437891727576  1.0000
  C   C23       1.0  0.769597089870414  0.7582560034698717  0.06899945232029614  1.0000
  C   C24       1.0  0.8023536526531281  0.8370233696471935  0.15586739834374785  1.0000
  C   C25       1.0  0.8573655470050758  0.925904653669892  0.11186664677261093  1.0000
  C   C26       1.0  0.8787018978380586  0.9344235133350854  0.9802876992697533  1.0000
  O   O1        1.0  0.8920996540549544  0.006933960993246391  0.19522584110638963  1.0000
  C   C27       1.0  0.8760059269771587  0.008633672811328541  0.3307982631811146  1.0000
  H   H9        1.0  0.910089295830568  0.3289087715358532  0.5040099828934781  1.0000
  H   H10       1.0  0.8706761431411885  0.07486180519913366  0.7365175986979415  1.0000
  H   H11       1.0  0.8724205868671012  0.6575701243247043  0.7373653444582546  1.0000
  H   H12       1.0  0.9292222686492483  0.8905667958248731  0.3873762473868483  1.0000
  H   H13       1.0  0.9098840712112589  0.4359819834138764  0.5039086398132548  1.0000
  H   H14       1.0  0.7642892204913819  0.7061892758303184  0.8721283037670495  1.0000
  H   H15       1.0  0.727170690878563  0.6902862482898118  0.10330055122105519  1.0000
  H   H16       1.0  0.784559284126935  0.8280868752268536  0.2567951738702977  1.0000
  H   H17       1.0  0.9217346034436742  0.0019378746769080912  0.9474905690265849  1.0000
  H   H18       1.0  0.8889882267097451  0.91147427181947  0.3812305507800364  1.0000
  H   H19       1.0  0.9114614472367831  0.08157995296931464  0.37249267271471664  1.0000
  H   H20       1.0  0.8160339331009601  0.03638179562074573  0.3461133340851782  1.0000
  C   C28       1.0  0.9016712775875872  0.3790555221222598  0.17279326302318188  1.0000
  C   C29       1.0  0.9697608478849065  0.44483238952666326  0.16545140960315452  1.0000
  C   C30       1.0  0.00429850868551207  0.4780525032795031  0.044600678196700105  1.0000
  C   C31       1.0  0.9698331512252468  0.4446148075051255  0.9301807545476244  1.0000
  C   C32       1.0  0.9017429513998267  0.37883997487165355  0.9355306588232737  1.0000
  C   C33       1.0  0.8680435827600241  0.346427573333121  0.057299460536458735  1.0000
  C   C34       1.0  0.07633129911427416  0.547636634603502  0.03788763212113411  1.0000
  C   C35       1.0  0.08813102050437505  0.6500963143114615  0.11751619305689642  1.0000
  C   C36       1.0  0.15596762084368176  0.7154739003419759  0.11099547326340531  1.0000
  C   C37       1.0  0.21275844434556324  0.6794233342047964  0.025176141798642693  1.0000
  C   C38       1.0  0.2016832491240419  0.5778155175652775  0.9456796180313569  1.0000
  C   C39       1.0  0.13392290191031608  0.5122083469735346  0.9517932975972645  1.0000
  I   I1        1.0  0.3150314942903034  0.7782156085752243  0.01564889501540656  1.0000
  H   H21       1.0  0.8757042121445039  0.354057588825768  0.503039646315621  1.0000
  H   H22       1.0  0.9966209376399909  0.4688065307476852  0.25403213705228644  1.0000
  H   H23       1.0  0.9957011163489198  0.4715766776516861  0.8366861077721666  1.0000
  H   H24       1.0  0.8155151572074201  0.2956848706814075  0.06219501284178941  1.0000
  H   H25       1.0  0.8758091752854587  0.35374047445657  0.6101182945485015  1.0000
  H   H26       1.0  0.044563087235495624  0.6807386271230738  0.18354336641907487  1.0000
  H   H27       1.0  0.16426801527254464  0.7943573083940192  0.17245267425873267  1.0000
  H   H28       1.0  0.2456197564995941  0.5493919619126264  0.8793557029602805  1.0000
  H   H29       1.0  0.12692814689094667  0.43272218564795684  0.8904779052328866  1.0000
  Zn  Zn1       1.0  0.8193874040897599  0.38285001366250215  0.5553711330641973  1.0000
  Zn  Zn2       1.0  0.9840196283831792  0.37504519688536475  0.55295226042901  1.0000
  C   C40       1.0  0.9017286396763492  0.3737070886465874  0.7913573920994641  1.0000
  C   C41       1.0  0.9016801902972371  0.3841896752652778  0.3169661023071231  1.0000
  C   C42       1.0  0.9016607672090065  0.6161427902934107  0.5489667133551768  1.0000
  C   C43       1.0  0.9017480068698499  0.1417524159511736  0.559356851247726  1.0000
  O   O2        1.0  0.964160253618379  0.3829451908975412  0.36443387512750935  1.0000
  O   O3        1.0  0.9642006254018687  0.3690269180495329  0.7420533771551641  1.0000
  O   O4        1.0  0.9641449754322103  0.5647968526932936  0.5463212013749335  1.0000
  O   O5        1.0  0.9642158473994167  0.187175268234826  0.5601659543577413  1.0000
  O   O6        1.0  0.8391911288926232  0.5707199449778577  0.5481574399540774  1.0000
  O   O7        1.0  0.8392467785761123  0.3749515706661952  0.7438895463566031  1.0000
  O   O8        1.0  0.8392064067038845  0.38886979869687877  0.36626848293233016  1.0000
  O   O9        1.0  0.8392620004926437  0.1930998667179351  0.562000659531172  1.0000
