data_image0
_chemical_formula_structural       NC10NC3NH7C16H10C13F3H9Zn2C4O8
_chemical_formula_sum              "N3 C46 H26 F3 Zn2 O8"
_cell_length_a       19.210446455230148
_cell_length_b       10.29914801576943
_cell_length_c       10.2985328690268
_cell_angle_alpha    85.55501211268866
_cell_angle_beta     89.99621934770116
_cell_angle_gamma    89.9607823085547

_space_group_name_H-M_alt    "P 1"
_space_group_IT_number       1

loop_
  _space_group_symop_operation_xyz
  'x, y, z'

loop_
  _atom_site_type_symbol
  _atom_site_label
  _atom_site_symmetry_multiplicity
  _atom_site_fract_x
  _atom_site_fract_y
  _atom_site_fract_z
  _atom_site_occupancy
  N   N1        1.0  0.6555742428271313  0.4198603175298343  0.5666897016986068  1.0000
  C   C1        1.0  0.5953458133092632  0.42206805257009017  0.5669200450624652  1.0000
  C   C2        1.0  0.5205415222871945  0.42480523967659267  0.567205410975328  1.0000
  C   C3        1.0  0.4849370949536451  0.5410481726749605  0.5822750240273236  1.0000
  C   C4        1.0  0.4122716183638965  0.5411997047539119  0.582222366607889  1.0000
  C   C5        1.0  0.375374806467095  0.4255142806339334  0.5672916364989637  1.0000
  C   C6        1.0  0.2980526057862326  0.42415766740402105  0.5671415384798106  1.0000
  C   C7        1.0  0.2602983899413977  0.5277166824750097  0.5037368068654524  1.0000
  C   C8        1.0  0.187519964142284  0.5263143231867609  0.5036282465167341  1.0000
  C   C9        1.0  0.151494350894305  0.4216104612571536  0.566873321624171  1.0000
  C   C10       1.0  0.0765647628982021  0.42030824984734627  0.5667369676245029  1.0000
  N   N2        1.0  0.0163268559559555  0.41926122767232554  0.5666273739035426  1.0000
  C   C11       1.0  0.1885249130094186  0.3181771399652311  0.6302529962769701  1.0000
  C   C12       1.0  0.2613051792193831  0.31930522719906884  0.6304119080026522  1.0000
  C   C13       1.0  0.4135891978878897  0.3110918131876643  0.5525095311037893  1.0000
  N   N3        1.0  0.48435926560390297  0.31353700428912346  0.5526741959941159  1.0000
  H   H1        1.0  0.5130428994073557  0.6304914480781654  0.5942910248252955  1.0000
  H   H2        1.0  0.3850077350764722  0.6312252937461607  0.5956329715600077  1.0000
  H   H3        1.0  0.2870252731704972  0.6089606694283618  0.4527123997445732  1.0000
  H   H4        1.0  0.1593732203278928  0.6067309380472552  0.4539346334441794  1.0000
  H   H5        1.0  0.1611582754928567  0.23679703307624034  0.6798474761311599  1.0000
  H   H6        1.0  0.2888071654168854  0.23900822735148752  0.6815433031957214  1.0000
  H   H7        1.0  0.387318846141718  0.22020323069790226  0.5390529968962134  1.0000
  C   C14       1.0  0.83590431497611  0.03815954332268223  0.5668241087458374  1.0000
  C   C15       1.0  0.8200036144303576  0.047743343490630474  0.43334312124412233  1.0000
  C   C16       1.0  0.8119927661747491  0.9354726370748809  0.3655008024974844  1.0000
  C   C17       1.0  0.8200965152466972  0.8124912485966869  0.43293848532177126  1.0000
  C   C18       1.0  0.8360034249951108  0.8009520222646878  0.5665042308392074  1.0000
  C   C19       1.0  0.8438106270808168  0.9143022532518109  0.632624633174852  1.0000
  C   C20       1.0  0.7951719144493561  0.9466567472157176  0.22429401553926986  1.0000
  C   C21       1.0  0.8281012170215807  0.8655905269403168  0.13906440665438602  1.0000
  C   C22       1.0  0.8122456925751889  0.8762418431182734  0.0061660261085350054  1.0000
  C   C23       1.0  0.7632980354803592  0.9678593993010846  0.9566928954756757  1.0000
  C   C24       1.0  0.7302417387554918  0.048905747529857324  0.04063849158457056  1.0000
  C   C25       1.0  0.7460476337366404  0.03849578596680492  0.17355782881372672  1.0000
  C   C26       1.0  0.7470004457758269  0.9787011884367607  0.8198615584692681  1.0000
  C   C27       1.0  0.7333513901162516  0.9877810833034631  0.7052672932277666  1.0000
  C   C28       1.0  0.7173685071125231  0.9984135176475032  0.5710785771641147  1.0000
  C   C29       1.0  0.7037217421242469  0.007492037274601238  0.4565028206429851  1.0000
  H   H8        1.0  0.8419846074743784  0.3619478668823901  0.6181807154697245  1.0000
  H   H9        1.0  0.8147496646988721  0.14279128477670833  0.3814301539613436  1.0000
  H   H10       1.0  0.8130458708671822  0.7255937435807245  0.3815204461352817  1.0000
  H   H11       1.0  0.8560732095976372  0.9061941351071151  0.7355828011681205  1.0000
  H   H12       1.0  0.8655958185406568  0.5718665451314385  0.8187808989120617  1.0000
  H   H13       1.0  0.8667716732173271  0.79513276111011  0.17491003938446248  1.0000
  H   H14       1.0  0.8382852113461772  0.8132557682885585  0.9419819840357033  1.0000
  H   H15       1.0  0.6921248756764096  0.1199265208586675  0.0034227704316909247  1.0000
  H   H16       1.0  0.7191966135127277  0.10109315203362557  0.2369391650767092  1.0000
  H   H17       1.0  0.6917387837709089  0.015463744308505278  0.35589564533794427  1.0000
  C   C30       1.0  0.8359338510422709  0.4194338666908708  0.18526672824388446  1.0000
  C   C31       1.0  0.9057282103859519  0.37842314880214234  0.18748493103990005  1.0000
  C   C32       1.0  0.9410935505130645  0.3577613873245289  0.07143800585063143  1.0000
  C   C33       1.0  0.9057693381489424  0.37867871887924576  0.9521841402077427  1.0000
  C   C34       1.0  0.8359738926024362  0.41967773274950515  0.9480615932843839  1.0000
  C   C35       1.0  0.8015018738880985  0.43978831355534775  0.06510029195694278  1.0000
  C   C36       1.0  0.014882810254053025  0.31441546668246145  0.07471760740309752  1.0000
  C   C37       1.0  0.06295460859757784  0.36894070892685926  0.9831447400170514  1.0000
  C   C38       1.0  0.1324002078723916  0.3282485156886532  0.9862527281146916  1.0000
  C   C39       1.0  0.1550375444716754  0.2308066180801771  0.07976117187628695  1.0000
  C   C40       1.0  0.10736891842577156  0.17809990511701712  0.17291053362601483  1.0000
  C   C41       1.0  0.03792785466348092  0.21882514858719593  0.1699134518622798  1.0000
  C   C42       1.0  0.23050331209087882  0.190391351412055  0.08604855726195826  1.0000
  F   F1        1.0  0.26621211375861464  0.2696533187438812  0.16549380576371564  1.0000
  F   F2        1.0  0.26014958995434245  0.20151623303970867  0.9631815402290846  1.0000
  F   F3        1.0  0.23693316636878503  0.06224874132412217  0.1359872704967371  1.0000
  H   H18       1.0  0.7041812518723557  0.4977472462639674  0.3883367122506707  1.0000
  H   H19       1.0  0.9329861500214744  0.36421714610991485  0.2795651647102684  1.0000
  H   H20       1.0  0.9325004916965512  0.36125133991911307  0.8625561336977747  1.0000
  H   H21       1.0  0.7477097532604005  0.4713908355064953  0.06265755730176514  1.0000
  H   H22       1.0  0.7039581636035994  0.4964078800293412  0.7330030411878572  1.0000
  H   H23       1.0  0.047101994242296996  0.4447376870962476  0.9103864165518063  1.0000
  H   H24       1.0  0.16849474256366137  0.3734186862297979  0.9157422409452409  1.0000
  H   H25       1.0  0.12377842300092246  0.10519378189570783  0.24811042625960766  1.0000
  H   H26       1.0  0.002084161097647863  0.1746086687987507  0.24144317260148163  1.0000
  Zn  Zn1       1.0  0.7596796533947345  0.41968397118836975  0.5666792163240921  1.0000
  Zn  Zn2       1.0  0.9122214286315451  0.41942699396956695  0.5666485002890265  1.0000
  C   C43       1.0  0.8359641004583455  0.414457505642742  0.8038791928677116  1.0000
  C   C44       1.0  0.8359386475390087  0.42465509550822755  0.3294486501986962  1.0000
  C   C45       1.0  0.8359808422209282  0.6567663688806584  0.5613891144574705  1.0000
  C   C46       1.0  0.8359218535254526  0.18234467194531145  0.571938798517651  1.0000
  O   O1        1.0  0.8938290652750887  0.4263041998589385  0.37782576612596275  1.0000
  O   O2        1.0  0.8938493604036443  0.4126123816039511  0.7554783907174825  1.0000
  O   O3        1.0  0.8938620992907247  0.6082798548287398  0.5596659363344461  1.0000
  O   O4        1.0  0.8938162743319283  0.23063673598171808  0.573638123133636  1.0000
  O   O5        1.0  0.7780847556393294  0.6084742292653245  0.5596895934831321  1.0000
  O   O6        1.0  0.778072016948201  0.4128083164546412  0.7555019779611045  1.0000
  O   O7        1.0  0.778051721778085  0.42650008895057323  0.3778477918711327  1.0000
  O   O8        1.0  0.7780389308359831  0.23083261581489012  0.5736602462578189  1.0000
