data_image0
_chemical_formula_structural       NC10NC5H10C12NH11C12OCH12Zn2C4O8
_chemical_formula_sum              "N3 C44 H33 O9 Zn2"
_cell_length_a       19.4436361288709
_cell_length_b       10.299770795358612
_cell_length_c       10.299794127170987
_cell_angle_alpha    85.57261220462476
_cell_angle_beta     89.69815743819767
_cell_angle_gamma    89.43566516156574

_space_group_name_H-M_alt    "P 1"
_space_group_IT_number       1

loop_
  _space_group_symop_operation_xyz
  'x, y, z'

loop_
  _atom_site_type_symbol
  _atom_site_label
  _atom_site_symmetry_multiplicity
  _atom_site_fract_x
  _atom_site_fract_y
  _atom_site_fract_z
  _atom_site_occupancy
  N   N1        1.0  0.647960911460047  0.4088845483099588  0.5620687840671945  1.0000
  C   C1        1.0  0.5891265454300796  0.41878796624974557  0.5764515221983346  1.0000
  C   C2        1.0  0.5157992186170227  0.43113886196892093  0.594442294732801  1.0000
  C   C3        1.0  0.4736104597617992  0.399131673607674  0.49977463968546987  1.0000
  C   C4        1.0  0.3977074400958817  0.4095704647936296  0.5051018410827091  1.0000
  C   C5        1.0  0.35796387168946353  0.38483471775230127  0.6121711678945307  1.0000
  C   C6        1.0  0.2818439915883075  0.38874985794556527  0.5992121076721693  1.0000
  C   C7        1.0  0.2412899199859367  0.44642112033382  0.6929751632078356  1.0000
  C   C8        1.0  0.1696271373690453  0.45005766666518343  0.68243149401669  1.0000
  C   C9        1.0  0.13752360666200011  0.39562697460585894  0.5784113079867736  1.0000
  C   C10       1.0  0.063731589664191  0.39932474635742765  0.5677123597329226  1.0000
  N   N2        1.0  0.0044078130329935  0.4022975608266681  0.5591111146613585  1.0000
  C   C11       1.0  0.1773526734222756  0.3372486706471658  0.4850315144560009  1.0000
  C   C12       1.0  0.24903187741531332  0.3335578727852522  0.4953234204616448  1.0000
  C   C13       1.0  0.38608972800089647  0.34438889966120456  0.7432626221411684  1.0000
  C   C14       1.0  0.4447599799613212  0.3875156397843851  0.790500415383226  1.0000
  C   C15       1.0  0.4889832490740971  0.48536467370890946  0.7161301695126427  1.0000
  H   H1        1.0  0.4957052240320801  0.3700048006596328  0.4094735255010229  1.0000
  H   H2        1.0  0.3730129759511397  0.432054564773378  0.41194613516200906  1.0000
  H   H3        1.0  0.2651669122933941  0.4897206002791967  0.7738173215617117  1.0000
  H   H4        1.0  0.1392892180172257  0.4953799732772173  0.7553464052417671  1.0000
  H   H5        1.0  0.1530038282753202  0.29414488357817214  0.40452381253175695  1.0000
  H   H6        1.0  0.278703820968167  0.28599227489813117  0.42310495036258744  1.0000
  H   H7        1.0  0.3551137817556234  0.2801795625686647  0.8075107081988888  1.0000
  H   H8        1.0  0.4599040857485974  0.3534596100557108  0.8884327136096228  1.0000
  H   H9        1.0  0.4588887735103133  0.5760752929874393  0.6908737632785944  1.0000
  H   H10       1.0  0.5322721430342843  0.5109574402406014  0.7792108423794044  1.0000
  C   C16       1.0  0.8261253229086809  0.02422362215282714  0.560630054157859  1.0000
  C   C17       1.0  0.8061707065427898  0.03373009558979789  0.4293913573338384  1.0000
  C   C18       1.0  0.7961226329233797  0.9214097670633139  0.36285605796939246  1.0000
  C   C19       1.0  0.8062965995546266  0.7984461361339821  0.42932176308805836  1.0000
  C   C20       1.0  0.8262499712256947  0.7869483940424175  0.560561020761607  1.0000
  C   C21       1.0  0.8360529282035675  0.9003937503013697  0.6254801161889936  1.0000
  C   C22       1.0  0.7750121081019937  0.9325204638026203  0.22401313146583934  1.0000
  C   C23       1.0  0.7249334996751676  0.024610879116961693  0.17924360772728654  1.0000
  C   C24       1.0  0.7050937648441845  0.03493849630188661  0.048563339772450975  1.0000
  C   C25       1.0  0.7349571693992807  0.9536014863435834  0.9605756692575409  1.0000
  C   C26       1.0  0.7848707874127943  0.8617119471502818  0.004456044756814492  1.0000
  C   C27       1.0  0.8047656209029695  0.8511272774305195  0.13510588391317135  1.0000
  N   N3        1.0  0.7146343866052032  0.9642972322334501  0.8269150432218266  1.0000
  H   H11       1.0  0.8336997036108965  0.34805401941769754  0.6106554563136621  1.0000
  H   H12       1.0  0.7993077133201927  0.12874755628681278  0.3780984580117095  1.0000
  H   H13       1.0  0.7977070780968447  0.7115615239508459  0.3789832489916245  1.0000
  H   H14       1.0  0.8514464880371112  0.8922919101945489  0.7267249631602373  1.0000
  H   H15       1.0  0.8338830345151474  0.4551142237100291  0.610554316054835  1.0000
  H   H16       1.0  0.7004631562224939  0.08749308510610798  0.24564679064051065  1.0000
  H   H17       1.0  0.6663189058415009  0.10612680117395445  0.01597504054783716  1.0000
  H   H18       1.0  0.8084905780069315  0.7984997072966344  0.9373706783832882  1.0000
  H   H19       1.0  0.8440678354186063  0.7804390876391859  0.16625033199318806  1.0000
  H   H20       1.0  0.736603303785071  0.9040770502729134  0.7605962247592788  1.0000
  H   H21       1.0  0.6774694360701472  0.03251547518108722  0.7932902656343779  1.0000
  C   C28       1.0  0.8262108296581034  0.4054720990688494  0.17924394673629984  1.0000
  C   C29       1.0  0.7588064748672151  0.35759518565291604  0.18261425864086434  1.0000
  C   C30       1.0  0.7246332583803571  0.3334385128975077  0.0671753021426369  1.0000
  C   C31       1.0  0.7587597526418125  0.3578225151112968  0.9473097345054855  1.0000
  C   C32       1.0  0.8261644926203802  0.40569992883558204  0.9419471575246767  1.0000
  C   C33       1.0  0.8595132906453623  0.42925373418348456  0.058437102487835846  1.0000
  C   C34       1.0  0.6533252372349178  0.2827803191707219  0.07179558240719008  1.0000
  C   C35       1.0  0.6040956024926197  0.33235699194331714  0.9810514108056254  1.0000
  C   C36       1.0  0.5370771251824662  0.28466559160524807  0.9856631222263972  1.0000
  C   C37       1.0  0.5183141714965476  0.187078730624884  0.08051423475637698  1.0000
  C   C38       1.0  0.566865041366967  0.13611000883310198  0.17212674589229837  1.0000
  C   C39       1.0  0.633977116805893  0.18443922351249786  0.16706282513269954  1.0000
  O   O1        1.0  0.5506598495902335  0.037836915642889046  0.2690916483928776  1.0000
  C   C40       1.0  0.48472285986962727  0.9797820359440809  0.2856812509458697  1.0000
  H   H22       1.0  0.8519039183492881  0.4236567767403838  0.505417201082853  1.0000
  H   H23       1.0  0.7323801450659853  0.34065475650654786  0.2751121088305939  1.0000
  H   H24       1.0  0.7329739809699091  0.33770464478520457  0.8581939998579671  1.0000
  H   H25       1.0  0.9115132064188052  0.4661879147007155  0.05506865484241352  1.0000
  H   H26       1.0  0.8518347510292495  0.4240048228704292  0.6124465212127377  1.0000
  H   H27       1.0  0.6171884315750849  0.40918089695141635  0.9076172005871772  1.0000
  H   H28       1.0  0.4994790013022089  0.32375565561710595  0.9156337970682888  1.0000
  H   H29       1.0  0.4660568545434522  0.15201033367209638  0.0817795065134832  1.0000
  H   H30       1.0  0.67127177428714  0.14360475346038148  0.23692105797818286  1.0000
  H   H31       1.0  0.47053886233742087  0.9315885643954318  0.19694272870079477  1.0000
  H   H32       1.0  0.48647801909979427  0.9052740168653611  0.3693452137995279  1.0000
  H   H33       1.0  0.44556182076873446  0.05476381188018031  0.3062766358884872  1.0000
  Zn  Zn1       1.0  0.7508237878201528  0.40698021689728936  0.5612227766782829  1.0000
  Zn  Zn2       1.0  0.9015449258052102  0.4041912877893239  0.5599678037049864  1.0000
  C   C41       1.0  0.8261708516161724  0.40048321843602985  0.7977804146244336  1.0000
  C   C42       1.0  0.8261995081393843  0.41068989444659376  0.32341027936703215  1.0000
  C   C43       1.0  0.8262231884410183  0.6427756893483483  0.5553992007562771  1.0000
  C   C44       1.0  0.8261471196247387  0.1683958642103498  0.5657915630400354  1.0000
  O   O2        1.0  0.883393593983838  0.4113769844601547  0.3713175623830416  1.0000
  O   O3        1.0  0.8833706219152443  0.39767841593075093  0.7489202624193263  1.0000
  O   O4        1.0  0.8834121134262518  0.5933326650698065  0.5531957236316023  1.0000
  O   O5        1.0  0.883352051049353  0.21572274553387283  0.5670420042279118  1.0000
  O   O6        1.0  0.7690166111422831  0.5954487601058767  0.5541485765767873  1.0000
  O   O7        1.0  0.7689751198873491  0.39979607124388306  0.7498730459810947  1.0000
  O   O8        1.0  0.7689980920891951  0.41349459405030853  0.3722687846186665  1.0000
  O   O9        1.0  0.768956549144461  0.21784034586438938  0.5679933238278203  1.0000
