data_image0
_chemical_formula_structural       NC11NC3H8C12ClH9C13F3H9Zn2C4O8
_chemical_formula_sum              "N2 C43 H26 Cl1 F3 Zn2 O8"
_cell_length_a       17.807433833752565
_cell_length_b       10.299768534541528
_cell_length_c       10.2985328690268
_cell_angle_alpha    85.58012551441328
_cell_angle_beta     88.52982223362811
_cell_angle_gamma    90.7030232555817

_space_group_name_H-M_alt    "P 1"
_space_group_IT_number       1

loop_
  _space_group_symop_operation_xyz
  'x, y, z'

loop_
  _atom_site_type_symbol
  _atom_site_label
  _atom_site_symmetry_multiplicity
  _atom_site_fract_x
  _atom_site_fract_y
  _atom_site_fract_z
  _atom_site_occupancy
  N   N1        1.0  0.7075953484516445  0.43799890112618023  0.5345949144576279  1.0000
  C   C1        1.0  0.6567732813959427  0.40329364810055957  0.6011607483096126  1.0000
  C   C2        1.0  0.5935455043928862  0.36012317307991704  0.6839601508495774  1.0000
  C   C3        1.0  0.6052679341407603  0.2966125440132279  0.8066850059206194  1.0000
  C   C4        1.0  0.5439477300536791  0.25512110365744145  0.8872003722619541  1.0000
  C   C5        1.0  0.4707507275556447  0.2768272303727466  0.8456317132621078  1.0000
  C   C6        1.0  0.4580515065047776  0.34049226304489055  0.7224466348727103  1.0000
  C   C7        1.0  0.3802863708141089  0.36352761293067637  0.6780971767002837  1.0000
  C   C8        1.0  0.3614921349260678  0.34661418911560626  0.5485078946127635  1.0000
  C   C9        1.0  0.2882651801442993  0.36828157408050477  0.5068951602176963  1.0000
  C   C10       1.0  0.23288939911884124  0.40718064641451357  0.5940513881533034  1.0000
  C   C11       1.0  0.1575257664537116  0.4295060574020648  0.5510772870181457  1.0000
  N   N2        1.0  0.0969387791059169  0.4474540292203304  0.5165292373511849  1.0000
  C   C12       1.0  0.2509920798803594  0.424304476236242  0.7231095067332378  1.0000
  C   C13       1.0  0.3241662812628277  0.4026022430017475  0.7649776862912712  1.0000
  C   C14       1.0  0.5202290225801544  0.3819791437393396  0.6419476853189072  1.0000
  H   H1        1.0  0.6617324198839365  0.2792088442739271  0.8400522890348845  1.0000
  H   H2        1.0  0.5531421204592397  0.20569942858394885  0.9819414618314009  1.0000
  H   H3        1.0  0.4241087144749118  0.24229170733426608  0.9090740629410257  1.0000
  H   H4        1.0  0.403160612693184  0.3149507133930458  0.47978607547415075  1.0000
  H   H5        1.0  0.2748153114878009  0.3543690646691029  0.406853731295844  1.0000
  H   H6        1.0  0.2086065612301571  0.45474477184069206  0.7913164925539635  1.0000
  H   H7        1.0  0.3370879943965576  0.41806008970944797  0.8648363881962009  1.0000
  H   H8        1.0  0.5117333766906201  0.43276323408732265  0.5474409617884426  1.0000
  C   C15       1.0  0.9021997970849764  0.061359435110061034  0.525563051295928  1.0000
  C   C16       1.0  0.9071400804151429  0.07100266926956467  0.38885499155741665  1.0000
  C   C17       1.0  0.9097155856263452  0.9587513617476344  0.31958796860083183  1.0000
  C   C18       1.0  0.9072835661134115  0.8357184411549532  0.3888638248288412  1.0000
  C   C19       1.0  0.902341515443869  0.8240836350191632  0.5255719045185772  1.0000
  C   C20       1.0  0.8998278599461088  0.9374616941078558  0.593155925896121  1.0000
  C   C21       1.0  0.9149429924366216  0.9700067916554538  0.17496219158939263  1.0000
  C   C22       1.0  0.8721993953652403  0.0624856946970902  0.1024763097425323  1.0000
  C   C23       1.0  0.8771865169205008  0.07288545922181533  0.9663552977342622  1.0000
  C   C24       1.0  0.9248445911139002  0.9913261652148789  0.901031557730851  1.0000
  C   C25       1.0  0.9675757917217971  0.899158735612592  0.9720066846116069  1.0000
  C   C26       1.0  0.9627220840590573  0.8883699643289268  0.10813615047432679  1.0000
  Cl  Cl1       1.0  0.9310179682461526  0.004618225062011927  0.7302477423663998  1.0000
  H   H9        1.0  0.900278758709879  0.38513770137298486  0.5776540869428708  1.0000
  H   H10       1.0  0.9100335389366534  0.1660689065017289  0.3359843179551083  1.0000
  H   H11       1.0  0.9082164475695477  0.7488908442837856  0.3358705522093126  1.0000
  H   H12       1.0  0.8960158979256979  0.9292541756656802  0.6986199362298331  1.0000
  H   H13       1.0  0.9004882753515407  0.4921972113292646  0.5776675958392099  1.0000
  H   H14       1.0  0.8342172455492951  0.12555376218365644  0.15098555873256791  1.0000
  H   H15       1.0  0.8438277469637959  0.1441718179496665  0.9117873306790694  1.0000
  H   H16       1.0  0.004720014428986952  0.8360231787762592  0.921846715306601  1.0000
  H   H17       1.0  0.9970340858486286  0.8173995990150926  0.1611654735173682  1.0000
  C   C27       1.0  0.9022490374667841  0.44259908738854126  0.14417101886032935  1.0000
  C   C28       1.0  0.9775729648087158  0.4035373465084422  0.14288823323702138  1.0000
  C   C29       1.0  0.015740185089078818  0.38386313566254926  0.025067382145831596  1.0000
  C   C30       1.0  0.9776173637228617  0.4037940390186501  0.9075855017707424  1.0000
  C   C31       1.0  0.9022922635599012  0.4428440466975283  0.9069639923520385  1.0000
  C   C32       1.0  0.8650891382912346  0.46199202492767033  0.02573179510713297  1.0000
  C   C33       1.0  0.09537551565604208  0.34257774674488806  0.02464561048628444  1.0000
  C   C34       1.0  0.14725964739203445  0.398437667418736  0.9306976063787498  1.0000
  C   C35       1.0  0.2222071887727921  0.3596847016414957  0.930322150080928  1.0000
  C   C36       1.0  0.2466341721960541  0.2628827747128206  0.022658256909572794  1.0000
  C   C37       1.0  0.19518524832335737  0.20885245038282285  0.1181634309905788  1.0000
  C   C38       1.0  0.12024260341473947  0.2476385897193749  0.11864958174107265  1.0000
  C   C39       1.0  0.3280790129435147  0.22457449098684346  0.025161886259300603  1.0000
  F   F1        1.0  0.3666214658290601  0.30482427890171526  0.10285978906087245  1.0000
  F   F2        1.0  0.3600753637947123  0.23652457463209609  0.9008202574844009  1.0000
  F   F3        1.0  0.33501261890942025  0.09662300932653345  0.07472365428758287  1.0000
  H   H18       1.0  0.7600581720282904  0.5172332497112351  0.3538503005546927  1.0000
  H   H19       1.0  0.006990540080174856  0.39009234132382065  0.23360196049164217  1.0000
  H   H20       1.0  0.006466256649180657  0.3871132760005114  0.8166158683065605  1.0000
  H   H21       1.0  0.8070352519751898  0.4920924259000119  0.025987350525132236  1.0000
  H   H22       1.0  0.7598173422748988  0.5158877907239554  0.698527176551246  1.0000
  H   H23       1.0  0.13015411234513463  0.4737857791880282  0.8587635619698504  1.0000
  H   H24       1.0  0.2611643927470244  0.4058566168249831  0.8580301509812678  1.0000
  H   H25       1.0  0.21289194064801187  0.13641044489469545  0.19251251816238923  1.0000
  H   H26       1.0  0.08155616399307619  0.2024272674135037  0.1919487136141167  1.0000
  Zn  Zn1       1.0  0.8199514518348812  0.4407239746332525  0.5293890353041399  1.0000
  Zn  Zn2       1.0  0.9845826595890226  0.444718339571039  0.5217457031595338  1.0000
  C   C40       1.0  0.9022814576231647  0.4376240326555676  0.7627797965580214  1.0000
  C   C41       1.0  0.9022544518800797  0.44781996381984035  0.28835498593548703  1.0000
  C   C42       1.0  0.9023105611315528  0.6799108050438327  0.5203949020216698  1.0000
  C   C43       1.0  0.9022252919085957  0.20553162979560446  0.5307399523054037  1.0000
  O   O1        1.0  0.964732953313926  0.45108231260591136  0.33384383764129133  1.0000
  O   O2        1.0  0.964754233364652  0.437392334596036  0.7114894587246388  1.0000
  O   O3        1.0  0.9647768926766731  0.6330419474333961  0.5157619805910536  1.0000
  O   O4        1.0  0.9647102378206328  0.25543270766445314  0.5295712210014303  1.0000
  O   O5        1.0  0.8398238174227194  0.6300096051781696  0.5215635200637063  1.0000
  O   O6        1.0  0.8398011583932427  0.434361552615111  0.7172909289651894  1.0000
  O   O7        1.0  0.8397798782955782  0.4480514848690327  0.3396437463654427  1.0000
  O   O8        1.0  0.8397571628030056  0.2524018706700033  0.5353712271004907  1.0000
