data_image0
_chemical_formula_structural       NC12NC2H8C16H10C12BrH9Zn2C4O8
_chemical_formula_sum              "N2 C46 H27 Br1 Zn2 O8"
_cell_length_a       19.240039667572717
_cell_length_b       10.29914801576943
_cell_length_c       10.299148005577397
_cell_angle_alpha    85.52895802354352
_cell_angle_beta     89.9732799682917
_cell_angle_gamma    90.01219802926651

_space_group_name_H-M_alt    "P 1"
_space_group_IT_number       1

loop_
  _space_group_symop_operation_xyz
  'x, y, z'

loop_
  _atom_site_type_symbol
  _atom_site_label
  _atom_site_symmetry_multiplicity
  _atom_site_fract_x
  _atom_site_fract_y
  _atom_site_fract_z
  _atom_site_occupancy
  N   N1        1.0  0.6549969003562763  0.4216027150835735  0.5668374832682084  1.0000
  C   C1        1.0  0.5948485315690317  0.4216027990838571  0.5668374012951785  1.0000
  C   C2        1.0  0.5200304944755267  0.4216029163994701  0.5668372639389518  1.0000
  C   C3        1.0  0.4835236092428302  0.3571170801707553  0.6702789641378519  1.0000
  C   C4        1.0  0.410852826888206  0.35700617690826353  0.6703655528598489  1.0000
  C   C5        1.0  0.3736982596055975  0.4216030090056968  0.5668370362106621  1.0000
  C   C6        1.0  0.410919370682963  0.48620002807683815  0.4633087140408263  1.0000
  C   C7        1.0  0.4835900248346147  0.4860888892771098  0.4633954253589816  1.0000
  C   C8        1.0  0.2964931691808191  0.42160293035183405  0.5668369408201854  1.0000
  C   C9        1.0  0.2592819872771248  0.3083264644664203  0.6087526084929002  1.0000
  C   C10       1.0  0.1866113338872814  0.3084333870715248  0.6086612380517487  1.0000
  C   C11       1.0  0.1501608822276807  0.4216028011591444  0.566837001782377  1.0000
  C   C12       1.0  0.0753428449976729  0.4216026873702803  0.5668372504986272  1.0000
  N   N2        1.0  0.015194528088882699  0.4216026465127649  0.5668374589438312  1.0000
  C   C13       1.0  0.18665794144654696  0.5347722910885222  0.5250127125909247  1.0000
  C   C14       1.0  0.2593286727198581  0.5348793938535823  0.524921179478945  1.0000
  H   H1        1.0  0.5112126241097801  0.3071906438834058  0.7510431453410125  1.0000
  H   H2        1.0  0.3837334815655596  0.30787772943595226  0.7522449947990004  1.0000
  H   H3        1.0  0.3838521852332616  0.5353285026113137  0.38142922124047396  1.0000
  H   H4        1.0  0.5113307813504545  0.5360152252530672  0.3826315200029451  1.0000
  H   H5        1.0  0.2863573109213666  0.2191589862852199  0.6399554933667626  1.0000
  H   H6        1.0  0.158878385048368  0.22016501330601002  0.6408968012548402  1.0000
  H   H7        1.0  0.1589610668312391  0.6230406403129767  0.4927771639482732  1.0000
  H   H8        1.0  0.28643982791303524  0.624046951224644  0.49371824980137125  1.0000
  C   C15       1.0  0.8350495184724391  0.040201293765994794  0.5670030116344187  1.0000
  C   C16       1.0  0.8192134329620926  0.04981958948231857  0.43352250480803245  1.0000
  C   C17       1.0  0.8112353167447911  0.937566533065312  0.36568044257898524  1.0000
  C   C18       1.0  0.8193063125861623  0.8145678334404566  0.433117894696764  1.0000
  C   C19       1.0  0.8351485722501176  0.802994083201428  0.5666831585626855  1.0000
  C   C20       1.0  0.8429238735691763  0.916327111633208  0.6328033108359465  1.0000
  C   C21       1.0  0.7944828196699468  0.9487871356214581  0.2244741641469561  1.0000
  C   C22       1.0  0.8273871038257506  0.8678144734559631  0.13925229806095318  1.0000
  C   C23       1.0  0.8115959496567386  0.8785000943948913  0.006354391911067125  1.0000
  C   C24       1.0  0.7627384745377801  0.970058950053747  0.956874008367202  1.0000
  C   C25       1.0  0.7297077778513557  0.051012115106602085  0.04081187078198156  1.0000
  C   C26       1.0  0.7454493725991725  0.04056775681858582  0.17373072454289318  1.0000
  C   C27       1.0  0.7465071182862894  0.9809361042488421  0.8200431644834061  1.0000
  C   C28       1.0  0.7329135322778417  0.9900456167414784  0.7054493122145935  1.0000
  C   C29       1.0  0.7169956036361194  0.0007127330599869808  0.5712610797415443  1.0000
  C   C30       1.0  0.7034042992072607  0.00982086567234619  0.4566857361412704  1.0000
  H   H9        1.0  0.8411050080888152  0.3639762829890101  0.6183594269506156  1.0000
  H   H10       1.0  0.8139831822603031  0.14488249096007433  0.3816098850003591  1.0000
  H   H11       1.0  0.8122819823248071  0.727682079647019  0.3816998809217045  1.0000
  H   H12       1.0  0.8551366197251442  0.9081923824155989  0.7357611076999091  1.0000
  H   H13       1.0  0.8646195516414995  0.5738426469222256  0.8189588388341431  1.0000
  H   H14       1.0  0.8659872875826709  0.7974045613411703  0.17510373914094868  1.0000
  H   H15       1.0  0.8376147180607767  0.8155865367148536  0.9421763949834467  1.0000
  H   H16       1.0  0.6916607477344011  0.12198657894837672  0.0035904699315034705  1.0000
  H   H17       1.0  0.7186205925993402  0.10309162455461585  0.2371058949919067  1.0000
  H   H18       1.0  0.6914700398215436  0.017818575490641697  0.3560789234245343  1.0000
  C   C31       1.0  0.8351937897419054  0.421649739883474  0.18545485522823246  1.0000
  C   C32       1.0  0.7698266189025631  0.48243479137016143  0.17999233964698091  1.0000
  C   C33       1.0  0.736586196224808  0.5132008419553449  0.06008448396465238  1.0000
  C   C34       1.0  0.7695946445162062  0.48236198013387477  0.9447153353048505  1.0000
  C   C35       1.0  0.8350042961430894  0.4215456591444977  0.9482312523262499  1.0000
  C   C36       1.0  0.8674009663169968  0.39156205008749057  0.06902460674494382  1.0000
  C   C37       1.0  0.6674361155495063  0.5775060226175361  0.05535071715747297  1.0000
  C   C38       1.0  0.6528500490068789  0.67883249885346  0.13538623771503877  1.0000
  C   C39       1.0  0.5877345800740438  0.739246661320794  0.13073603947213197  1.0000
  C   C40       1.0  0.5364650825912761  0.6992995255650718  0.04638815269347307  1.0000
  C   C41       1.0  0.5503531841904369  0.5987599826270207  0.9664998368798585  1.0000
  C   C42       1.0  0.6154095346609094  0.5381238356492919  0.9707575897637173  1.0000
  Br  Br1       1.0  0.44755828108703394  0.7819773033521393  0.04030325512529842  1.0000
  H   H19       1.0  0.8603510197988392  0.3983218793187475  0.515027440261985  1.0000
  H   H20       1.0  0.7441827397174658  0.504382919740713  0.26932264996106703  1.0000
  H   H21       1.0  0.7446373345297798  0.5074591000320956  0.8518883392279517  1.0000
  H   H22       1.0  0.9178213032520371  0.34468096156024153  0.07252193786575867  1.0000
  H   H23       1.0  0.9586557455617946  0.30749334416910834  0.7475181559944324  1.0000
  H   H24       1.0  0.6920710074185985  0.7124524937095207  0.20027971222927055  1.0000
  H   H25       1.0  0.5772490819099141  0.8173197070105003  0.19250780254004507  1.0000
  H   H26       1.0  0.5107213576331798  0.5672921590352391  0.9012984588471848  1.0000
  H   H27       1.0  0.6247319503287071  0.4593614395971881  0.9091872100058311  1.0000
  Zn  Zn1       1.0  0.7589421618837898  0.4215992267761455  0.56684496650767  1.0000
  Zn  Zn2       1.0  0.9112492813235834  0.4215955389914192  0.5668405795834128  1.0000
  C   C43       1.0  0.8350379007310166  0.4163912063296995  0.8040523784691782  1.0000
  C   C44       1.0  0.8351552058465187  0.4268051981393324  0.32963329435968136  1.0000
  C   C45       1.0  0.8351275629531751  0.6588107259347309  0.5615681618720862  1.0000
  C   C46       1.0  0.8350654914327375  0.18438411809065136  0.5721175808547794  1.0000
  O   O1        1.0  0.8929420140750854  0.4285283513066793  0.3780192331797636  1.0000
  O   O2        1.0  0.89284867197603  0.41466427446415466  0.7556627366210211  1.0000
  O   O3        1.0  0.8929202958505054  0.610421102193061  0.5598550155589241  1.0000
  O   O4        1.0  0.892870338253904  0.23277153288333285  0.573826856859865  1.0000
  O   O5        1.0  0.7773210529785259  0.6104232328869053  0.5598586892258828  1.0000
  O   O6        1.0  0.7772494293207302  0.4146679656043215  0.7556663403846386  1.0000
  O   O7        1.0  0.7773427718480215  0.42853199740010717  0.3780212754826493  1.0000
  O   O8        1.0  0.777271095998603  0.23277516967387357  0.5738289965394114  1.0000
