data_image0
_chemical_formula_structural       NC8NC6H8C12OCH12C13F3H9Zn2C4O8
_chemical_formula_sum              "N2 C44 H29 O9 F3 Zn2"
_cell_length_a       17.457602349358154
_cell_length_b       10.29979075500242
_cell_length_c       10.2985328690268
_cell_angle_alpha    85.57397699723032
_cell_angle_beta     92.88104695485512
_cell_angle_gamma    91.67079993281202

_space_group_name_H-M_alt    "P 1"
_space_group_IT_number       1

loop_
  _space_group_symop_operation_xyz
  'x, y, z'

loop_
  _atom_site_type_symbol
  _atom_site_label
  _atom_site_symmetry_multiplicity
  _atom_site_fract_x
  _atom_site_fract_y
  _atom_site_fract_z
  _atom_site_occupancy
  N   N1        1.0  0.7220829390632806  0.4523680638313141  0.6262466528408197  1.0000
  C   C1        1.0  0.661012696077371  0.4064402282716679  0.6156347657442851  1.0000
  C   C2        1.0  0.5850387302879897  0.34931171817338114  0.602443120341533  1.0000
  C   C3        1.0  0.5265071681623597  0.3894968687319018  0.6773427337719786  1.0000
  C   C4        1.0  0.4519709376390859  0.3344867821092383  0.6647653595032006  1.0000
  C   C5        1.0  0.38984832913143896  0.37691645899276405  0.7440869038819979  1.0000
  C   C6        1.0  0.315295103949469  0.3953666959488207  0.6883170107197689  1.0000
  C   C7        1.0  0.2567635784734731  0.4353679587158268  0.7633246053316189  1.0000
  C   C8        1.0  0.180771960409134  0.4544233292162505  0.7053390106621384  1.0000
  N   N2        1.0  0.11968761715490502  0.4697374675581356  0.6587187442597853  1.0000
  C   C9        1.0  0.272293100900367  0.457162284668891  0.894610626859462  1.0000
  C   C10       1.0  0.3460615741393534  0.4391011518754304  0.9507681096388629  1.0000
  C   C11       1.0  0.4045814885910017  0.39928008689821604  0.8762182548436244  1.0000
  C   C12       1.0  0.4372549547537605  0.23861367827731672  0.5758554058013563  1.0000
  C   C13       1.0  0.49577477146090143  0.19870733103253002  0.5013557994621014  1.0000
  C   C14       1.0  0.5695262477866488  0.253829967402734  0.514483156387552  1.0000
  H   H1        1.0  0.5388414631562392  0.46471125783812717  0.7439711334336103  1.0000
  H   H2        1.0  0.3029469140393063  0.38036401495216343  0.5862858343642534  1.0000
  H   H3        1.0  0.2274299451777609  0.4880633650879349  0.9534480508692353  1.0000
  H   H4        1.0  0.3578957498259932  0.4556613474289519  0.05242583619560193  1.0000
  H   H5        1.0  0.4610724777584399  0.3843032895199814  0.922329956800179  1.0000
  H   H6        1.0  0.3807778810917535  0.19327548931140237  0.5652073386462935  1.0000
  H   H7        1.0  0.48395401515753284  0.12460900099342975  0.4335288678671867  1.0000
  H   H8        1.0  0.6143896341979629  0.22205936737704923  0.45615698741751975  1.0000
  C   C15       1.0  0.9209578925288748  0.07968817758429503  0.6425275830705641  1.0000
  C   C16       1.0  0.8987573081063989  0.06759211406260968  0.7721625688308718  1.0000
  C   C17       1.0  0.8874472191000033  0.9443239916232609  0.8378114758348012  1.0000
  C   C18       1.0  0.8986194709093122  0.8323037794736899  0.7720855216609515  1.0000
  C   C19       1.0  0.9208200212209856  0.842407626454012  0.6424496005289724  1.0000
  C   C20       1.0  0.9318667073615469  0.9665358425633483  0.5783973216938254  1.0000
  C   C21       1.0  0.8639649325277409  0.9325813496740314  0.9749596508790022  1.0000
  C   C22       1.0  0.8079888233193642  0.8392834699469761  0.015457114409415551  1.0000
  C   C23       1.0  0.7859569986602027  0.8285082569592973  0.14440680727221233  1.0000
  C   C24       1.0  0.8194050608741666  0.9103412086800652  0.23449331739513435  1.0000
  C   C25       1.0  0.8755855234940366  0.004257667895777084  0.19588439172341388  1.0000
  C   C26       1.0  0.8973794772863303  0.014661142232166524  0.06638853226359265  1.0000
  O   O1        1.0  0.9110532107781704  0.08853241414198876  0.28265583641052294  1.0000
  C   C27       1.0  0.8946129323835792  0.08883224381533195  0.4166595917488911  1.0000
  H   H9        1.0  0.9294508428631129  0.4117502474291812  0.5931551244294342  1.0000
  H   H10       1.0  0.8891927950806889  0.1542156741738614  0.8218140480102958  1.0000
  H   H11       1.0  0.8909742087821687  0.7370849975903662  0.822832929446712  1.0000
  H   H12       1.0  0.9489941107199744  0.9750990738346357  0.4783894554557906  1.0000
  H   H13       1.0  0.9292412689823433  0.5188045170400227  0.5930336480236726  1.0000
  H   H14       1.0  0.7805440609532064  0.7758357932732415  0.9470011445790056  1.0000
  H   H15       1.0  0.7426293597677003  0.7566554811124817  0.17454963590836337  1.0000
  H   H16       1.0  0.8012293910972528  0.8998277069673658  0.3336831865728286  1.0000
  H   H17       1.0  0.9413262260495736  0.08611520464874212  0.037809238822785085  1.0000
  H   H18       1.0  0.9078686804825817  0.9928973584367685  0.46836861846248556  1.0000
  H   H19       1.0  0.9308189266243494  0.16506549502121448  0.4618340415659038  1.0000
  H   H20       1.0  0.8333682545328378  0.11107173038209872  0.42609436911509435  1.0000
  C   C28       1.0  0.920866916758627  0.460925008802473  0.2610893433747332  1.0000
  C   C29       1.0  0.9978042494228304  0.4233947996760492  0.26958944631196435  1.0000
  C   C30       1.0  0.03678895076448607  0.40449662670091424  0.15672564462742944  1.0000
  C   C31       1.0  0.9978494956980969  0.423652392127686  0.034292442676649326  1.0000
  C   C32       1.0  0.9209109696644381  0.4611708443301057  0.02388789407698444  1.0000
  C   C33       1.0  0.8829110235581411  0.4795623875170725  0.13782386536597446  1.0000
  C   C34       1.0  0.11813003049946813  0.36483043147891436  0.16664671441802614  1.0000
  C   C35       1.0  0.17109482997270598  0.42174446202812566  0.07942587610118634  1.0000
  C   C36       1.0  0.2476476725665464  0.38451537395829116  0.08878440859883518  1.0000
  C   C37       1.0  0.27262904571102964  0.2882109547267764  0.18430464053657958  1.0000
  C   C38       1.0  0.2201080145122416  0.23313534882692788  0.27313888900169725  1.0000
  C   C39       1.0  0.14356016003809402  0.27039770965608745  0.26389168197138835  1.0000
  C   C40       1.0  0.3558169437246319  0.2515586175010174  0.19738558590671018  1.0000
  F   F1        1.0  0.395147817872221  0.3325910690382985  0.2800754592295216  1.0000
  F   F2        1.0  0.3884880662712138  0.2641589842018106  0.07719562738502073  1.0000
  F   F3        1.0  0.36294514225758  0.12374936080793719  0.2478650309742796  1.0000
  H   H21       1.0  0.7756300535369284  0.5326680512640536  0.4523010974853632  1.0000
  H   H22       1.0  0.027851265356214183  0.41054791231522714  0.3641236069385172  1.0000
  H   H23       1.0  0.027316956585442975  0.407558219534671  0.9470698706238276  1.0000
  H   H24       1.0  0.823613650580758  0.5084824017333038  0.13053952390872237  1.0000
  H   H25       1.0  0.7753846101274829  0.5313177103207232  0.7969468979605212  1.0000
  H   H26       1.0  0.15359826989320435  0.4967441072416976  0.005261034608432302  1.0000
  H   H27       1.0  0.2874147288272437  0.4314787252147352  0.021542918872496042  1.0000
  H   H28       1.0  0.23821741607539493  0.1610540007291914  0.3497964061411538  1.0000
  H   H29       1.0  0.10406926002931827  0.2244004455885127  0.3321753188089671  1.0000
  Zn  Zn1       1.0  0.8368230615218002  0.4573770182994388  0.6356248964098092  1.0000
  Zn  Zn2       1.0  0.004947482985646845  0.4647178688135971  0.6493511351526038  1.0000
  C   C41       1.0  0.9209018685266458  0.45595066296295794  0.8797030158033918  1.0000
  C   C42       1.0  0.9208705116053698  0.46614594295462  0.4052732929582801  1.0000
  C   C43       1.0  0.9208418148839073  0.6982355979857422  0.6372884712016438  1.0000
  C   C44       1.0  0.9209305081650832  0.22385944516377254  0.6476879022797999  1.0000
  O   O2        1.0  0.9846740608508378  0.47067828498361397  0.45887178022210007  1.0000
  O   O3        1.0  0.984700865193462  0.4569888767862569  0.8365220523661263  1.0000
  O   O4        1.0  0.9846515111093834  0.6526369888094512  0.6407705221177953  1.0000
  O   O5        1.0  0.9847233575581354  0.2750301797142225  0.654623208403228  1.0000
  O   O6        1.0  0.857047129576697  0.647064704895153  0.6303528184682619  1.0000
  O   O7        1.0  0.857096483371186  0.4514181531363617  0.8261042793058984  1.0000
  O   O8        1.0  0.8570696789975814  0.4651075155772695  0.4484524456456924  1.0000
  O   O9        1.0  0.8571189757090452  0.26945940105041455  0.6442039712031005  1.0000
