data_image0
_chemical_formula_structural       NC10NC3NH7C13OH12C13OH12Zn2C4O8
_chemical_formula_sum              "N3 C43 H31 O10 Zn2"
_cell_length_a       19.210446455230148
_cell_length_b       10.299150109392551
_cell_length_c       10.299153481560891
_cell_angle_alpha    85.56204594622189
_cell_angle_beta     90.00736926035154
_cell_angle_gamma    89.92850971851941

_space_group_name_H-M_alt    "P 1"
_space_group_IT_number       1

loop_
  _space_group_symop_operation_xyz
  'x, y, z'

loop_
  _atom_site_type_symbol
  _atom_site_label
  _atom_site_symmetry_multiplicity
  _atom_site_fract_x
  _atom_site_fract_y
  _atom_site_fract_z
  _atom_site_occupancy
  N   N1        1.0  0.6549960207396861  0.41975908386553473  0.5668632874620163  1.0000
  C   C1        1.0  0.5947669485694563  0.4219668254037472  0.5670937398848712  1.0000
  C   C2        1.0  0.5199618607534618  0.42470402055201695  0.5673792410251548  1.0000
  C   C3        1.0  0.48432390285134164  0.5409474917483585  0.5824544039069957  1.0000
  C   C4        1.0  0.4116583750121656  0.5410990197095633  0.582401758451661  1.0000
  C   C5        1.0  0.374794939814953  0.42541306441265125  0.5674655007732445  1.0000
  C   C6        1.0  0.2974731331401003  0.42405644661954356  0.5673153362989933  1.0000
  C   C7        1.0  0.2596810336273748  0.5276108200056859  0.5039205745849455  1.0000
  C   C8        1.0  0.1869030199797987  0.5262084591064615  0.5038119424920475  1.0000
  C   C9        1.0  0.1509156194616104  0.421509232811933  0.5670469937755427  1.0000
  C   C10       1.0  0.0759864104769538  0.4202070175368289  0.5669105754804  1.0000
  N   N2        1.0  0.0157488082768963  0.4191599922566127  0.5668009300611101  1.0000
  C   C11       1.0  0.187984024675777  0.3180805510304807  0.6304167072339999  1.0000
  C   C12       1.0  0.2607639668071006  0.3192086443316686  0.6305756719897488  1.0000
  C   C13       1.0  0.4130423420572779  0.3109900706301181  0.5526779290943611  1.0000
  N   N3        1.0  0.4838116885670998  0.31343526289919965  0.5528427206904611  1.0000
  H   H1        1.0  0.5124039510326859  0.6303912093085706  0.5944746475118181  1.0000
  H   H2        1.0  0.3843687050392611  0.631125141481315  0.5958165477257233  1.0000
  H   H3        1.0  0.2863780627012935  0.6088510800039166  0.4529040729100009  1.0000
  H   H4        1.0  0.1587268106275508  0.6066214390356002  0.45412610129720155  1.0000
  H   H5        1.0  0.1606471333063768  0.23670407632984336  0.6800033675242516  1.0000
  H   H6        1.0  0.2882955323535924  0.2389153747719872  0.6816992079813444  1.0000
  H   H7        1.0  0.3867980328063161  0.22010095576107425  0.5392171650487754  1.0000
  C   C14       1.0  0.8354413695607896  0.038059849707696936  0.5669762252085295  1.0000
  C   C15       1.0  0.8341805920815315  0.026309029763207814  0.703787947568036  1.0000
  C   C16       1.0  0.8334807418036944  0.9032165164813737  0.772890709322166  1.0000
  C   C17       1.0  0.8340463264837236  0.7910537717945517  0.7034245737302203  1.0000
  C   C18       1.0  0.8353101126867196  0.8008492129320385  0.5666992503114423  1.0000
  C   C19       1.0  0.8360021632580069  0.9248129754681135  0.49927408792196015  1.0000
  C   C20       1.0  0.8321408988085796  0.8917672080675245  0.9175318774263204  1.0000
  C   C21       1.0  0.7893484256162875  0.7989835169029592  0.9855610705493867  1.0000
  C   C22       1.0  0.7880645727813254  0.7882911767256973  0.12166826916626128  1.0000
  C   C23       1.0  0.8300065468809289  0.8692240920307821  0.19220671147072232  1.0000
  C   C24       1.0  0.8721331504738024  0.9629627643017878  0.12482020868856125  1.0000
  C   C25       1.0  0.8734331615610837  0.9738308745704052  0.9887127185637541  1.0000
  C   C26       1.0  0.8271632884633192  0.8600911021397357  0.3382943018981668  1.0000
  O   O1        1.0  0.7751422366313938  0.943367975394253  0.37854417865569334  1.0000
  H   H8        1.0  0.8373689071036191  0.26753365995007106  0.308737766262942  1.0000
  H   H9        1.0  0.8327749564083194  0.11310327691514499  0.7567970684021232  1.0000
  H   H10       1.0  0.8344517582144232  0.6959489714388178  0.7562583178664473  1.0000
  H   H11       1.0  0.8369749896671745  0.9330847041590256  0.39381375516371664  1.0000
  H   H12       1.0  0.8357493570509781  0.4771414929421119  0.5141099038016315  1.0000
  H   H13       1.0  0.7560505820519579  0.7360121228463496  0.9334578371704194  1.0000
  H   H14       1.0  0.7542108517711906  0.7170352204282104  0.17204996799894645  1.0000
  H   H15       1.0  0.904148908972709  0.02748951600827576  0.17766987366214737  1.0000
  H   H16       1.0  0.9073103317850619  0.0455325043405399  0.9391376635125896  1.0000
  H   H17       1.0  0.8783723034528984  0.887849161650855  0.37845568383569095  1.0000
  H   H18       1.0  0.8158569360428449  0.7581016754767127  0.3761090525246632  1.0000
  H   H19       1.0  0.7754151932877262  0.9337237424523018  0.47517135988604275  1.0000
  C   C27       1.0  0.8353159830738568  0.41930721072877786  0.18546523986186036  1.0000
  C   C28       1.0  0.7633522650481095  0.395044577874178  0.18615801564441092  1.0000
  C   C29       1.0  0.7269913787056315  0.3829054827672589  0.06934162899781504  1.0000
  C   C30       1.0  0.7635164422551405  0.395361629116151  0.9508499044189884  1.0000
  C   C31       1.0  0.8354355135992494  0.41960190014213716  0.9482101971262709  1.0000
  C   C32       1.0  0.8709153452787946  0.431429544041519  0.0660514608841618  1.0000
  C   C33       1.0  0.6509079790442214  0.35726698872568163  0.07104713184591294  1.0000
  C   C34       1.0  0.6068718917405734  0.4225820011255874  0.978363421586979  1.0000
  C   C35       1.0  0.535272913737604  0.39849861111793916  0.9800463393387533  1.0000
  C   C36       1.0  0.506505061807253  0.30782701973070026  0.07354426535080649  1.0000
  C   C37       1.0  0.5500739836888957  0.24360914901523945  0.16714618848578855  1.0000
  C   C38       1.0  0.621676269022655  0.2676628838143791  0.16564143059026293  1.0000
  C   C39       1.0  0.429369219068533  0.284666602250242  0.07748245972572643  1.0000
  O   O2        1.0  0.398088878011803  0.372313476925489  0.15696323134451373  1.0000
  H   H20       1.0  0.9710623972416991  0.465933980285427  0.39138567417135484  1.0000
  H   H21       1.0  0.7352896339324515  0.38732686295719576  0.2776412671322672  1.0000
  H   H22       1.0  0.7359001924705078  0.3843543512559111  0.8606795736097843  1.0000
  H   H23       1.0  0.9263882997606816  0.4501304369460146  0.06473119512522185  1.0000
  H   H24       1.0  0.8630888940428841  0.42901149898850965  0.6197127912966569  1.0000
  H   H25       1.0  0.6276676511247778  0.49380926721446916  0.9057762798355191  1.0000
  H   H26       1.0  0.5022370697938655  0.4508378803698194  0.908552227475731  1.0000
  H   H27       1.0  0.5286359734337163  0.17458951891850094  0.2411725203545274  1.0000
  H   H28       1.0  0.6542937962289339  0.2151237932228549  0.2376589010551018  1.0000
  H   H29       1.0  0.418338801705197  0.18288951766976114  0.11634022349589679  1.0000
  H   H30       1.0  0.4073338111312738  0.29806952274344733  0.9773505532770579  1.0000
  H   H31       1.0  0.3474901493542369  0.3530423810143928  0.15627562475077017  1.0000
  Zn  Zn1       1.0  0.7591014834654013  0.4195827375325263  0.5668527928585883  1.0000
  Zn  Zn2       1.0  0.9116433330988838  0.4193257592971209  0.5668220643846063  1.0000
  C   C40       1.0  0.8354122439034981  0.4143721036776469  0.8040369597086552  1.0000
  C   C41       1.0  0.8353342381510254  0.42453802914689986  0.32963802407153775  1.0000
  C   C42       1.0  0.8353305285759062  0.6566638316169919  0.561576366605212  1.0000
  C   C43       1.0  0.8354159017061069  0.18224474089347353  0.5720986869913955  1.0000
  O   O3        1.0  0.8932292026540761  0.4261903514923213  0.3780120682488304  1.0000
  O   O4        1.0  0.8932930138041433  0.4125237608516046  0.7556392198368858  1.0000
  O   O5        1.0  0.8932262474860644  0.6081773971961124  0.5598505751237308  1.0000
  O   O6        1.0  0.8932959169030981  0.23053672448885343  0.5738006155935171  1.0000
  O   O7        1.0  0.7774488476061387  0.6083717724298996  0.5598742416533318  1.0000
  O   O8        1.0  0.7775156136416796  0.4127196964885782  0.7556628165537276  1.0000
  O   O9        1.0  0.7774518023010377  0.4263862412663406  0.378034103566788  1.0000
  O   O10       1.0  0.7775185165640685  0.23073260501093817  0.573822748283598  1.0000
