data_image0
_chemical_formula_structural       NC8NC6H8C16H10C13OH12Zn2C4O8
_chemical_formula_sum              "N2 C47 H30 O9 Zn2"
_cell_length_a       17.457602349358154
_cell_length_b       10.29914801576943
_cell_length_c       10.299153481560891
_cell_angle_alpha    85.55882765748771
_cell_angle_beta     92.89209155736368
_cell_angle_gamma    91.70309287404056

_space_group_name_H-M_alt    "P 1"
_space_group_IT_number       1

loop_
  _space_group_symop_operation_xyz
  'x, y, z'

loop_
  _atom_site_type_symbol
  _atom_site_label
  _atom_site_symmetry_multiplicity
  _atom_site_fract_x
  _atom_site_fract_y
  _atom_site_fract_z
  _atom_site_occupancy
  N   N1        1.0  0.7223955660709004  0.4524177607926474  0.6258798891052881  1.0000
  C   C1        1.0  0.6613092231114431  0.4064844698059251  0.6152826277366548  1.0000
  C   C2        1.0  0.5853152319042537  0.34934917442618074  0.6021091744582427  1.0000
  C   C3        1.0  0.5268052995198497  0.3895438128293789  0.6769923157112216  1.0000
  C   C4        1.0  0.4522498005371079  0.3345272015240317  0.6644324519642719  1.0000
  C   C5        1.0  0.3901500573022014  0.37696691332472265  0.7437365907627895  1.0000
  C   C6        1.0  0.315596398630468  0.395415028354686  0.687964184686396  1.0000
  C   C7        1.0  0.2570864557314811  0.4354257679352549  0.7629553572517771  1.0000
  C   C8        1.0  0.1810943455227823  0.45447891913973115  0.7049671889008058  1.0000
  N   N2        1.0  0.12000960453503481  0.46979127252671016  0.6583448551990394  1.0000
  C   C9        1.0  0.2726381315109907  0.4572317540277926  0.8942273668330869  1.0000
  C   C10       1.0  0.3464072088609376  0.43917281076851444  0.9503872219424168  1.0000
  C   C11       1.0  0.40490565173790094  0.39934232028005856  0.8758537085027835  1.0000
  C   C12       1.0  0.4374925351009486  0.23863791293818348  0.5755567683189655  1.0000
  C   C13       1.0  0.4959908583793982  0.19872213507840764  0.5010735265752362  1.0000
  C   C14       1.0  0.5697617028537574  0.25385134714913304  0.5141833077883216  1.0000
  H   H1        1.0  0.5391716224693669  0.4647706747897544  0.7435940047603957  1.0000
  H   H2        1.0  0.30323161882936  0.3804034832165524  0.5859433067497162  1.0000
  H   H3        1.0  0.2277917511413048  0.4881402195359392  0.953052054701929  1.0000
  H   H4        1.0  0.3582584361236753  0.45574200277835186  0.05203419516440633  1.0000
  H   H5        1.0  0.4613970894701687  0.38436730578504785  0.9219674031840299  1.0000
  H   H6        1.0  0.3809995483445922  0.19329432619610798  0.5649231487764028  1.0000
  H   H7        1.0  0.4841382979302983  0.12461136010784424  0.43327303175971843  1.0000
  H   H8        1.0  0.6146080909707111  0.22207330992094199  0.455870111968222  1.0000
  C   C15       1.0  0.9211516473770794  0.07970096365627088  0.6422737642001419  1.0000
  C   C16       1.0  0.9036108804008  0.08848300680129273  0.507366565288434  1.0000
  C   C17       1.0  0.8947736906281314  0.975808328721877  0.43880574774675996  1.0000
  C   C18       1.0  0.9037132272382452  0.8532355111125152  0.5069703284402085  1.0000
  C   C19       1.0  0.9212608476124645  0.8424983572333181  0.6419628404734283  1.0000
  C   C20       1.0  0.9298733848534123  0.9562422905952868  0.708783476278759  1.0000
  C   C21       1.0  0.8762178639684632  0.9861442851847297  0.2960902166107111  1.0000
  C   C22       1.0  0.9125020606336129  0.9067124648147074  0.2138344548472959  1.0000
  C   C23       1.0  0.8950111527919739  0.9165643164853178  0.07951390356510268  1.0000
  C   C24       1.0  0.841056372928134  0.0057397664833194195  0.025630174553257445  1.0000
  C   C25       1.0  0.8046320583351997  0.08514529575306073  0.1065905450228033  1.0000
  C   C26       1.0  0.8220682680185775  0.07553232768430962  0.24092757696971678  1.0000
  C   C27       1.0  0.8230777778053657  0.015759785017451566  0.8873370282536239  1.0000
  C   C28       1.0  0.8080208982903081  0.0241514559017868  0.7715185134617957  1.0000
  C   C29       1.0  0.7903894701547438  0.033977988076038024  0.6358962156414929  1.0000
  C   C30       1.0  0.7753351174977964  0.042368399170928495  0.520096415071889  1.0000
  H   H9        1.0  0.9278591234806939  0.403795894880447  0.6941757244012261  1.0000
  H   H10       1.0  0.8978141182005436  0.18326546849201697  0.4549827829539197  1.0000
  H   H11       1.0  0.8959362423520884  0.7659830515004655  0.45491944736143397  1.0000
  H   H12       1.0  0.9434007847715377  0.9487524868530626  0.8128415341207005  1.0000
  H   H13       1.0  0.953905971078337  0.6149052871600974  0.8968935785759489  1.0000
  H   H14       1.0  0.9551279562169757  0.8381838202317375  0.2531648046081527  1.0000
  H   H15       1.0  0.9237039919675591  0.8548709076341375  0.017681311893328555  1.0000
  H   H16       1.0  0.7626161641033267  0.15426442916423877  0.06594009834885362  1.0000
  H   H17       1.0  0.7924809164937168  0.1367965414396184  0.30188433869854303  1.0000
  H   H18       1.0  0.7621161837970511  0.04973589148293578  0.4184144305696238  1.0000
  C   C31       1.0  0.9211403387018857  0.46094934279194777  0.26074041863151853  1.0000
  C   C32       1.0  0.8418153457923984  0.4331010458122315  0.2549452834687096  1.0000
  C   C33       1.0  0.801735090686236  0.41915023551434993  0.13485076654508155  1.0000
  C   C34       1.0  0.8419964040287562  0.4334262823342898  0.019651966101176477  1.0000
  C   C35       1.0  0.9212721808489822  0.4612499927806095  0.02349614483055862  1.0000
  C   C36       1.0  0.9603812521172738  0.4748454521679595  0.14453610753127744  1.0000
  C   C37       1.0  0.7178690121866617  0.3897208103450822  0.12969694691392508  1.0000
  C   C38       1.0  0.6693550886268436  0.45284320822808444  0.03304082538327835  1.0000
  C   C39       1.0  0.5904321642635169  0.42519232870349666  0.028268713806049117  1.0000
  C   C40       1.0  0.5586946564268821  0.333085807399633  0.11917541325141356  1.0000
  C   C41       1.0  0.6066940451058214  0.271037298125121  0.21670759383697558  1.0000
  C   C42       1.0  0.6856206048704805  0.29865868664592043  0.22165816433609042  1.0000
  C   C43       1.0  0.47366942176566385  0.30608207374619045  0.11615931967678605  1.0000
  O   O1        1.0  0.4392220498557831  0.392172245293678  0.19281715537842614  1.0000
  H   H19       1.0  0.07077273998568501  0.5143398293953318  0.47889908737954223  1.0000
  H   H20       1.0  0.8108827270669547  0.42398511549755824  0.34389848933147094  1.0000
  H   H21       1.0  0.8115546826914446  0.42104296492031446  0.9269919330607315  1.0000
  H   H22       1.0  0.021528616331039085  0.49631034039816324  0.14821702295526928  1.0000
  H   H23       1.0  0.9517542950766846  0.4720374505699467  0.6974918354477473  1.0000
  H   H24       1.0  0.692299449772091  0.5251078674581648  0.9623266696400101  1.0000
  H   H25       1.0  0.5540381621253103  0.475886763621163  0.9537944047534697  1.0000
  H   H26       1.0  0.5830425431320941  0.20094832028960807  0.28880296708253095  1.0000
  H   H27       1.0  0.7215534804695795  0.24774358621918857  0.2966181202220053  1.0000
  H   H28       1.0  0.4614780502550268  0.2037535190674813  0.15402547612363282  1.0000
  H   H29       1.0  0.4493869129695501  0.31838745499605614  0.014040200250605261  1.0000
  H   H30       1.0  0.3834467664849665  0.3703799750466499  0.18756786910213386  1.0000
  Zn  Zn1       1.0  0.8371383894652847  0.4574279009261588  0.6352560771025229  1.0000
  Zn  Zn2       1.0  0.005266767203802258  0.46477048779325303  0.648979304319869  1.0000
  C   C44       1.0  0.9212447928513752  0.4560189373739896  0.8793209609433614  1.0000
  C   C45       1.0  0.9211622000310178  0.4661811703455112  0.40491469713765404  1.0000
  C   C46       1.0  0.9212353693283376  0.6983112112531369  0.6368459744221868  1.0000
  C   C47       1.0  0.9211715659721528  0.22388733354326495  0.6473897488524134  1.0000
  O   O2        1.0  0.9849733792249166  0.4707178266575405  0.4585087975722153  1.0000
  O   O3        1.0  0.9850391619302717  0.4570541546389775  0.8361420989775044  1.0000
  O   O4        1.0  0.9850306924433071  0.6527081929696952  0.6403417610544737  1.0000
  O   O5        1.0  0.9849817913255556  0.2750637950739825  0.6543090334316963  1.0000
  O   O6        1.0  0.8574233079695662  0.6471345911411761  0.6299263433008002  1.0000
  O   O7        1.0  0.8574317776644693  0.45148211322930343  0.8257266113403505  1.0000
  O   O8        1.0  0.8573659947338014  0.46514573937454373  0.44809174852032463  1.0000
  O   O9        1.0  0.8573744068468016  0.26949169853957256  0.6438920817534595  1.0000
