data_image0
_chemical_formula_structural       NC11NC3H8C12NH11C12NCOCH13Zn2C4O8
_chemical_formula_sum              "N4 C44 H32 O9 Zn2"
_cell_length_a       17.807433833752565
_cell_length_b       10.299770795358612
_cell_length_c       10.299158637457994
_cell_angle_alpha    85.57628442395506
_cell_angle_beta     88.50589662061448
_cell_angle_gamma    90.70213480944165

_space_group_name_H-M_alt    "P 1"
_space_group_IT_number       1

loop_
  _space_group_symop_operation_xyz
  'x, y, z'

loop_
  _atom_site_type_symbol
  _atom_site_label
  _atom_site_symmetry_multiplicity
  _atom_site_fract_x
  _atom_site_fract_y
  _atom_site_fract_z
  _atom_site_occupancy
  N   N1        1.0  0.7079384771701839  0.4379574738929719  0.5345154181168921  1.0000
  C   C1        1.0  0.6571006011082804  0.4032543485670377  0.6010815245630106  1.0000
  C   C2        1.0  0.5938531597303692  0.3600865201206771  0.6838812663464007  1.0000
  C   C3        1.0  0.6055464395800662  0.29657981761917673  0.80660657228948  1.0000
  C   C4        1.0  0.5442071100167436  0.2550909547519198  0.8871222152831968  1.0000
  C   C5        1.0  0.4710199795943346  0.276795753042963  0.8455533823930108  1.0000
  C   C6        1.0  0.45835001836353917  0.3404568437524307  0.7223678605749095  1.0000
  C   C7        1.0  0.3805954160485985  0.3634907753604424  0.678018230274857  1.0000
  C   C8        1.0  0.36183257061995344  0.34657253094269036  0.5484376293939126  1.0000
  C   C9        1.0  0.2886154988298831  0.36823858557882727  0.5068247276584672  1.0000
  C   C10       1.0  0.23321840595298574  0.4071411210874034  0.5939721156201228  1.0000
  C   C11       1.0  0.1578649799723438  0.4294651578161126  0.5509978472123607  1.0000
  N   N2        1.0  0.0972861980562822  0.4474120248300162  0.5164496630740834  1.0000
  C   C12       1.0  0.2512898228867343  0.42426975399952616  0.723021558072634  1.0000
  C   C13       1.0  0.3244540798963278  0.4025688600485058  0.7648898952943486  1.0000
  C   C14       1.0  0.5205466559872064  0.38194114751521435  0.641868633999821  1.0000
  H   H1        1.0  0.6620030008351442  0.2791771843694679  0.8399739928191585  1.0000
  H   H2        1.0  0.5533790001478731  0.20567230775255374  0.9818636957458713  1.0000
  H   H3        1.0  0.4243629099152347  0.242262246150438  0.9089961509462889  1.0000
  H   H4        1.0  0.40351785977670745  0.3149063165751582  0.47972288865443846  1.0000
  H   H5        1.0  0.2751898694611445  0.35432234784701855  0.4067900938212501  1.0000
  H   H6        1.0  0.2088876259536403  0.4547127598139431  0.7912216260387335  1.0000
  H   H7        1.0  0.337351586603866  0.4180304408814013  0.8647416432420123  1.0000
  H   H8        1.0  0.5120734439255313  0.4327222292031174  0.5473613586454495  1.0000
  C   C15       1.0  0.9025478413952509  0.06131465659117663  0.5255251025049379  1.0000
  C   C16       1.0  0.8807669081805634  0.06991503109785091  0.3951240085116252  1.0000
  C   C17       1.0  0.8697992527053207  0.9571384121490082  0.3290104529108213  1.0000
  C   C18       1.0  0.8809044294927314  0.8346367331221315  0.39504907395808764  1.0000
  C   C19       1.0  0.9026840030595  0.824045033978427  0.5254507815922294  1.0000
  C   C20       1.0  0.9133841084394339  0.937935550154903  0.5899584218671865  1.0000
  C   C21       1.0  0.8467566184520628  0.9672905223619981  0.19105364882424514  1.0000
  C   C22       1.0  0.7920609896330564  0.05712442912625626  0.1484039180431218  1.0000
  C   C23       1.0  0.7704054756248865  0.06655115182559812  0.01855641844466538  1.0000
  C   C24       1.0  0.8030357107381214  0.9865527307184901  0.9292975082315973  1.0000
  C   C25       1.0  0.8575512254681701  0.8969122202161458  0.9710650285152851  1.0000
  C   C26       1.0  0.879266927403801  0.8872309228017401  0.10087976206430938  1.0000
  N   N3        1.0  0.7808529152706997  0.9963256599484559  0.7964899389221998  1.0000
  H   H9        1.0  0.9108154313234542  0.3854890040947525  0.5752325801307356  1.0000
  H   H10       1.0  0.8732765174919104  0.16462047941807478  0.34411880263366434  1.0000
  H   H11       1.0  0.8715280371569317  0.7473624656059699  0.3450714916184241  1.0000
  H   H12       1.0  0.9301865407231085  0.9305327008089286  0.6905571183632024  1.0000
  H   H13       1.0  0.9110156958423538  0.4925574528943915  0.5751236630952512  1.0000
  H   H14       1.0  0.765324153562347  0.11890943393762221  0.21584841159221368  1.0000
  H   H15       1.0  0.728055505174968  0.13599241488166536  0.9876095615397849  1.0000
  H   H16       1.0  0.8833590823213863  0.8347588609958242  0.90297435969183  1.0000
  H   H17       1.0  0.9221930996136104  0.8183134196052533  0.13036032594809877  1.0000
  H   H18       1.0  0.804857430535383  0.9370901089468849  0.7292358379956281  1.0000
  H   H19       1.0  0.7402615722665907  0.06286925058747461  0.7644383031564965  1.0000
  C   C27       1.0  0.9026863350786565  0.44254358291644236  0.1441116188505962  1.0000
  C   C28       1.0  0.9044562794054737  0.5792896807266583  0.13270376936651274  1.0000
  C   C29       1.0  0.9052947266282636  0.6487602702220587  0.009764921858626652  1.0000
  C   C30       1.0  0.9043125264595767  0.5796460593491544  0.8973989288820743  1.0000
  C   C31       1.0  0.9025455162771041  0.4428161239873174  0.9068643435456103  1.0000
  C   C32       1.0  0.9017465851662051  0.3751063011483713  0.030607846666197425  1.0000
  C   C33       1.0  0.907168010853597  0.7934208835351639  0.9986703137308113  1.0000
  C   C34       1.0  0.9532911730893997  0.8623747265558628  0.0790915293629324  1.0000
  C   C35       1.0  0.9550601550171052  0.99850814177101  0.06851977662785114  1.0000
  C   C36       1.0  0.9112174904421171  0.06842880288744668  0.976398203489532  1.0000
  C   C37       1.0  0.8641997131803261  0.9998136235493975  0.8978015454216393  1.0000
  C   C38       1.0  0.8624615799411535  0.8637088668535686  0.9081108774281867  1.0000
  N   N4        1.0  0.9109555924860016  0.20846827165118897  0.9651624996961816  1.0000
  C   C39       1.0  0.9753363695484513  0.28901943987330947  0.9853997485855643  1.0000
  O   O1        1.0  0.040101255404434655  0.24117951136644322  0.9909151822056121  1.0000
  C   C40       1.0  0.9665495226513565  0.4326210685777525  0.9903972061253601  1.0000
  H   H20       1.0  0.9020290754779765  0.3899438941874418  0.475974247131872  1.0000
  H   H21       1.0  0.9041372962071469  0.6320991272492527  0.21966471938766907  1.0000
  H   H22       1.0  0.9059507230077551  0.6326993871417033  0.8023465844318043  1.0000
  H   H23       1.0  0.9003839575355935  0.26963090350119123  0.03869197102878896  1.0000
  H   H24       1.0  0.8996664602709048  0.1845524766237654  0.7174164412794131  1.0000
  H   H25       1.0  0.9884436244584672  0.8110013464291843  0.14965764262995607  1.0000
  H   H26       1.0  0.9897361402551587  0.04868970797049332  0.1339379252681563  1.0000
  H   H27       1.0  0.8290688089530918  0.05206253331904298  0.827803644973883  1.0000
  H   H28       1.0  0.8253243341956624  0.8134207538357148  0.8464911777698823  1.0000
  H   H29       1.0  0.862264352956184  0.2547408487547518  0.9324708202432674  1.0000
  H   H30       1.0  0.9137271085411505  0.4530530381874449  0.04426404301149822  1.0000
  H   H31       1.0  0.9645379879278694  0.47923951502338724  0.8897675884814666  1.0000
  H   H32       1.0  0.014486496631845647  0.47455272207628196  0.040824050306371484  1.0000
  Zn  Zn1       1.0  0.8202958168408765  0.4406823810876761  0.5293095164563901  1.0000
  Zn  Zn2       1.0  0.9849288397746901  0.44467650179055296  0.521666151988565  1.0000
  C   C41       1.0  0.9025695321275917  0.43759085150509347  0.7626883025293165  1.0000
  C   C42       1.0  0.9026569225444696  0.4477697136593539  0.288287409759705  1.0000
  C   C43       1.0  0.902655358519006  0.6798708072513215  0.5202897753061306  1.0000
  C   C44       1.0  0.9025710396839731  0.20548819626721015  0.5306860089829564  1.0000
  O   O2        1.0  0.9651244246289966  0.4510337331090215  0.3337735058208271  1.0000
  O   O3        1.0  0.9650546849950994  0.4373572973919342  0.7114006959346137  1.0000
  O   O4        1.0  0.965123148417387  0.6330014057547158  0.5156622091628702  1.0000
  O   O5        1.0  0.9650559050482469  0.25538963263877923  0.5295118978232627  1.0000
  O   O6        1.0  0.8401686953861505  0.6299692488778637  0.521463773223166  1.0000
  O   O7        1.0  0.8401002322517758  0.4343267007994116  0.717202190596318  1.0000
  O   O8        1.0  0.8401699722158332  0.44800309070372735  0.3395734390535037  1.0000
  O   O9        1.0  0.8401014526123762  0.25235898097936027  0.5353119284267214  1.0000
