data_image0
_chemical_formula_structural       NC10NC3NH7C12NH11C12NCOH11Zn2C4O8
_chemical_formula_sum              "N5 C42 H29 O9 Zn2"
_cell_length_a       19.210446455230148
_cell_length_b       10.299770795358612
_cell_length_c       10.299148425239203
_cell_angle_alpha    85.53227456119625
_cell_angle_beta     89.97590399293749
_cell_angle_gamma    89.96457025778629

_space_group_name_H-M_alt    "P 1"
_space_group_IT_number       1

loop_
  _space_group_symop_operation_xyz
  'x, y, z'

loop_
  _atom_site_type_symbol
  _atom_site_label
  _atom_site_symmetry_multiplicity
  _atom_site_fract_x
  _atom_site_fract_y
  _atom_site_fract_z
  _atom_site_occupancy
  N   N1        1.0  0.6558965930490311  0.420781277678866  0.5671632613645294  1.0000
  C   C1        1.0  0.5956681979057521  0.42298865452428425  0.567394333119948  1.0000
  C   C2        1.0  0.5208639495432043  0.42572539769325957  0.5676806021056451  1.0000
  C   C3        1.0  0.48526077367927345  0.5419473293865091  0.5827885573451779  1.0000
  C   C4        1.0  0.4125953124476313  0.5420988867256815  0.5827359501414817  1.0000
  C   C5        1.0  0.3756972424376143  0.42643431469523474  0.5677670615215185  1.0000
  C   C6        1.0  0.2983750222586055  0.42507792779863496  0.5676165159465758  1.0000
  C   C7        1.0  0.2606365077218583  0.5286741668243526  0.5042461910090084  1.0000
  C   C8        1.0  0.1878580529201372  0.5272720075765394  0.5041371678620183  1.0000
  C   C9        1.0  0.151816728172565  0.42253113671142417  0.5673474587065985  1.0000
  C   C10       1.0  0.0768871199936193  0.42122913693481334  0.5672106750737085  1.0000
  N   N2        1.0  0.0166491968161785  0.42018228489129283  0.5671007359129268  1.0000
  C   C11       1.0  0.188831598183558  0.319060598860873  0.6306927682757109  1.0000
  C   C12       1.0  0.2616118741334998  0.320188473063856  0.6308520520547618  1.0000
  C   C13       1.0  0.4139103922096411  0.3120324821591953  0.552947214244452  1.0000
  N   N3        1.0  0.4846805151702784  0.31447734239142  0.5531126861617566  1.0000
  H   H1        1.0  0.5133674612129991  0.6313741390544532  0.5948340592299468  1.0000
  H   H2        1.0  0.3853320680719873  0.6321069444381775  0.5961762439920553  1.0000
  H   H3        1.0  0.2873759523519385  0.6099482901385447  0.45324878071301744  1.0000
  H   H4        1.0  0.1597235885807304  0.6077178613469811  0.45447027406351603  1.0000
  H   H5        1.0  0.1614526659260169  0.2376514083703618  0.6802602109692444  1.0000
  H   H6        1.0  0.2891013121208345  0.23986117725269973  0.6819567628331844  1.0000
  H   H7        1.0  0.3876393797402402  0.22116153885233625  0.53946070627099  1.0000
  C   C14       1.0  0.836213135754386  0.039113341733084006  0.5671716058939504  1.0000
  C   C15       1.0  0.8160274438649598  0.04837737670192199  0.4357553953251998  1.0000
  C   C16       1.0  0.8058630471858294  0.9359352872956913  0.3691306566289818  1.0000
  C   C17       1.0  0.8161548627984302  0.8130955805490669  0.4356868155407585  1.0000
  C   C18       1.0  0.8363392949160086  0.8018402556270513  0.5671035769141839  1.0000
  C   C19       1.0  0.8462557368012329  0.9154043976223294  0.6321099306641782  1.0000
  C   C20       1.0  0.7845080615096247  0.9467895032654458  0.23009993333221068  1.0000
  C   C21       1.0  0.7338279562276377  0.03807054303662172  0.18491835661258338  1.0000
  C   C22       1.0  0.7137584911582152  0.04815725669745308  0.054061573721338574  1.0000
  C   C23       1.0  0.7439892846119844  0.9673838798739994  0.9663061472432908  1.0000
  C   C24       1.0  0.7945024740200773  0.8763015733016716  0.010597131016727657  1.0000
  C   C25       1.0  0.8146277055852018  0.8659587538815564  0.14142392910477586  1.0000
  N   N4        1.0  0.7234311629492202  0.9778327146490972  0.8324647322361511  1.0000
  H   H8        1.0  0.8438752122804962  0.363035615766651  0.617264413431291  1.0000
  H   H9        1.0  0.8090854436943423  0.14331580216168804  0.38440072034419037  1.0000
  H   H10       1.0  0.807465407525508  0.7261022650847424  0.3852726132034552  1.0000
  H   H11       1.0  0.8618275546088305  0.9074895789354429  0.7334917172179352  1.0000
  H   H12       1.0  0.8440607652828817  0.4700989702098721  0.6171647504995834  1.0000
  H   H13       1.0  0.709057002890599  0.10049492390886394  0.2511305675234876  1.0000
  H   H14       1.0  0.6745177478058004  0.11871741264267133  0.021154474079287056  1.0000
  H   H15       1.0  0.818412652531828  0.8135333566287786  0.9436957473798886  1.0000
  H   H16       1.0  0.8544022838059839  0.795908588559778  0.17289129169680773  1.0000
  H   H17       1.0  0.7456704692491635  0.9180282909516514  0.7663165764070574  1.0000
  H   H18       1.0  0.6858198525243632  0.04545057624417037  0.7985341098556109  1.0000
  C   C26       1.0  0.8363286003961291  0.42063254670609584  0.18574137935890356  1.0000
  C   C27       1.0  0.9069596334546599  0.4560741432974744  0.18175653854409024  1.0000
  C   C28       1.0  0.9426604400592591  0.47382975479725586  0.06260404203736258  1.0000
  C   C29       1.0  0.9068128335939977  0.45573423695501214  0.9464994393008972  1.0000
  C   C30       1.0  0.836223826615283  0.4203210442284251  0.9485338141408532  1.0000
  C   C31       1.0  0.8013958337084582  0.40296885159172824  0.06866050848532379  1.0000
  C   C32       1.0  0.017337531139722806  0.511298515809691  0.05948123031594643  1.0000
  C   C33       1.0  0.06410278842965633  0.45384999015588434  0.9758801957213996  1.0000
  C   C34       1.0  0.13434023490209546  0.48924668964509  0.9730907420779449  1.0000
  C   C35       1.0  0.15945673292789442  0.5814778483948531  0.05458715360401123  1.0000
  C   C36       1.0  0.11262269921262891  0.6407727016898093  0.1366196389611627  1.0000
  C   C37       1.0  0.04235381263905991  0.6054827228367687  0.13950592979181886  1.0000
  N   N5        1.0  0.23175473646605593  0.6175647404248632  0.048035998237230704  1.0000
  C   C38       1.0  0.27180064864337194  0.6541712453096409  0.15675588845890642  1.0000
  O   O1        1.0  0.24824525200886915  0.6400478263574909  0.27112140878308666  1.0000
  H   H19       1.0  0.7031266282187119  0.3529742121331323  0.4006154890950666  1.0000
  H   H20       1.0  0.9345794425559504  0.46822368868084774  0.2716770693902322  1.0000
  H   H21       1.0  0.9338234817269744  0.4710810543404149  0.8542604890994356  1.0000
  H   H22       1.0  0.7469495816835116  0.37565023414385657  0.07094476839509611  1.0000
  H   H23       1.0  0.8090754343600248  0.40666387845412344  0.6218431543769398  1.0000
  H   H24       1.0  0.04654069438349828  0.38036945989976956  0.9137169447439808  1.0000
  H   H25       1.0  0.16950482740690154  0.44365041667023175  0.9081337917480576  1.0000
  H   H26       1.0  0.12979013561240516  0.7164184224447525  0.19637615683329068  1.0000
  H   H27       1.0  0.007271798470329438  0.653745108885248  0.2025700541901856  1.0000
  H   H28       1.0  0.2585255184618864  0.6085809858105513  0.9608490809019732  1.0000
  H   H29       1.0  0.3240736251383731  0.6911241826234953  0.14091965712674592  1.0000
  Zn  Zn1       1.0  0.7600019993684775  0.4206049541874848  0.5671527177830153  1.0000
  Zn  Zn2       1.0  0.9125437713453951  0.4203480215045243  0.5671219169768222  1.0000
  C   C39       1.0  0.8362412284491609  0.4152062535963028  0.8043502018734536  1.0000
  C   C40       1.0  0.8363062082696576  0.4257483578555121  0.32992455987957414  1.0000
  C   C41       1.0  0.8363125801084822  0.6576707458593731  0.5619409328251912  1.0000
  C   C42       1.0  0.8362348042908887  0.18328230535118406  0.5723338983210056  1.0000
  O   O2        1.0  0.8941874998173923  0.4273621004621764  0.3783020641514825  1.0000
  O   O3        1.0  0.8941356121448563  0.4133965254596763  0.7559489467168317  1.0000
  O   O4        1.0  0.8941924489578286  0.6091896701070334  0.5602017469117802  1.0000
  O   O5        1.0  0.8941306109671577  0.23156896523247172  0.5740491665845722  1.0000
  O   O6        1.0  0.7784151076916955  0.6093840105486321  0.5602254681789447  1.0000
  O   O7        1.0  0.7783582711431517  0.4135924262316282  0.7559725985945065  1.0000
  O   O8        1.0  0.7784101590689633  0.4275579566158214  0.37832415452063684  1.0000
  O   O9        1.0  0.7783532702009717  0.23176481205755906  0.5740713543293678  1.0000
