data_image0
_chemical_formula_structural       NC12NC2H8C12NH11C12BrH9Zn2C4O8
_chemical_formula_sum              "N3 C42 H28 Br1 Zn2 O8"
_cell_length_a       19.240039667572717
_cell_length_b       10.299770795358612
_cell_length_c       10.299148005577397
_cell_angle_alpha    85.54782545814984
_cell_angle_beta     89.9732799682917
_cell_angle_gamma    90.01598423534

_space_group_name_H-M_alt    "P 1"
_space_group_IT_number       1

loop_
  _space_group_symop_operation_xyz
  'x, y, z'

loop_
  _atom_site_type_symbol
  _atom_site_label
  _atom_site_symmetry_multiplicity
  _atom_site_fract_x
  _atom_site_fract_y
  _atom_site_fract_z
  _atom_site_occupancy
  N   N1        1.0  0.6550470646368881  0.4214802594192417  0.5673069865131195  1.0000
  C   C1        1.0  0.5948986958526077  0.42148034341229024  0.5673069045678323  1.0000
  C   C2        1.0  0.5200806587632425  0.4214804607177973  0.5673067672503502  1.0000
  C   C3        1.0  0.48357149801042365  0.3570001792448747  0.6707271701423172  1.0000
  C   C4        1.0  0.41090071174234144  0.35688928553549726  0.6708137222370338  1.0000
  C   C5        1.0  0.373748423896581  0.4214805533160475  0.5673065395526453  1.0000
  C   C6        1.0  0.41097181441739217  0.48607200805420003  0.4637995514093578  1.0000
  C   C7        1.0  0.4836424646472746  0.4859608788278744  0.46388622602244367  1.0000
  C   C8        1.0  0.2965433334690272  0.42148047466896  0.5673064441361921  1.0000
  C   C9        1.0  0.2593281543638917  0.30821376632321296  0.6091847007462088  1.0000
  C   C10       1.0  0.1866575047470403  0.3083206797180942  0.6090933656176727  1.0000
  C   C11       1.0  0.15021104651132988  0.42148034548739877  0.567306505055716  1.0000
  C   C12       1.0  0.0753930092773067  0.4214802317083364  0.5673067537343857  1.0000
  N   N2        1.0  0.0152446923670749  0.4214801908543404  0.567306962166096  1.0000
  C   C13       1.0  0.1867120991567628  0.5346400870919286  0.5255195915967263  1.0000
  C   C14       1.0  0.2593828342094232  0.5347471806312463  0.5254280938568623  1.0000
  H   H1        1.0  0.5112587511166979  0.30707804357882984  0.7514748624744343  1.0000
  H   H2        1.0  0.38377963281775496  0.30776506994640385  0.7526769388515839  1.0000
  H   H3        1.0  0.3839063625705861  0.5351962507031265  0.3819362839425442  1.0000
  H   H4        1.0  0.5113849829202505  0.5358829141911678  0.3831388095043209  1.0000
  H   H5        1.0  0.2864003315436893  0.2190539689537201  0.6403581368719069  1.0000
  H   H6        1.0  0.1589214411704974  0.22005990931618724  0.6412997770138171  1.0000
  H   H7        1.0  0.1590183392782182  0.6229008329548895  0.4933131947529168  1.0000
  H   H8        1.0  0.28649713586983894  0.6239070571837793  0.4942546129536063  1.0000
  C   C15       1.0  0.8350862241913013  0.04011169169987938  0.5673465519763174  1.0000
  C   C16       1.0  0.8149462077170411  0.04930644828809272  0.43592961245990614  1.0000
  C   C17       1.0  0.8048048608128526  0.9368293514347557  0.3693045161949706  1.0000
  C   C18       1.0  0.8150734382724213  0.8140248450149408  0.43586105618106674  1.0000
  C   C19       1.0  0.8352121968514579  0.8028387965319498  0.5672785462724346  1.0000
  C   C20       1.0  0.8451061504816323  0.9164370938618891  0.6322852487234649  1.0000
  C   C21       1.0  0.78349819660606  0.9476102754047293  0.23027302176664954  1.0000
  C   C22       1.0  0.7329010805682566  0.03879487842074614  0.1850836209922111  1.0000
  C   C23       1.0  0.7128770498699364  0.048812658914701545  0.054226117502361504  1.0000
  C   C24       1.0  0.743071104252589  0.9680655889059313  0.9664777724972415  1.0000
  C   C25       1.0  0.7935016602870222  0.8770791995914669  0.010776570170383248  1.0000
  C   C26       1.0  0.8135813750316702  0.866805397762616  0.14160409914392602  1.0000
  N   N3        1.0  0.7225595007862051  0.9784438669514575  0.8326356151048162  1.0000
  H   H9        1.0  0.8427309399055902  0.364060319516887  0.6174396317892701  1.0000
  H   H10       1.0  0.808020601076671  0.14421937202915225  0.38457481644224534  1.0000
  H   H11       1.0  0.8064029599992644  0.7270033826184815  0.38544641044641725  1.0000
  H   H12       1.0  0.8606427325745749  0.9085757194652291  0.7336675975329092  1.0000
  H   H13       1.0  0.8429162185606771  0.47112395489598213  0.6173400030831098  1.0000
  H   H14       1.0  0.7081608646590343  0.10119615394191217  0.25129014923471926  1.0000
  H   H15       1.0  0.673700332640905  0.11929871057674135  0.021312916126121628  1.0000
  H   H16       1.0  0.8173825021961808  0.8143324716282235  0.9438807346682379  1.0000
  H   H17       1.0  0.8532912661369246  0.796829831177926  0.17307768620602393  1.0000
  H   H18       1.0  0.74477195698114  0.9186583629353836  0.7664927022509911  1.0000
  H   H19       1.0  0.6850098238111437  0.045990050930953874  0.7986991946637882  1.0000
  C   C27       1.0  0.8352439556818875  0.4215272801684662  0.18592437400371087  1.0000
  C   C28       1.0  0.7698789297725932  0.48230709568185226  0.18048193349590402  1.0000
  C   C29       1.0  0.7366395927404819  0.5130704961052688  0.06058423871185581  1.0000
  C   C30       1.0  0.7696469528169365  0.4822342907174644  0.9452049051068925  1.0000
  C   C31       1.0  0.8350544584103612  0.4214232083949172  0.9487007367276772  1.0000
  C   C32       1.0  0.8674500705487408  0.3914421821008205  0.06948418865983452  1.0000
  C   C33       1.0  0.667491781210486  0.577370137573187  0.05587170954770104  1.0000
  C   C34       1.0  0.6529092901884548  0.6786878856315195  0.13594069452460378  1.0000
  C   C35       1.0  0.5877959530980583  0.7390968440736205  0.13131044886410015  1.0000
  C   C36       1.0  0.5365250459954957  0.699153149330634  0.04694936901141067  1.0000
  C   C37       1.0  0.5504095998426781  0.5986222667844006  0.9670278486736685  1.0000
  C   C38       1.0  0.6154638106375157  0.5379913429534637  0.9712655756617821  1.0000
  Br  Br1       1.0  0.4476211619527927  0.7818238053233371  0.04089177688134549  1.0000
  H   H20       1.0  0.86040036256556  0.3982014290460629  0.5154892547005794  1.0000
  H   H21       1.0  0.7442358250739673  0.5042533334590531  0.26981949247192727  1.0000
  H   H22       1.0  0.7446905284358568  0.5073292487708483  0.8523861976883542  1.0000
  H   H23       1.0  0.9178687531846896  0.3445651318711769  0.07296603667629431  1.0000
  H   H24       1.0  0.958701883250137  0.3073807177901837  0.7479499730986583  1.0000
  H   H25       1.0  0.6921314349533221  0.71230498448945  0.20084527249025075  1.0000
  H   H26       1.0  0.5773132099076851  0.8171631646167203  0.19310799659597166  1.0000
  H   H27       1.0  0.5107766628762216  0.5671571538045237  0.9018160779728261  1.0000
  H   H28       1.0  0.6247834470063607  0.4592357314280282  0.9096691835727913  1.0000
  Zn  Zn1       1.0  0.7589923260413094  0.42147677141229445  0.5673144686005214  1.0000
  Zn  Zn2       1.0  0.9112994453509716  0.4214730839452303  0.567310080458324  1.0000
  C   C39       1.0  0.8350878811124387  0.4162691995803567  0.8045201605438603  1.0000
  C   C40       1.0  0.8352055537078295  0.4266822943374786  0.3301045157939644  1.0000
  C   C41       1.0  0.8351860976238359  0.6586678373714991  0.5621160062242789  1.0000
  C   C42       1.0  0.8351072849497462  0.18428209623710168  0.5725087394961952  1.0000
  O   O1        1.0  0.8929924227415271  0.4284052990738585  0.3784910237083481  1.0000
  O   O2        1.0  0.8928985914189819  0.414542416471273  0.7561299483534367  1.0000
  O   O3        1.0  0.8929771229901953  0.610282381871392  0.5603868785929005  1.0000
  O   O4        1.0  0.8929138392239361  0.23266534297849772  0.5742339960899623  1.0000
  O   O5        1.0  0.7773778801934023  0.6102845123817002  0.5603905529635489  1.0000
  O   O6        1.0  0.7772993488939319  0.41454610729348773  0.756133553336102  1.0000
  O   O7        1.0  0.7773931806431232  0.4284089448532149  0.37849306721540454  1.0000
  O   O8        1.0  0.7773145970969668  0.2326689794557686  0.574236136970607  1.0000
