data_image0
_chemical_formula_structural       NC10NC3NH7C12NCOCH13C12OCH12Zn2C4O8
_chemical_formula_sum              "N4 C44 H32 O10 Zn2"
_cell_length_a       19.210446455230148
_cell_length_b       10.299155265289647
_cell_length_c       10.299794127170987
_cell_angle_alpha    85.56075829467142
_cell_angle_beta     89.98403246644892
_cell_angle_gamma    89.9251083167036

_space_group_name_H-M_alt    "P 1"
_space_group_IT_number       1

loop_
  _space_group_symop_operation_xyz
  'x, y, z'

loop_
  _atom_site_type_symbol
  _atom_site_label
  _atom_site_symmetry_multiplicity
  _atom_site_fract_x
  _atom_site_fract_y
  _atom_site_fract_z
  _atom_site_occupancy
  N   N1        1.0  0.6552636836796272  0.4198782415404716  0.5670371848290834  1.0000
  C   C1        1.0  0.5950344909203615  0.42208595030921736  0.567267771657876  1.0000
  C   C2        1.0  0.520229253643564  0.4248231048486517  0.567553439448943  1.0000
  C   C3        1.0  0.4845843043264207  0.5410645898204383  0.5826355164826866  1.0000
  C   C4        1.0  0.4119187831562567  0.541216121603695  0.5825828840389244  1.0000
  C   C5        1.0  0.3750622913027957  0.42553213709890514  0.5676397416858019  1.0000
  C   C6        1.0  0.2977405605954673  0.42417554020074877  0.5674894950947058  1.0000
  C   C7        1.0  0.2599590038812932  0.527734956872016  0.5041051419195495  1.0000
  C   C8        1.0  0.1871810585907386  0.5263326134402349  0.5039964223637547  1.0000
  C   C9        1.0  0.1511831865841958  0.4216283644190657  0.5672209976342255  1.0000
  C   C10       1.0  0.0762540488343923  0.42032616851600535  0.5670845000880222  1.0000
  N   N2        1.0  0.0160165039009472  0.419279158808066  0.5669747909460037  1.0000
  C   C11       1.0  0.1882410504667176  0.31819464087158233  0.630580312316904  1.0000
  C   C12       1.0  0.2610209219841468  0.31932271377403687  0.6307393434709541  1.0000
  C   C13       1.0  0.4133165642255237  0.3111110938678494  0.5528453612883757  1.0000
  N   N3        1.0  0.4840857969213915  0.3135562578637099  0.5530103067488576  1.0000
  H   H1        1.0  0.5126588811262649  0.6305067417755585  0.5946610569270292  1.0000
  H   H2        1.0  0.3846233188273571  0.6312405508501142  0.5960029318394315  1.0000
  H   H3        1.0  0.2866645838731955  0.6089792871196444  0.45309687684654887  1.0000
  H   H4        1.0  0.1590131360037165  0.6067495502387801  0.45431868903181694  1.0000
  H   H5        1.0  0.1608959246551825  0.236814223479203  0.6801588060102735  1.0000
  H   H6        1.0  0.288543883100528  0.23902535918305978  0.6818547000601494  1.0000
  H   H7        1.0  0.3870780868392203  0.22022368042210627  0.539379283738274  1.0000
  C   C14       1.0  0.8357211587175079  0.03818112967124354  0.5671246749984129  1.0000
  C   C15       1.0  0.8238386910911605  0.04787350607848584  0.4322084155346295  1.0000
  C   C16       1.0  0.8177466204744895  0.9356501498829862  0.36368532363118367  1.0000
  C   C17       1.0  0.8236722705305359  0.8126139502472509  0.43190067517845754  1.0000
  C   C18       1.0  0.8355657030285879  0.8009663384168483  0.5668985191561222  1.0000
  C   C19       1.0  0.8415200235885546  0.9142671128292238  0.6336794153742686  1.0000
  C   C20       1.0  0.8051772638151534  0.9468771816758904  0.2209602120212535  1.0000
  C   C21       1.0  0.8404843819900557  0.04091289587345215  0.13954065559810291  1.0000
  C   C22       1.0  0.8286615169338595  0.05134738566228081  0.0052268140922100415  1.0000
  C   C23       1.0  0.7817279719886359  0.9670716535705665  0.9494872096720002  1.0000
  C   C24       1.0  0.7455705808540406  0.8748536229977284  0.03083875716807971  1.0000
  C   C25       1.0  0.7574188011173252  0.8641630640878696  0.16511526072479965  1.0000
  N   N4        1.0  0.767665202617259  0.9773080105433685  0.8119355923388452  1.0000
  C   C26       1.0  0.8184980524580983  0.014140125333005793  0.7137140754034919  1.0000
  O   O1        1.0  0.8823553444410027  0.016574070178837275  0.7415600282991313  1.0000
  C   C27       1.0  0.7962997660037274  0.04059553525084203  0.5751850822829203  1.0000
  H   H8        1.0  0.8403132711118193  0.3619291769660906  0.6190135416186433  1.0000
  H   H9        1.0  0.8183345150082183  0.14291719395854652  0.3804023687066729  1.0000
  H   H10       1.0  0.8199310045559675  0.7258103654831886  0.3792755540805357  1.0000
  H   H11       1.0  0.850687562568282  0.9060763112737986  0.7377426998871521  1.0000
  H   H12       1.0  0.858430761949861  0.5716980444422718  0.8215690042551802  1.0000
  H   H13       1.0  0.8776522545313225  0.10590770490402979  0.17962450473878144  1.0000
  H   H14       1.0  0.8553696098795956  0.12674653910341438  0.945644795687012  1.0000
  H   H15       1.0  0.7083359589472153  0.8105627985692968  0.9898879278046575  1.0000
  H   H16       1.0  0.7284739102230743  0.7923841427339364  0.22553057098038676  1.0000
  H   H17       1.0  0.7186389390393757  0.9485145163054863  0.780872211084676  1.0000
  H   H18       1.0  0.7460522248927198  0.09412373622807801  0.5707403596309453  1.0000
  H   H19       1.0  0.7898612228985378  0.9469873851968802  0.5299644310627478  1.0000
  H   H20       1.0  0.83593041251871  0.10060971838438948  0.5197857609162022  1.0000
  C   C28       1.0  0.8356669209970813  0.4194601928747155  0.18566020213726842  1.0000
  C   C29       1.0  0.767466454007108  0.37044720192357894  0.18849321057302126  1.0000
  C   C30       1.0  0.7328895750161766  0.3457145600932141  0.07278182339490402  1.0000
  C   C31       1.0  0.7674190837498593  0.37067376381339945  0.9531882599752985  1.0000
  C   C32       1.0  0.8356199403932458  0.4196872615824292  0.9483629894867529  1.0000
  C   C33       1.0  0.8693626701071999  0.4438031393899644  0.06511879698955747  1.0000
  C   C34       1.0  0.6607393386545795  0.2938544932068796  0.07683368448215977  1.0000
  C   C35       1.0  0.6108970350372159  0.34260788132015985  0.9856795544430215  1.0000
  C   C36       1.0  0.5430870358291857  0.2937869005087259  0.9897570567255927  1.0000
  C   C37       1.0  0.5241335861287947  0.19587735392991168  0.08447607620417008  1.0000
  C   C38       1.0  0.5732894439810299  0.1457204068740381  0.17649332379943483  1.0000
  C   C39       1.0  0.6411939358388321  0.19518082327479402  0.1719642398037935  1.0000
  O   O2        1.0  0.5569248901280021  0.0471675469190711  0.27334704110216657  1.0000
  C   C40       1.0  0.4902132623361455  0.9880004637421526  0.2894133638044243  1.0000
  H   H21       1.0  0.861663494507235  0.4380779138729891  0.5120382784699042  1.0000
  H   H22       1.0  0.740727327328918  0.35306150587480367  0.2807800278354453  1.0000
  H   H23       1.0  0.7413294221080288  0.3501211452445059  0.8638673517687794  1.0000
  H   H24       1.0  0.9219767567838638  0.4816137607678528  0.062164858909629306  1.0000
  H   H25       1.0  0.8615933635948142  0.4384248245788027  0.6190669648807305  1.0000
  H   H26       1.0  0.6241195699651244  0.41965762432618203  0.912335709194831  1.0000
  H   H27       1.0  0.5050205456265427  0.33224829155372215  0.9194143797965779  1.0000
  H   H28       1.0  0.4712583016544338  0.1599283343411675  0.0853243617399202  1.0000
  H   H29       1.0  0.6789539399369088  0.15496979447208536  0.2421337224237261  1.0000
  H   H30       1.0  0.4758758131403659  0.9395650112251126  0.20056968068115322  1.0000
  H   H31       1.0  0.492017124319846  0.9135162351749048  0.37310702692039266  1.0000
  H   H32       1.0  0.45055173432685125  0.062330053416356224  0.30967526535176515  1.0000
  Zn  Zn1       1.0  0.7593691543100967  0.41970189712324446  0.5670266790521288  1.0000
  Zn  Zn2       1.0  0.9119110188322678  0.4194449230483741  0.5669959351494067  1.0000
  C   C41       1.0  0.8356283024443759  0.414470259153614  0.8041973800040823  1.0000
  C   C42       1.0  0.8356535361085239  0.42467819699254394  0.3298253608364967  1.0000
  C   C43       1.0  0.8355918041324848  0.6567821346983067  0.5617663467601803  1.0000
  C   C44       1.0  0.8356899826823339  0.18236476113629507  0.572256463788952  1.0000
  O   O3        1.0  0.8935378877801488  0.426326220352099  0.378196839589914  1.0000
  O   O4        1.0  0.8935196965893472  0.4126262185097833  0.7558021938014725  1.0000
  O   O5        1.0  0.8934894432884054  0.6082961241806351  0.5600374189741566  1.0000
  O   O6        1.0  0.893568089032992  0.23065632403086966  0.57396151705477  1.0000
  O   O7        1.0  0.7777120320543206  0.6084904962298538  0.5600610971504258  1.0000
  O   O8        1.0  0.7777422850382915  0.4128221509596628  0.7558258022728488  1.0000
  O   O9        1.0  0.7777604763808371  0.4265221070777432  0.37821888674571014  1.0000
  O   O10       1.0  0.7777906776267269  0.23085220149599595  0.5739836615766867  1.0000
