data_image0
_chemical_formula_structural       NC8NC6H8C12OCH12C12ClH9Zn2C4O8
_chemical_formula_sum              "N2 C43 H29 O9 Cl1 Zn2"
_cell_length_a       17.457602349358154
_cell_length_b       10.29979075500242
_cell_length_c       10.299771906710086
_cell_angle_alpha    85.53978707277841
_cell_angle_beta     92.8856013609098
_cell_angle_gamma    91.67079993281202

_space_group_name_H-M_alt    "P 1"
_space_group_IT_number       1

loop_
  _space_group_symop_operation_xyz
  'x, y, z'

loop_
  _atom_site_type_symbol
  _atom_site_label
  _atom_site_symmetry_multiplicity
  _atom_site_fract_x
  _atom_site_fract_y
  _atom_site_fract_z
  _atom_site_occupancy
  N   N1        1.0  0.7220306875763906  0.45318795950973767  0.6263439402014521  1.0000
  C   C1        1.0  0.6609600409613429  0.40726645743083556  0.6157328046244599  1.0000
  C   C2        1.0  0.5849855734202548  0.3501458204875647  0.6025420934362573  1.0000
  C   C3        1.0  0.5264568601438577  0.3902862687933166  0.6774364025770214  1.0000
  C   C4        1.0  0.4519201512330275  0.33528368871091363  0.6648599190209392  1.0000
  C   C5        1.0  0.3898005597652623  0.3776660242055532  0.7441758459548657  1.0000
  C   C6        1.0  0.3152452133438083  0.3961495462447613  0.688409902341309  1.0000
  C   C7        1.0  0.2567165408241707  0.4361060423127099  0.7634121850163968  1.0000
  C   C8        1.0  0.18072271724488534  0.4551960202909453  0.7054306968085828  1.0000
  N   N2        1.0  0.11963660076240991  0.47053798295444493  0.6588137319906662  1.0000
  C   C9        1.0  0.2722510567892764  0.4578220129759323  0.8946889090451298  1.0000
  C   C10       1.0  0.3460216660099377  0.43972736377464106  0.9508424148272838  1.0000
  C   C11       1.0  0.4045387449156208  0.39995079230413944  0.8762978395522907  1.0000
  C   C12       1.0  0.4372007866072391  0.2394636489075237  0.5759562618021918  1.0000
  C   C13       1.0  0.4957177696796434  0.19960176517971995  0.501461931424654  1.0000
  C   C14       1.0  0.5694697453118492  0.2547165667641278  0.514588358688379  1.0000
  H   H1        1.0  0.538793689386668  0.46546089214606345  0.7440600837051847  1.0000
  H   H2        1.0  0.3028931426200449  0.38120776040132176  0.5863859516961951  1.0000
  H   H3        1.0  0.22739013898142824  0.4886879775208095  0.9535221662678302  1.0000
  H   H4        1.0  0.3578597083058035  0.4562268870605719  0.052492942120832886  1.0000
  H   H5        1.0  0.4610314879677687  0.3849464741302413  0.9224062759402578  1.0000
  H   H6        1.0  0.38072330793996506  0.1941318150156568  0.5653089487288945  1.0000
  H   H7        1.0  0.4838944335405029  0.12554391621257555  0.4336398032416242  1.0000
  H   H8        1.0  0.6143309132542805  0.22298077748083434  0.4562663202990267  1.0000
  C   C15       1.0  0.9209062602963908  0.08049835633328328  0.6426237174376597  1.0000
  C   C16       1.0  0.8987106066140453  0.06832492290759218  0.7722495226229855  1.0000
  C   C17       1.0  0.8874030146010228  0.945017619304276  0.8378937804597959  1.0000
  C   C18       1.0  0.898572766486426  0.833036634302649  0.7721724809094419  1.0000
  C   C19       1.0  0.9207683860223913  0.8432178517452337  0.6425457404186863  1.0000
  C   C20       1.0  0.9318126358982365  0.9673842961047278  0.5784979976796027  1.0000
  C   C21       1.0  0.8639259445373024  0.9331931233626578  0.9750322428550753  1.0000
  C   C22       1.0  0.8079513756728959  0.839871073579599  0.015526838409700372  1.0000
  C   C23       1.0  0.7859244556883619  0.8290188996905103  0.14446739922903462  1.0000
  C   C24       1.0  0.8193759443937788  0.9107980851798897  0.23454752954671954  1.0000
  C   C25       1.0  0.8755549385012861  0.004737587317660941  0.1959413381070817  1.0000
  C   C26       1.0  0.8973439668451965  0.015218348523461156  0.06645464936950563  1.0000
  O   O1        1.0  0.911025926186481  0.08896054585929147  0.28270663775742055  1.0000
  C   C27       1.0  0.8945907447006469  0.08918039822075285  0.41670090313043306  1.0000
  H   H9        1.0  0.929397332721191  0.41258989308760885  0.5932547552875109  1.0000
  H   H10       1.0  0.8891479821104773  0.15491884958188717  0.8218974855515697  1.0000
  H   H11       1.0  0.89092943456569  0.7377875649005207  0.8229162948321755  1.0000
  H   H12       1.0  0.9489362354008102  0.9760072149593113  0.47849721386387434  1.0000
  H   H13       1.0  0.9291877542199976  0.5196442351990784  0.5931332874845447  1.0000
  H   H14       1.0  0.7805040095451405  0.7764642534060084  0.9470757165388155  1.0000
  H   H15       1.0  0.7425979632954248  0.7571481337328895  0.1746080931906855  1.0000
  H   H16       1.0  0.8012040473597373  0.9002253840881674  0.3337303742315575  1.0000
  H   H17       1.0  0.9412896285788214  0.08668946788787468  0.03787737987574269  1.0000
  H   H18       1.0  0.9078484595817774  0.9932146514014325  0.4684062678804439  1.0000
  H   H19       1.0  0.9307984571772105  0.16538668801012113  0.46187215375379165  1.0000
  H   H20       1.0  0.8333464257070082  0.11141425383986392  0.42613501233841844  1.0000
  C   C28       1.0  0.9208007763065833  0.46196284091074835  0.26121249068389774  1.0000
  C   C29       1.0  0.9903763331010275  0.5338817173731123  0.26056054437127063  1.0000
  C   C30       1.0  0.02566826562696467  0.570217070606478  0.1431029272612565  1.0000
  C   C31       1.0  0.9904503799568439  0.5336697865542077  0.025296833811581765  1.0000
  C   C32       1.0  0.9208738362743335  0.4617534269149328  0.02395704334730575  1.0000
  C   C33       1.0  0.886439013249592  0.42630187059331925  0.14241470849952842  1.0000
  C   C34       1.0  0.09927391298553334  0.6462998713730619  0.1434670116384904  1.0000
  C   C35       1.0  0.11138075723113361  0.7498331790614008  0.22424879418109311  1.0000
  C   C36       1.0  0.1806947048591112  0.8213450216562845  0.22440694251007676  1.0000
  C   C37       1.0  0.2386882730439086  0.790404865782947  0.14415774474929366  1.0000
  C   C38       1.0  0.22731369944085222  0.6877629774124643  0.06356448185534758  1.0000
  C   C39       1.0  0.1580685550161871  0.6160538155193049  0.06303633849867785  1.0000
  Cl  Cl1       1.0  0.32560707597487926  0.8802478089234556  0.14458869021842857  1.0000
  H   H21       1.0  0.8942687537921267  0.43461456938113896  0.5889081943630734  1.0000
  H   H22       1.0  0.017821006971670217  0.5602787813823431  0.351780368072363  1.0000
  H   H23       1.0  0.016883917693999884  0.5629643034217093  0.934343456470152  1.0000
  H   H24       1.0  0.8327642073762255  0.37082086749082643  0.14214941438605244  1.0000
  H   H25       1.0  0.8943766021123164  0.4343047041767929  0.6959978443335033  1.0000
  H   H26       1.0  0.06689910658053311  0.7765452704969158  0.28598771081095564  1.0000
  H   H27       1.0  0.1891635577097175  0.9009884363629812  0.28672522493250074  1.0000
  H   H28       1.0  0.27214507842087987  0.6632132913552553  0.0015103624016625794  1.0000
  H   H29       1.0  0.15087320482869893  0.5359256942479471  0.001041636709881999  1.0000
  Zn  Zn1       1.0  0.8367711667417179  0.45819131677121017  0.6357215196158714  1.0000
  Zn  Zn2       1.0  0.004896110290831812  0.4655239750696045  0.6494467862849369  1.0000
  C   C40       1.0  0.9208592573961227  0.4566192885628837  0.8797823537259835  1.0000
  C   C41       1.0  0.9208098552715395  0.46709772191703336  0.40538622935445234  1.0000
  C   C42       1.0  0.9207899833788348  0.6990489035880252  0.6373849765955808  1.0000
  C   C43       1.0  0.9208790722082636  0.2246665440852007  0.6477836712000431  1.0000
  O   O2        1.0  0.9846154431658378  0.47159807482063654  0.45898092084563946  1.0000
  O   O3        1.0  0.9846566116505293  0.45768327403244324  0.8366044483063535  1.0000
  O   O4        1.0  0.9845998120460903  0.653448216223169  0.6408667809175794  1.0000
  O   O5        1.0  0.9846721853896137  0.2758331394446303  0.6547184861744388  1.0000
  O   O6        1.0  0.8569950342701432  0.6478821498953238  0.6304498150357782  1.0000
  O   O7        1.0  0.8570518335823527  0.4521187680104275  0.8261874130187736  1.0000
  O   O8        1.0  0.8570106650072874  0.46603352397412956  0.44856232415246433  1.0000
  O   O9        1.0  0.8570674072389333  0.2702685792825428  0.6442999868506476  1.0000
