data_image0
_chemical_formula_structural       NC12NC2H8C12NCOCH13C13NH9Zn2C4O8
_chemical_formula_sum              "N4 C45 H30 O9 Zn2"
_cell_length_a       17.80743265337812
_cell_length_b       10.299155265289647
_cell_length_c       10.298528502251457
_cell_angle_alpha    85.52481818200185
_cell_angle_beta     91.53111058914057
_cell_angle_gamma    89.41399588169462

_space_group_name_H-M_alt    "P 1"
_space_group_IT_number       1

loop_
  _space_group_symop_operation_xyz
  'x, y, z'

loop_
  _atom_site_type_symbol
  _atom_site_label
  _atom_site_symmetry_multiplicity
  _atom_site_fract_x
  _atom_site_fract_y
  _atom_site_fract_z
  _atom_site_occupancy
  N   N1        1.0  0.7071412184374224  0.40722076455624445  0.6007803472296573  1.0000
  C   C1        1.0  0.656316316644658  0.4368027728248858  0.532065746028906  1.0000
  C   C2        1.0  0.5930851243241373  0.47360064271154134  0.4465934316864446  1.0000
  C   C3        1.0  0.6048025264177481  0.5276640655853144  0.3199445718570082  1.0000
  C   C4        1.0  0.5434789696108899  0.5629574981041845  0.23686892703282725  1.0000
  C   C5        1.0  0.47028366325645093  0.5444511935256768  0.27978209331907045  1.0000
  C   C6        1.0  0.4575895043768519  0.4902688162069757  0.40689918039139417  1.0000
  C   C7        1.0  0.5197703769019733  0.45497864285630607  0.4899583108041563  1.0000
  C   C8        1.0  0.3798261779249137  0.47064742796003234  0.45267326753436654  1.0000
  C   C9        1.0  0.3610318952478059  0.4977975580503129  0.5797238445491788  1.0000
  C   C10       1.0  0.2878066329271036  0.4793328178580527  0.6226775664568456  1.0000
  C   C11       1.0  0.2324327253664185  0.4334634022762327  0.5394188431376972  1.0000
  C   C12       1.0  0.1570709558767383  0.4144453690026615  0.583773801516899  1.0000
  N   N2        1.0  0.096485430032928  0.39915614932442334  0.6194321367371822  1.0000
  C   C13       1.0  0.2505355429073784  0.4061441821999534  0.4129113426582185  1.0000
  C   C14       1.0  0.3237079513177653  0.4246237862788269  0.3697017015818982  1.0000
  H   H1        1.0  0.6612654948730777  0.5424994118215603  0.2854996296259038  1.0000
  H   H2        1.0  0.5526693556361926  0.6050874393007231  0.13906729062197343  1.0000
  H   H3        1.0  0.42363884203645036  0.5741088789598479  0.21417575626030905  1.0000
  H   H4        1.0  0.5112786887483814  0.41146331943005165  0.587635879557332  1.0000
  H   H5        1.0  0.402698784581165  0.5349600348881338  0.6452936175963868  1.0000
  H   H6        1.0  0.27435664924970116  0.501150564929741  0.7206909974961049  1.0000
  H   H7        1.0  0.20815148142778464  0.3702489645757392  0.34775421108992166  1.0000
  H   H8        1.0  0.3366298820007013  0.401270277209157  0.27199207322341157  1.0000
  C   C15       1.0  0.9019008258862136  0.02178912844907588  0.6102291340182364  1.0000
  C   C16       1.0  0.8890714098298814  0.03181241094906184  0.47467304114124054  1.0000
  C   C17       1.0  0.8824938693627307  0.9197583002719967  0.40582202290821034  1.0000
  C   C18       1.0  0.8888917877605077  0.7965564929945351  0.47435661423583153  1.0000
  C   C19       1.0  0.9017330408554183  0.7845776967564697  0.6099948745989525  1.0000
  C   C20       1.0  0.9081618466895671  0.8977131739949259  0.6770962488061851  1.0000
  C   C21       1.0  0.8689228237106956  0.9313353729719019  0.26242008938240446  1.0000
  C   C22       1.0  0.9070250607163445  0.024691724538906445  0.18281796163123953  1.0000
  C   C23       1.0  0.894259994264931  0.03545550742026626  0.04786748321695833  1.0000
  C   C24       1.0  0.8436045880019156  0.9521861585810099  0.9896835094400616  1.0000
  C   C25       1.0  0.8045846871618768  0.8606651294237978  0.06917350831000779  1.0000
  C   C26       1.0  0.8173771169027961  0.84964477623424  0.20408795760006337  1.0000
  N   N3        1.0  0.8284219690490043  0.9628002022281323  0.8513784973290499  1.0000
  C   C27       1.0  0.8832797789121536  0.9986422440190359  0.7557768931651223  1.0000
  O   O1        1.0  0.9521991449572587  0.9997371524726918  0.7869402959683951  1.0000
  C   C28       1.0  0.8593168260299436  0.02564431650637311  0.616072303354537  1.0000
  H   H9        1.0  0.9068588873977581  0.34540945154949587  0.6623652278215542  1.0000
  H   H10       1.0  0.8831290023596687  0.1270026455034312  0.42257246795508463  1.0000
  H   H11       1.0  0.8848519779629622  0.7098634885039756  0.4215282760035248  1.0000
  H   H12       1.0  0.918059972489661  0.8892670894408627  0.7816531716879633  1.0000
  H   H13       1.0  0.9264200920998692  0.5546757659885012  0.8658957124261524  1.0000
  H   H14       1.0  0.9471402137051567  0.08889210960038074  0.22483686467627528  1.0000
  H   H15       1.0  0.9230825341696608  0.11033949148409006  0.989660608583816  1.0000
  H   H16       1.0  0.7643974611472956  0.7971706565529588  0.026284011856316125  1.0000
  H   H17       1.0  0.7861405341269471  0.7784267885511684  0.2630122342657757  1.0000
  H   H18       1.0  0.7755089381175673  0.9350408514935049  0.8177664711871757  1.0000
  H   H19       1.0  0.8050867524006821  0.08021516339439794  0.6090202038201182  1.0000
  H   H20       1.0  0.8523662525012804  0.9321979001701501  0.5705097987292214  1.0000
  H   H21       1.0  0.9020862558472885  0.08487326972152465  0.5627192130918681  1.0000
  C   C29       1.0  0.9018275719788137  0.403309658338753  0.2286956093357586  1.0000
  C   C30       1.0  0.8237208608565905  0.4247909242659009  0.22245787887185187  1.0000
  C   C31       1.0  0.7841513415655363  0.43553525145930494  0.10215109425849911  1.0000
  C   C32       1.0  0.8236984928737144  0.4245265085476313  0.9871971822542025  1.0000
  C   C33       1.0  0.9018062705997586  0.4030571010529789  0.9915283833487409  1.0000
  C   C34       1.0  0.9403706621832572  0.392583392686217  0.11272043349042904  1.0000
  C   C35       1.0  0.7015768392427498  0.4582395467022178  0.09656423203305531  1.0000
  C   C36       1.0  0.6683877583716421  0.5468645676634476  0.1758642618163162  1.0000
  C   C37       1.0  0.5906604743884285  0.5681890734693666  0.17048588842609136  1.0000
  C   C38       1.0  0.5450880042545713  0.5012694505227122  0.08597378588886806  1.0000
  C   C39       1.0  0.5775355536108021  0.41289614098391025  0.006742169807463894  1.0000
  C   C40       1.0  0.655254839032178  0.39147742923379925  0.011883577774862486  1.0000
  C   C41       1.0  0.4650676730325671  0.5232737501878713  0.08055739357857195  1.0000
  N   N4        1.0  0.4007367225921032  0.5409638463310107  0.07620301438526278  1.0000
  H   H22       1.0  0.04935656966584312  0.3619113679194432  0.44786707436630846  1.0000
  H   H23       1.0  0.7933791206244829  0.43142767132864823  0.3115181825821658  1.0000
  H   H24       1.0  0.7936386091028951  0.4344970546903548  0.894050410559525  1.0000
  H   H25       1.0  0.0005690132020099714  0.37603207897062174  0.11679309241735591  1.0000
  H   H26       1.0  0.049473724342714354  0.36329884704060844  0.7923280535947326  1.0000
  H   H27       1.0  0.7026438922531509  0.6009273503046484  0.2407921004807254  1.0000
  H   H28       1.0  0.5661540140124788  0.6370920606199508  0.23199865404858677  1.0000
  H   H29       1.0  0.5427598517784986  0.3602943891971959  0.9412172821756246  1.0000
  H   H30       1.0  0.6790239234300078  0.32145944397675885  0.9508826029942763  1.0000
  Zn  Zn1       1.0  0.819497551498437  0.404890020770893  0.6061703397101963  1.0000
  Zn  Zn2       1.0  0.9841290965128429  0.40147629530059215  0.6140527418801209  1.0000
  C   C42       1.0  0.9018097569946466  0.39793081028331456  0.8473381878394195  1.0000
  C   C43       1.0  0.9018186884239066  0.4084371072181565  0.3728851068055632  1.0000
  C   C44       1.0  0.9017610125897991  0.640396186449667  0.6048631650447109  1.0000
  C   C45       1.0  0.9018673769928688  0.16597017176701856  0.6153601966370017  1.0000
  O   O2        1.0  0.964292521616728  0.40885676868448706  0.4242677516277895  1.0000
  O   O3        1.0  0.9642874573791053  0.39491923049657274  0.8019377302860962  1.0000
  O   O4        1.0  0.9642472534006905  0.5907131051608585  0.6061373930884899  1.0000
  O   O5        1.0  0.964332669418224  0.2130629045082748  0.6200679887460201  1.0000
  O   O6        1.0  0.8392939224123889  0.5933034127295636  0.6001550901475876  1.0000
  O   O7        1.0  0.8393341260460221  0.39751109851641653  0.7959553576117544  1.0000
  O   O8        1.0  0.839339190387177  0.41144859196067274  0.4182838173746295  1.0000
  O   O9        1.0  0.8393793381849249  0.21565471846274065  0.6140841518755269  1.0000
