data_image0
_chemical_formula_structural       NC9NC5H8C12OCH12C12NCOH11Zn2C4O8
_chemical_formula_sum              "N3 C44 H31 O10 Zn2"
_cell_length_a       17.807436237873137
_cell_length_b       10.29979075500242
_cell_length_c       10.299148425239203
_cell_angle_alpha    85.53236164649607
_cell_angle_beta     89.37684199315078
_cell_angle_gamma    88.37243818242351

_space_group_name_H-M_alt    "P 1"
_space_group_IT_number       1

loop_
  _space_group_symop_operation_xyz
  'x, y, z'

loop_
  _atom_site_type_symbol
  _atom_site_label
  _atom_site_symmetry_multiplicity
  _atom_site_fract_x
  _atom_site_fract_y
  _atom_site_fract_z
  _atom_site_occupancy
  N   N1        1.0  0.7073798971850417  0.3883492850714605  0.5569041035100586  1.0000
  C   C1        1.0  0.6468002427918315  0.35316392468544633  0.5458823256005674  1.0000
  C   C2        1.0  0.5714458109945464  0.3093972111867829  0.5321724306084827  1.0000
  C   C3        1.0  0.553382667892579  0.23802472496585714  0.42716771893702155  1.0000
  C   C4        1.0  0.4802174346955586  0.19541915592235726  0.41377366925652703  1.0000
  C   C5        1.0  0.4240666978268748  0.22380855527191001  0.5053519090033312  1.0000
  C   C6        1.0  0.3463108830456536  0.17864469183320186  0.49119957371354594  1.0000
  C   C7        1.0  0.2841161848662366  0.26039058199112075  0.5171335395169772  1.0000
  C   C8        1.0  0.2108086807546053  0.21758196851495892  0.5037531891104188  1.0000
  C   C9        1.0  0.1475633617955063  0.30201907230399083  0.5300508581561163  1.0000
  N   N2        1.0  0.0967271147886564  0.3699006616083933  0.5511934580195723  1.0000
  C   C10       1.0  0.1991123794564708  0.0927694943042372  0.46441354300300963  1.0000
  C   C11       1.0  0.26044971151618  0.011009755220581896  0.43847118803942164  1.0000
  C   C12       1.0  0.3336378836728226  0.053423908817967325  0.451649018111828  1.0000
  C   C13       1.0  0.4428211251992579  0.2956753202772491  0.6105758250958262  1.0000
  C   C14       1.0  0.5160392866240906  0.33809055772145213  0.6238142283684662  1.0000
  H   H1        1.0  0.5957922389106374  0.21556867410640712  0.3554514669776856  1.0000
  H   H2        1.0  0.4673267283634305  0.14177051402975827  0.3308515063195405  1.0000
  H   H3        1.0  0.2925920824990743  0.3578440334369679  0.5460045141517458  1.0000
  H   H4        1.0  0.142654962238099  0.05873764692650019  0.45382073943498336  1.0000
  H   H5        1.0  0.2512755024056677  0.9143768958542973  0.4083996425613321  1.0000
  H   H6        1.0  0.3802932016040567  0.9876864137975777  0.4326047408842977  1.0000
  H   H7        1.0  0.4011283375123951  0.31759179184516695  0.6835867183302922  1.0000
  H   H8        1.0  0.5294582810914251  0.39296021451160423  0.7056945830793326  1.0000
  C   C15       1.0  0.9021246022465194  0.9977538459842215  0.5540867133381824  1.0000
  C   C16       1.0  0.8803581803248992  0.9875632448140351  0.6858536266306643  1.0000
  C   C17       1.0  0.869269355985643  0.8652661431654787  0.752588644341726  1.0000
  C   C18       1.0  0.8802232191979013  0.7522873744812703  0.6857898162326554  1.0000
  C   C19       1.0  0.9019896079079796  0.7604857628531331  0.5540219708444698  1.0000
  C   C20       1.0  0.9128201685993681  0.8836655237994385  0.4889088759281637  1.0000
  C   C21       1.0  0.8462462914019064  0.8555389504276344  0.8919918290802469  1.0000
  C   C22       1.0  0.7914234725271002  0.7672512550292867  0.9378647674430685  1.0000
  C   C23       1.0  0.7698224486218403  0.7583668041567873  0.0689301817177902  1.0000
  C   C24       1.0  0.8025579840787345  0.8371238319641539  0.15580459110474332  1.0000
  C   C25       1.0  0.8575805292884724  0.9260103526255536  0.11180056568099717  1.0000
  C   C26       1.0  0.8789487302287373  0.9345448718280088  0.9802118281162611  1.0000
  O   O1        1.0  0.8922944583438248  0.0070297391642040186  0.19516596231146666  1.0000
  C   C27       1.0  0.8761679144950371  0.008713316171699681  0.33074847158042975  1.0000
  H   H9        1.0  0.9104514163934847  0.3290868130224316  0.5038986745488312  1.0000
  H   H10       1.0  0.8709819827211077  0.07501217537702365  0.7364235899592657  1.0000
  H   H11       1.0  0.8727262212409905  0.6577203936102659  0.737271398795653  1.0000
  H   H12       1.0  0.9296126216692496  0.8907587181819235  0.3872562609709034  1.0000
  H   H13       1.0  0.9102462163053645  0.4361600369615464  0.5037973239282294  1.0000
  H   H14       1.0  0.7645622340334961  0.7063235066414674  0.8720443850710378  1.0000
  H   H15       1.0  0.727387746678031  0.6903929667177753  0.10323383277364029  1.0000
  H   H16       1.0  0.7847391848929315  0.8281753258786383  0.25673987610895954  1.0000
  H   H17       1.0  0.9219893747344322  0.0020631364377390327  0.947412257619993  1.0000
  H   H18       1.0  0.88913800654698  0.9115479131080677  0.3811845115669913  1.0000
  H   H19       1.0  0.9116133421719048  0.08165463417447727  0.37244598336448365  1.0000
  H   H20       1.0  0.816192213440292  0.03645961629650052  0.34606468199423024  1.0000
  C   C28       1.0  0.9021135727396895  0.3792729825331036  0.17265731067397128  1.0000
  C   C29       1.0  0.9783304453506951  0.4112203607525933  0.16756688892069493  1.0000
  C   C30       1.0  0.016854698671947332  0.42720979986922214  0.047855569941879006  1.0000
  C   C31       1.0  0.9781721305168313  0.4108877128703774  0.9323120856854685  1.0000
  C   C32       1.0  0.902000605007745  0.3789666595335539  0.9354513836840628  1.0000
  C   C33       1.0  0.864418203944151  0.36333745942511597  0.05612323819135012  1.0000
  C   C34       1.0  0.09743761200192402  0.46098417817848625  0.043563844693827125  1.0000
  C   C35       1.0  0.14793005785214097  0.40122091111935543  0.9592302397817196  1.0000
  C   C36       1.0  0.22372216291403824  0.4331428657865506  0.9553413670263229  1.0000
  C   C37       1.0  0.250796682449391  0.5241326535134379  0.03644518161889376  1.0000
  C   C38       1.0  0.20022935228770145  0.5857456785092818  0.11921132681811542  1.0000
  C   C39       1.0  0.12440327713845756  0.5539320016774456  0.12319752973462261  1.0000
  N   N3        1.0  0.328812425497355  0.5566428569259692  0.02876235106240621  1.0000
  C   C40       1.0  0.37201948900075954  0.59126847747513  0.13685552027151981  1.0000
  O   O2        1.0  0.3466020381117174  0.5783103436502446  0.25158973512060423  1.0000
  H   H21       1.0  0.7583776435892849  0.31820432818631184  0.3896164127390571  1.0000
  H   H22       1.0  0.008135168773838686  0.42200348932451903  0.2570550776916285  1.0000
  H   H23       1.0  0.007318272168305384  0.4248983013364753  0.8396503527107604  1.0000
  H   H24       1.0  0.8056660815741891  0.33871237607468285  0.0592597401911803  1.0000
  H   H25       1.0  0.8727052004535895  0.3666525630988424  0.6091856749207962  1.0000
  H   H26       1.0  0.12900206176316775  0.32860824603548866  0.8973414405506435  1.0000
  H   H27       1.0  0.2616902243782224  0.3858060143882307  0.8898335524032608  1.0000
  H   H28       1.0  0.21873063909183532  0.6605430933352741  0.178699586783988  1.0000
  H   H29       1.0  0.08652339151599309  0.6039309197133071  0.18681124393959858  1.0000
  H   H30       1.0  0.3577083390073299  0.5463343817199962  0.9411562385598478  1.0000
  H   H31       1.0  0.42842264969445987  0.6256355544204308  0.12020113890476192  1.0000
  Zn  Zn1       1.0  0.819737092130802  0.38302194253106614  0.5552636462187175  1.0000
  Zn  Zn2       1.0  0.9843699019385032  0.37521741362996663  0.5528445936085935  1.0000
  C   C41       1.0  0.9020212046911779  0.3738509322044934  0.7912674636865622  1.0000
  C   C42       1.0  0.9020875868543474  0.3843899773085273  0.31684087706163644  1.0000
  C   C43       1.0  0.9020120055091035  0.6163154813678662  0.5488587499922417  1.0000
  C   C44       1.0  0.9020967301246997  0.14192387046951915  0.5592496609574957  1.0000
  O   O3        1.0  0.9645561600877095  0.383139843683282  0.36431218169651136  1.0000
  O   O4        1.0  0.964505124986742  0.3691766294006831  0.7419597803031512  1.0000
  O   O5        1.0  0.9644968541070935  0.5649698586166991  0.5462130411740811  1.0000
  O   O6        1.0  0.9645643748021084  0.1873466264598016  0.5600588242683993  1.0000
  O   O7        1.0  0.8395425630860995  0.5708927323659507  0.5480494163775835  1.0000
  O   O8        1.0  0.8395508336963723  0.37510106349028893  0.7437960861237871  1.0000
  O   O9        1.0  0.8396018690865545  0.38906423314138916  0.36614692600435395  1.0000
  O   O10       1.0  0.8396100837851055  0.19327100659009222  0.5618936659520968  1.0000
