data_image0
_chemical_formula_structural       NC11NC3H8C12SCH12C16H10Zn2C4O8
_chemical_formula_sum              "N2 C47 H30 S1 Zn2 O8"
_cell_length_a       17.807433833752565
_cell_length_b       10.299776766347529
_cell_length_c       10.299151387937775
_cell_angle_alpha    85.58705518708116
_cell_angle_beta     88.51281441211556
_cell_angle_gamma    90.66624570658541

_space_group_name_H-M_alt    "P 1"
_space_group_IT_number       1

loop_
  _space_group_symop_operation_xyz
  'x, y, z'

loop_
  _atom_site_type_symbol
  _atom_site_label
  _atom_site_symmetry_multiplicity
  _atom_site_fract_x
  _atom_site_fract_y
  _atom_site_fract_z
  _atom_site_occupancy
  N   N1        1.0  0.7073113606875095  0.4378112127162448  0.534707933016737  1.0000
  C   C1        1.0  0.6564908188506442  0.40311418860723003  0.6012691184355123  1.0000
  C   C2        1.0  0.5932649396081804  0.3599539493239272  0.6840627388928933  1.0000
  C   C3        1.0  0.6049900051950945  0.29645848699650634  0.8067790313443546  1.0000
  C   C4        1.0  0.5436714651449188  0.2549769952908507  0.8872887828429448  1.0000
  C   C5        1.0  0.4704734977087561  0.27667798293282697  0.8457230272031233  1.0000
  C   C6        1.0  0.45777166205583514  0.3403277928018513  0.7225465422153854  1.0000
  C   C7        1.0  0.38000554251632135  0.36335766101901035  0.6782001796800163  1.0000
  C   C8        1.0  0.361239723810579  0.34642903624931765  0.5486186076789132  1.0000
  C   C9        1.0  0.2880118260125805  0.3680912772906135  0.5070087787431405  1.0000
  C   C10       1.0  0.2326067066480044  0.4070003063079388  0.594160257601337  1.0000
  C   C11       1.0  0.1572421189994104  0.42932040558039986  0.5511891561721478  1.0000
  N   N2        1.0  0.09665436392696332  0.4472641071666459  0.5166435180499322  1.0000
  C   C12       1.0  0.2506809827734039  0.42413927206640434  0.7232107021323504  1.0000
  C   C13       1.0  0.3238560964908165  0.4024422133805401  0.7650759599519015  1.0000
  C   C14       1.0  0.5199475129844902  0.3818047268368512  0.6420532064213214  1.0000
  H   H1        1.0  0.6614552581140247  0.279058912213628  0.8401439842381717  1.0000
  H   H2        1.0  0.5528680362908248  0.2055670324389467  0.9820232560170405  1.0000
  H   H3        1.0  0.4238334802610851  0.2421503168255157  0.9091609234394074  1.0000
  H   H4        1.0  0.4029317031115008  0.31475771939740405  0.47990051741306305  1.0000
  H   H5        1.0  0.27458421295900043  0.35416704121190956  0.4069732883540882  1.0000
  H   H6        1.0  0.2082725049785385  0.45458735961649466  0.7914139713825108  1.0000
  H   H7        1.0  0.3367550110785734  0.4179117501089371  0.8649287590755108  1.0000
  H   H8        1.0  0.5114491401366846  0.43257711954316824  0.5475531064587844  1.0000
  C   C15       1.0  0.9020572878849388  0.061174327172798026  0.5256706541815166  1.0000
  C   C16       1.0  0.9065561008858337  0.04978141444079087  0.66197574878445  1.0000
  C   C17       1.0  0.9087633539583527  0.9268681600747124  0.7310513397153431  1.0000
  C   C18       1.0  0.9064124469690874  0.8144901569052381  0.6619976042599516  1.0000
  C   C19       1.0  0.9019156404973919  0.8238911705159455  0.5256916671777547  1.0000
  C   C20       1.0  0.8997628103162484  0.947673038628621  0.4582912142909421  1.0000
  C   C21       1.0  0.9135143113609482  0.9158794490187271  0.8752471345080475  1.0000
  C   C22       1.0  0.8705095729016373  0.8214072457516487  0.9512850912631308  1.0000
  C   C23       1.0  0.87500334292505  0.8113005848978175  0.0869858310939221  1.0000
  C   C24       1.0  0.9223143343681739  0.8953837953491737  0.14846398587034115  1.0000
  C   C25       1.0  0.9654981965764763  0.9892871605250086  0.07379078241310233  1.0000
  C   C26       1.0  0.9611145879438421  0.9997463802108265  0.9380745163934241  1.0000
  S   S1        1.0  0.9281633045814387  0.881957032723647  0.3225828611601753  1.0000
  C   C27       1.0  0.8526688615171821  0.9961944487333945  0.34561430432017415  1.0000
  H   H9        1.0  0.9003725918255266  0.39296974364160664  0.4737308544239238  1.0000
  H   H10       1.0  0.9073179407012811  0.1366541223303488  0.7148987068032917  1.0000
  H   H11       1.0  0.9091331552083051  0.7195655310075101  0.7146335398033963  1.0000
  H   H12       1.0  0.89629268102371  0.9556937105634064  0.3531376056441837  1.0000
  H   H13       1.0  0.9001646456615334  0.5000187051951701  0.47375960926582095  1.0000
  H   H14       1.0  0.832696628097236  0.7565045247557608  0.9059254046181113  1.0000
  H   H15       1.0  0.8414086982302911  0.7384470029317433  0.14426600120190103  1.0000
  H   H16       1.0  0.0025113940309615668  0.05422703427369102  0.12077650890871983  1.0000
  H   H17       1.0  0.9956572541287071  0.07225464596911868  0.8821634026643626  1.0000
  H   H18       1.0  0.867713742276891  0.09286807273941444  0.2960386289559134  1.0000
  H   H19       1.0  0.8439516236151594  0.006708198475210647  0.4512979857508983  1.0000
  H   H20       1.0  0.7998097806242588  0.9593601691302565  0.3059447553411072  1.0000
  C   C28       1.0  0.9020300229977676  0.4423650632626641  0.14430814707328699  1.0000
  C   C29       1.0  0.829534151655467  0.49455737917680076  0.14276431287820945  1.0000
  C   C30       1.0  0.7927324063806391  0.5211928123994658  0.024827685652748066  1.0000
  C   C31       1.0  0.8294033917912376  0.4949317944753555  0.907458052702971  1.0000
  C   C32       1.0  0.9019428700820885  0.4427003933908653  0.9070541737363969  1.0000
  C   C33       1.0  0.9378103521478889  0.4167405390224854  0.025926507276849975  1.0000
  C   C34       1.0  0.7160405543609384  0.5764062726688801  0.024239903627750525  1.0000
  C   C35       1.0  0.6969399945120368  0.6757537457004004  0.929823225520944  1.0000
  C   C36       1.0  0.6247452489570317  0.7276811422454124  0.9293988503431594  1.0000
  C   C37       1.0  0.5707039758944472  0.681046514106765  0.02313336919484854  1.0000
  C   C38       1.0  0.589123546151915  0.5822408399417991  0.11741956109232876  1.0000
  C   C39       1.0  0.6612967547136891  0.5302253286337038  0.11809449882416434  1.0000
  C   C40       1.0  0.496389828610342  0.7345521601333209  0.022567993721125168  1.0000
  C   C41       1.0  0.4341527788907806  0.7793623280576516  0.0220944146222104  1.0000
  C   C42       1.0  0.3612738408297198  0.8318346355743549  0.021539856968568305  1.0000
  C   C43       1.0  0.2990468486954444  0.8766377998141213  0.02106646092429365  1.0000
  H   H21       1.0  0.929899077062628  0.42222671117942845  0.47238315533999753  1.0000
  H   H22       1.0  0.8019262353165455  0.5162812135491543  0.2333495238294374  1.0000
  H   H23       1.0  0.8008932446177884  0.5136183848460885  0.8164083190093736  1.0000
  H   H24       1.0  0.9937273723976606  0.37647968857601954  0.026401874092359723  1.0000
  H   H25       1.0  0.03866872697542667  0.34335345399854234  0.6990664887446321  1.0000
  H   H26       1.0  0.7381185149771321  0.7144551081810706  0.8573669548153786  1.0000
  H   H27       1.0  0.6111445877546755  0.8043992838733449  0.8561789073288701  1.0000
  H   H28       1.0  0.5476533144883438  0.5451735736872527  0.19022080573907751  1.0000
  H   H29       1.0  0.674009741072439  0.4527240068865781  0.19096259588969033  1.0000
  H   H30       1.0  0.2444064118970729  0.9159786147633926  0.020650787488763145  1.0000
  Zn  Zn1       1.0  0.8196673407397208  0.44053564256311306  0.5295024175736114  1.0000
  Zn  Zn2       1.0  0.98429836987725  0.4445290625356979  0.521859619327822  1.0000
  C   C44       1.0  0.9019586363053186  0.43746340291846275  0.7628787608137373  1.0000
  C   C45       1.0  0.9020088717584444  0.4476029844403757  0.28848332014149314  1.0000
  C   C46       1.0  0.9019391191333241  0.6797190877656265  0.5205126303967404  1.0000
  C   C47       1.0  0.9020283330352817  0.2053457379808976  0.5308495223628718  1.0000
  O   O1        1.0  0.9644783918375591  0.45087069504459776  0.3339694230202208  1.0000
  O   O2        1.0  0.9644402582635667  0.43722562579922575  0.7115915770317622  1.0000
  O   O3        1.0  0.964423655531384  0.6328501352189424  0.5158792510759926  1.0000
  O   O4        1.0  0.9644949384017228  0.2552461935094701  0.5296816542085034  1.0000
  O   O5        1.0  0.8394707160347578  0.6298185102279938  0.5216803852942109  1.0000
  O   O6        1.0  0.8394873184816076  0.4341955610592443  0.7173926420468788  1.0000
  O   O7        1.0  0.839525452292361  0.4478405843639628  0.3397689266143482  1.0000
  O   O8        1.0  0.8395419988440537  0.25221607358289866  0.5354812551713983  1.0000
