data_image0
_chemical_formula_structural       NC12NC2H8C12NH11C15H12Zn2C4O8
_chemical_formula_sum              "N3 C45 H31 Zn2 O8"
_cell_length_a       19.240039667572717
_cell_length_b       10.299770795358612
_cell_length_c       10.299157797200024
_cell_angle_alpha    85.53969178690444
_cell_angle_beta     90.02248165465589
_cell_angle_gamma    90.01598423534

_space_group_name_H-M_alt    "P 1"
_space_group_IT_number       1

loop_
  _space_group_symop_operation_xyz
  'x, y, z'

loop_
  _atom_site_type_symbol
  _atom_site_label
  _atom_site_symmetry_multiplicity
  _atom_site_fract_x
  _atom_site_fract_y
  _atom_site_fract_z
  _atom_site_occupancy
  N   N1        1.0  0.6543885158547399  0.42168390023689706  0.5672925707400756  1.0000
  C   C1        1.0  0.5942401470327924  0.42168398424159315  0.5672924887939634  1.0000
  C   C2        1.0  0.5194221098803083  0.4216841015666184  0.5672923514751  1.0000
  C   C3        1.0  0.4829604871413785  0.35718912007407577  0.6707137949843114  1.0000
  C   C4        1.0  0.41028974065765766  0.357078214062315  0.6708003479499163  1.0000
  C   C5        1.0  0.3730898749089838  0.4216841941972329  0.5672921237751036  1.0000
  C   C6        1.0  0.41026568761630383  0.4862903612621021  0.46378409414334976  1.0000
  C   C7        1.0  0.48293637768686415  0.486179219715978  0.4638707696285562  1.0000
  C   C8        1.0  0.295884784437571  0.42168411556370766  0.5672920283576903  1.0000
  C   C9        1.0  0.25868885500743866  0.30841145470591713  0.6091707063471914  1.0000
  C   C10       1.0  0.18601816340766628  0.3085183810830352  0.60907937029964  1.0000
  C   C11       1.0  0.1495524975078758  0.42168398637348736  0.5672920892778273  1.0000
  C   C12       1.0  0.0747344603881598  0.42168387255907835  0.5672923379589991  1.0000
  N   N2        1.0  0.014586143573735298  0.42168383167545653  0.5672925463928067  1.0000
  C   C13       1.0  0.1860343424649142  0.5348496675066843  0.5255047553584493  1.0000
  C   C14       1.0  0.2587050354599078  0.5349567740513523  0.5254132566979339  1.0000
  H   H1        1.0  0.5106848565691159  0.3072555070531928  0.7514622998006073  1.0000
  H   H2        1.0  0.383206290814177  0.30794236255944885  0.752664388273063  1.0000
  H   H3        1.0  0.3831626066650172  0.5354262398320289  0.3819200029674279  1.0000
  H   H4        1.0  0.510641779765157  0.536112732394906  0.3831225406290304  1.0000
  H   H5        1.0  0.2857753613060375  0.2192472263913703  0.6403444561403504  1.0000
  H   H6        1.0  0.1582969037652549  0.2202530329105321  0.6412861057570542  1.0000
  H   H7        1.0  0.1583257786589272  0.6231149911381726  0.4932980344535163  1.0000
  H   H8        1.0  0.2858050079809402  0.6241210815553031  0.4942394621267663  1.0000
  C   C15       1.0  0.8344276935957341  0.040315326893759496  0.5673321366013813  1.0000
  C   C16       1.0  0.8142272702760034  0.0495287628869574  0.43591387476626187  1.0000
  C   C17       1.0  0.8040552986143876  0.9370611360240171  0.3692881081188666  1.0000
  C   C18       1.0  0.8143544693189427  0.8142471693582908  0.4358453177976085  1.0000
  C   C19       1.0  0.8345536349965258  0.8030424413920576  0.5672641302132242  1.0000
  C   C20       1.0  0.8444774694764898  0.9166314987676485  0.6322714867624182  1.0000
  C   C21       1.0  0.7826847274711654  0.9478618217202914  0.2302552147541017  1.0000
  C   C22       1.0  0.7320668397645077  0.0390528478893748  0.1850653592834095  1.0000
  C   C23       1.0  0.7119826593699534  0.04908922827092388  0.05420653910390394  1.0000
  C   C24       1.0  0.742136379525249  0.9683546306791727  0.96645731117396  1.0000
  C   C25       1.0  0.7925872978557104  0.8773619448006192  0.0107565545820969  1.0000
  C   C26       1.0  0.8127271485185671  0.8670695473447073  0.14158539994369201  1.0000
  N   N3        1.0  0.7215632544426354  0.9787519328464832  0.832613807060258  1.0000
  H   H9        1.0  0.8420954349940977  0.3642568345561803  0.6174257204514606  1.0000
  H   H10       1.0  0.8072780579936315  0.1444489861210363  0.3845585620160725  1.0000
  H   H11       1.0  0.8056608175513676  0.7272328728233126  0.3854301647902325  1.0000
  H   H12       1.0  0.8600606527754907  0.9087557140372934  0.7336548556821842  1.0000
  H   H13       1.0  0.8422806678540545  0.4713204840963489  0.6173260907428353  1.0000
  H   H14       1.0  0.7073570562145793  0.10144471291476931  0.25127255369674195  1.0000
  H   H15       1.0  0.672790813325133  0.11957995816561806  0.02129300655466526  1.0000
  H   H16       1.0  0.8164373905599899  0.8146247253102387  0.9438600459733095  1.0000
  H   H17       1.0  0.852451506709397  0.7970895071519635  0.17305930369337363  1.0000
  H   H18       1.0  0.7437453075195976  0.9189758302839859  0.7664702286757077  1.0000
  H   H19       1.0  0.6839979783209726  0.04630294049744421  0.79867704515059  1.0000
  C   C27       1.0  0.8344101013369727  0.4217851301337334  0.18590612075457535  1.0000
  C   C28       1.0  0.7620148579275888  0.4038057973809428  0.18608289544676504  1.0000
  C   C29       1.0  0.7254571316434151  0.3945807611044294  0.06903021320836311  1.0000
  C   C30       1.0  0.7622213293021121  0.40359706586521393  0.950815619381205  1.0000
  C   C31       1.0  0.8345712075652758  0.421572603910888  0.9486901618074173  1.0000
  C   C32       1.0  0.8702431157617738  0.43055590851639414  0.06676570987737596  1.0000
  C   C33       1.0  0.6489191477319861  0.3755779360509244  0.07026340160878419  1.0000
  C   C34       1.0  0.6176314049999608  0.28859904774103873  0.9891641139836622  1.0000
  C   C35       1.0  0.5456059708342217  0.27080964192917323  0.9903568467610904  1.0000
  C   C36       1.0  0.5035853152711726  0.338990047117087  0.0731808625202095  1.0000
  C   C37       1.0  0.534501240472335  0.4268144812877752  0.15330335955515695  1.0000
  C   C38       1.0  0.6065259745624343  0.4446080854496668  0.15225857713107782  1.0000
  C   C39       1.0  0.4259939439819062  0.3221749243843959  0.07211941528580912  1.0000
  C   C40       1.0  0.39475176225512426  0.4159422198997196  0.9747001607158037  1.0000
  C   C41       1.0  0.3690753529595784  0.49304700356008624  0.8945945951817729  1.0000
  H   H20       1.0  0.9711074918520671  0.4549254738021882  0.3929271995971768  1.0000
  H   H21       1.0  0.7340577585860397  0.3951809552880847  0.2776214020973464  1.0000
  H   H22       1.0  0.7341647714261921  0.39835904539510736  0.8601837860938542  1.0000
  H   H23       1.0  0.9260487659018407  0.44441720380177085  0.06584201427177017  1.0000
  H   H24       1.0  0.8624022428062267  0.42844516156416845  0.6204002789067267  1.0000
  H   H25       1.0  0.6489457906547657  0.23323352945043085  0.9257969485158597  1.0000
  H   H26       1.0  0.5225840155267463  0.20365404895661476  0.9268037022828102  1.0000
  H   H27       1.0  0.5027809217136731  0.48187082152565774  0.21632555336225234  1.0000
  H   H28       1.0  0.6289813935691992  0.5138709030172415  0.21417029306500357  1.0000
  H   H29       1.0  0.4121061336975406  0.22193488447650567  0.04868309440026741  1.0000
  H   H30       1.0  0.4038724251901315  0.33761983813374097  0.16933936035627517  1.0000
  H   H31       1.0  0.3465531426534726  0.5607423805591376  0.8242692198353097  1.0000
  Zn  Zn1       1.0  0.7583337806983623  0.42168041116645694  0.5673000529027619  1.0000
  Zn  Zn2       1.0  0.91064089799098  0.42167672432311676  0.5672956647164111  1.0000
  C   C42       1.0  0.8345383692596234  0.4164391232762956  0.804508131612413  1.0000
  C   C43       1.0  0.8344379729162107  0.426919650755498  0.33008771328702036  1.0000
  C   C44       1.0  0.8345251627661535  0.6588722160272409  0.5621015382195329  1.0000
  C   C45       1.0  0.8344511271948868  0.1844849976854568  0.572494376063247  1.0000
  O   O1        1.0  0.8922470831945849  0.4286357779068388  0.378474708066985  1.0000
  O   O2        1.0  0.89232683661879  0.4147192182787709  0.7561174325191358  1.0000
  O   O3        1.0  0.8923153933251918  0.6104870063027186  0.5603723931896534  1.0000
  O   O4        1.0  0.8922584744970443  0.23286799920149037  0.5742196500165653  1.0000
  O   O5        1.0  0.7767161522173525  0.6104891362907574  0.5603760675972735  1.0000
  O   O6        1.0  0.776727595750799  0.4147229085885793  0.7561210375380747  1.0000
  O   O7        1.0  0.7766478420354954  0.42863942339573446  0.3784767515946037  1.0000
  O   O8        1.0  0.7766592333541479  0.23287163537445976  0.5742217909187519  1.0000
