data_image0
_chemical_formula_structural       NC12NC2H8C12ClH9C12NCOCH13Zn2C4O8
_chemical_formula_sum              "N3 C44 H30 Cl1 O9 Zn2"
_cell_length_a       17.80743265337812
_cell_length_b       10.299768534541528
_cell_length_c       10.299158637457994
_cell_angle_alpha    85.58253282463848
_cell_angle_beta     91.51607039334635
_cell_angle_gamma    89.45366305101135

_space_group_name_H-M_alt    "P 1"
_space_group_IT_number       1

loop_
  _space_group_symop_operation_xyz
  'x, y, z'

loop_
  _atom_site_type_symbol
  _atom_site_label
  _atom_site_symmetry_multiplicity
  _atom_site_fract_x
  _atom_site_fract_y
  _atom_site_fract_z
  _atom_site_occupancy
  N   N1        1.0  0.7079311824455532  0.4061160858181665  0.601424591246698  1.0000
  C   C1        1.0  0.6571290388638472  0.4356474972196618  0.5327283384860575  1.0000
  C   C2        1.0  0.5939261555322831  0.47238243082695  0.4472788478231229  1.0000
  C   C3        1.0  0.6056853171405001  0.5263526403717635  0.32066365173176425  1.0000
  C   C4        1.0  0.5443890837808198  0.5615849450438253  0.23761003169458528  1.0000
  C   C5        1.0  0.47117955166186387  0.5431102418232234  0.28051172839619953  1.0000
  C   C6        1.0  0.4584435117118325  0.48902141496895823  0.4075950544823461  1.0000
  C   C7        1.0  0.5205970646971574  0.45379235766084336  0.4906321632232147  1.0000
  C   C8        1.0  0.3806650592511673  0.46943372389933646  0.45335694729751386  1.0000
  C   C9        1.0  0.3618619041795395  0.49666984115518  0.5804011183445223  1.0000
  C   C10       1.0  0.2886224266095021  0.4782367267281502  0.6233433796841441  1.0000
  C   C11       1.0  0.23324294172348153  0.43231355706834096  0.5400794136969771  1.0000
  C   C12       1.0  0.15786651316071573  0.4133281767212236  0.5844225541384191  1.0000
  N   N2        1.0  0.0972692024187264  0.39806520775225995  0.6200713885399056  1.0000
  C   C13       1.0  0.2513544780456461  0.4049087437315446  0.4135781959278284  1.0000
  C   C14       1.0  0.32454114779605  0.4233565424121888  0.3703800517092317  1.0000
  H   H1        1.0  0.6621596964107697  0.5411626230298725  0.2862279093462827  1.0000
  H   H2        1.0  0.5536118720860581  0.6036428692278211  0.13983451933423408  1.0000
  H   H3        1.0  0.4245570328071018  0.572719488442057  0.21492338516726583  1.0000
  H   H4        1.0  0.5120724316065017  0.4103490928692104  0.5882831572811142  1.0000
  H   H5        1.0  0.4035336071802022  0.5338745556386588  0.6459753693513364  1.0000
  H   H6        1.0  0.2751659523865266  0.500120728117553  0.7213521622667938  1.0000
  H   H7        1.0  0.2089660524592807  0.3689714587615207  0.3484169620428521  1.0000
  H   H8        1.0  0.3374688983789425  0.399937132576369  0.2726745182827144  1.0000
  C   C15       1.0  0.9025329333236721  0.020726653857425115  0.6107426268622973  1.0000
  C   C16       1.0  0.9075060771980691  0.030141344576544604  0.4745107075729438  1.0000
  C   C17       1.0  0.9100982303240711  0.9177709852118731  0.4054917584848903  1.0000
  C   C18       1.0  0.9076495571692296  0.7948506656675977  0.47453306941689943  1.0000
  C   C19       1.0  0.9026746459949334  0.7834444824338468  0.6107648420138736  1.0000
  C   C20       1.0  0.900144747099987  0.8969387334632103  0.6781067483947967  1.0000
  C   C21       1.0  0.9153604008369047  0.9287845902992019  0.2613697925642171  1.0000
  C   C22       1.0  0.8726353640420416  0.023181866268049856  0.18485909800008526  1.0000
  C   C23       1.0  0.8776552033273025  0.033351009066147075  0.049218598483697695  1.0000
  C   C24       1.0  0.9253278442154543  0.9496459071832513  0.9883934615570249  1.0000
  C   C25       1.0  0.9680408493661627  0.8555605910030438  0.06339234636353352  1.0000
  C   C26       1.0  0.963154418590265  0.844996443468718  0.1990538786668805  1.0000
  Cl  Cl1       1.0  0.9315422726461167  0.9626523813775355  0.8182046276946653  1.0000
  H   H9        1.0  0.9005993747830484  0.3445937394611511  0.6626485950585939  1.0000
  H   H10       1.0  0.9104122196233659  0.12507500518921466  0.4219168495999681  1.0000
  H   H11       1.0  0.9085952012427843  0.7079786352236256  0.42163175924101326  1.0000
  H   H12       1.0  0.8963074346929153  0.8889075599745938  0.783203366547345  1.0000
  H   H13       1.0  0.9008088829147045  0.4516438300490635  0.6626818582196567  1.0000
  H   H14       1.0  0.8346424619761708  0.08795991557200544  0.22978335457017973  1.0000
  H   H15       1.0  0.8443104352968418  0.10613463496524322  0.9915093594114808  1.0000
  H   H16       1.0  0.005196243601248041  0.7907526485103774  0.01673848612579909  1.0000
  H   H17       1.0  0.9974527658025446  0.7724858807515048  0.255314469951478  1.0000
  C   C27       1.0  0.9026741931524882  0.40194616728186805  0.22938403408029062  1.0000
  C   C28       1.0  0.9044450865793452  0.5386115443933803  0.21815807749124794  1.0000
  C   C29       1.0  0.9052840174917007  0.6080438561580119  0.09530591003634381  1.0000
  C   C30       1.0  0.9043013398250784  0.5389743832625424  0.9828397216740989  1.0000
  C   C31       1.0  0.9025333798599572  0.40222503737906434  0.9921235109030007  1.0000
  C   C32       1.0  0.9017339768611053  0.3345517008853467  0.11578425314664731  1.0000
  C   C33       1.0  0.9071583057260089  0.7526190363980905  0.08440380716457319  1.0000
  C   C34       1.0  0.9532808130301467  0.8194985760280407  0.1691815334017055  1.0000
  C   C35       1.0  0.9550507396308906  0.9555513189350862  0.1587915155874453  1.0000
  C   C36       1.0  0.9112096817555833  0.027442590148318402  0.06254369826738304  1.0000
  C   C37       1.0  0.8641925843055255  0.9609419338388852  0.9795062136737065  1.0000
  C   C38       1.0  0.8624535058284277  0.8249164622347194  0.9896367226211726  1.0000
  N   N3        1.0  0.910948807745153  0.167492663627701  0.051298666724941544  1.0000
  C   C39       1.0  0.9753285565813609  0.24514855740202934  0.07761520586164128  1.0000
  O   O1        1.0  0.04009147182778361  0.19439715770197896  0.08923205889323005  1.0000
  C   C40       1.0  0.9665429731501994  0.3891440482510178  0.08179991069788217  1.0000
  H   H18       1.0  0.9020165678881157  0.34937646897214014  0.5611789177028019  1.0000
  H   H19       1.0  0.9041264950339318  0.5914348912491987  0.30509474543817316  1.0000
  H   H20       1.0  0.9059398807496474  0.5919536132870156  0.8879476640206421  1.0000
  H   H21       1.0  0.9003706171034617  0.2291384493695523  0.12372832176921689  1.0000
  H   H22       1.0  0.8996525197276678  0.1440929926779171  0.802375803664416  1.0000
  H   H23       1.0  0.9884320102278547  0.7665451483826253  0.24305652748000894  1.0000
  H   H24       1.0  0.9897262204316549  0.004173411090824253  0.22748476278250251  1.0000
  H   H25       1.0  0.8290629400703596  0.014769915036606296  0.9062015601626663  1.0000
  H   H26       1.0  0.825316825427101  0.776298484010089  0.9245098409267443  1.0000
  H   H27       1.0  0.8622591246211575  0.21595404352332803  0.014020976961277798  1.0000
  H   H28       1.0  0.9137220312447805  0.4119507768888506  0.13068837410447975  1.0000
  H   H29       1.0  0.9645318275187467  0.4358525449790336  0.9809857412753167  1.0000
  H   H30       1.0  0.014479050428257478  0.4289200740525212  0.13675132430145265  1.0000
  Zn  Zn1       1.0  0.8202857261579712  0.4037893118192457  0.6068131409995823  1.0000
  Zn  Zn2       1.0  0.9849146522885991  0.4003813923031989  0.6146934315513386  1.0000
  C   C41       1.0  0.9025573571471504  0.3969987287991379  0.8479491609664978  1.0000
  C   C42       1.0  0.9026448193230758  0.40717357675368615  0.3735576251514956  1.0000
  C   C43       1.0  0.9026449415439535  0.6392728008713542  0.6055853117272967  1.0000
  C   C44       1.0  0.9025571784472604  0.16489794558749238  0.6159215408949437  1.0000
  O   O2        1.0  0.9651107796406841  0.4076289897622609  0.4249341283875665  1.0000
  O   O3        1.0  0.9650409423956362  0.3939558038854112  0.8025532420462778  1.0000
  O   O4        1.0  0.9651108254504766  0.5895951989853685  0.6068426787462415  1.0000
  O   O5        1.0  0.9650408404288464  0.21198960507969722  0.6206445916239902  1.0000
  O   O6        1.0  0.8401594818379525  0.5921811002071147  0.6008619782309434  1.0000
  O   O7        1.0  0.8400895990823534  0.39654326536550166  0.7965724723307452  1.0000
  O   O8        1.0  0.8401594366572205  0.4102164054151185  0.41895179726911036  1.0000
  O   O9        1.0  0.840089497422609  0.21457701147952823  0.6146623578731591  1.0000
