data_image0
_chemical_formula_structural       NC8NC6H8C12ClH9C12SCH12Zn2C4O8
_chemical_formula_sum              "N2 C43 H29 Cl1 S1 Zn2 O8"
_cell_length_a       17.457602349358154
_cell_length_b       10.299768534541528
_cell_length_c       10.299780138516091
_cell_angle_alpha    85.57853540926422
_cell_angle_beta     92.86764560524759
_cell_angle_gamma    91.70638861519478

_space_group_name_H-M_alt    "P 1"
_space_group_IT_number       1

loop_
  _space_group_symop_operation_xyz
  'x, y, z'

loop_
  _atom_site_type_symbol
  _atom_site_label
  _atom_site_symmetry_multiplicity
  _atom_site_fract_x
  _atom_site_fract_y
  _atom_site_fract_z
  _atom_site_occupancy
  N   N1        1.0  0.7228115687821774  0.4524292685962197  0.6266259623554371  1.0000
  C   C1        1.0  0.6617257803737516  0.4065013331814711  0.6160091218039367  1.0000
  C   C2        1.0  0.5857324768738812  0.34937269859668607  0.6028113138489091  1.0000
  C   C3        1.0  0.5272054173876284  0.3895557083227199  0.6777067140347808  1.0000
  C   C4        1.0  0.4526505488810489  0.3345454975813946  0.6651233894352411  1.0000
  C   C5        1.0  0.3905326614404007  0.376972905959829  0.7444404541795393  1.0000
  C   C6        1.0  0.31599400619672546  0.3954252216839691  0.6886803711627854  1.0000
  C   C7        1.0  0.2574669002525127  0.4354243381088996  0.7636837130961944  1.0000
  C   C8        1.0  0.1814903835981226  0.4544818686840528  0.7057083006812963  1.0000
  N   N2        1.0  0.12041817949273022  0.4697977436569425  0.6590962199117969  1.0000
  C   C9        1.0  0.272986291899255  0.45721442412054936  0.8949556391192597  1.0000
  C   C10       1.0  0.3467402856208637  0.43915120329592394  0.9511033149411017  1.0000
  C   C11       1.0  0.4052557838304253  0.39933227092211565  0.8765576780550788  1.0000
  C   C12       1.0  0.4379113729272402  0.23867445233267892  0.5762117918007392  1.0000
  C   C13       1.0  0.4964267348256759  0.1987702351303362  0.5017163850602202  1.0000
  C   C14       1.0  0.5701968145680537  0.25389297807019195  0.5148496361989692  1.0000
  H   H1        1.0  0.5395583409268624  0.4647685884912671  0.7443368102481878  1.0000
  H   H2        1.0  0.3036544066010261  0.38042585522161865  0.5866604163272047  1.0000
  H   H3        1.0  0.22812642632150784  0.4881138161301646  0.9537896614844144  1.0000
  H   H4        1.0  0.3585664998653393  0.4557081126042919  0.05275008348729271  1.0000
  H   H5        1.0  0.46173482936393945  0.38435375756353385  0.9226613071640297  1.0000
  H   H6        1.0  0.3814189773336401  0.19333617064889808  0.5655588572464438  1.0000
  H   H7        1.0  0.4845879297000712  0.12467346591333595  0.4338880670033254  1.0000
  H   H8        1.0  0.6150565177655999  0.22212404037917133  0.4565266823228993  1.0000
  C   C15       1.0  0.9215461805224398  0.07974509499829652  0.6428533599381943  1.0000
  C   C16       1.0  0.9266102393690647  0.08949337399836965  0.5068043174108599  1.0000
  C   C17       1.0  0.9292499944386156  0.9772967612257268  0.43788059732806417  1.0000
  C   C18       1.0  0.9267567681696299  0.8542120616727571  0.506831772815274  1.0000
  C   C19       1.0  0.9216909044833314  0.8424721747777231  0.6428806059048702  1.0000
  C   C20       1.0  0.9191145447770471  0.9557968532543447  0.7101295712388291  1.0000
  C   C21       1.0  0.9346083666266698  0.988663340120103  0.29395213524145847  1.0000
  C   C22       1.0  0.8909679331778076  0.08027601790655492  0.2159279224698496  1.0000
  C   C23       1.0  0.8960797426051185  0.09078175923908982  0.0804719304235284  1.0000
  C   C24       1.0  0.9447580339215499  0.010193248270975008  0.021342332614626702  1.0000
  C   C25       1.0  0.9883860173940843  0.9188918432916553  0.09785437825896648  1.0000
  C   C26       1.0  0.9834104513213223  0.9079998063107113  0.23333613910318785  1.0000
  Cl  Cl1       1.0  0.9510860744608264  0.023616570550570204  0.8513820189709604  1.0000
  H   H9        1.0  0.9195771599313795  0.4034825506524675  0.6946882746581013  1.0000
  H   H10       1.0  0.9295724200003811  0.18462021100695458  0.4543160785694047  1.0000
  H   H11       1.0  0.9277167912937696  0.7674052235357308  0.4539664838737494  1.0000
  H   H12       1.0  0.9152070794956986  0.9475082820891463  0.815085081374233  1.0000
  H   H13       1.0  0.919791120001418  0.5105463181992304  0.6947289753609984  1.0000
  H   H14       1.0  0.852173191461234  0.14257051913137953  0.2595010763787373  1.0000
  H   H15       1.0  0.8620207688252509  0.16139201398465675  0.02158137304380503  1.0000
  H   H16       1.0  0.026325282665635052  0.8565128794110701  0.05252196290266542  1.0000
  H   H17       1.0  0.0184430949648986  0.8377249699538739  0.2908119746890694  1.0000
  C   C27       1.0  0.9216493547240704  0.46099869966538076  0.26151740081255337  1.0000
  C   C28       1.0  0.8486911141384313  0.39980070708032733  0.2590525595134181  1.0000
  C   C29       1.0  0.8116922632815271  0.3689041375720419  0.14065421360763164  1.0000
  C   C30       1.0  0.8486283463881384  0.40002340206082065  0.023743541710995242  1.0000
  C   C31       1.0  0.921587730361674  0.46121862113591106  0.024216638029724846  1.0000
  C   C32       1.0  0.9576896486036983  0.4913643721831704  0.14359319348708866  1.0000
  C   C33       1.0  0.7345075138501983  0.30417677280091726  0.1391093420858156  1.0000
  C   C34       1.0  0.677695494663177  0.34335566763239367  0.04351420003153228  1.0000
  C   C35       1.0  0.6050660202234923  0.2824049077937467  0.04229804753613098  1.0000
  C   C36       1.0  0.5881893476096695  0.18185883324466157  0.13648053043580233  1.0000
  C   C37       1.0  0.6443184120041705  0.14185117996138508  0.2316142328130637  1.0000
  C   C38       1.0  0.7169953178228687  0.20263058351618923  0.23319666315896193  1.0000
  S   S1        1.0  0.4950271916706657  0.10351880219495468  0.13447238730252087  1.0000
  C   C39       1.0  0.4557050958644664  0.2160152827485966  0.23999245274169634  1.0000
  H   H18       1.0  0.9494609631319696  0.4842709032003001  0.5899145395712224  1.0000
  H   H19       1.0  0.8200150618683725  0.3776259472625365  0.34925967251238554  1.0000
  H   H20       1.0  0.8208027390065252  0.37480673646902196  0.9323984873825863  1.0000
  H   H21       1.0  0.013974003813295166  0.5385752426554598  0.1447263561000336  1.0000
  H   H22       1.0  0.9493716117881135  0.48459446085604463  0.6969376806581042  1.0000
  H   H23       1.0  0.6891187131426187  0.42222173152453557  0.9707704037924847  1.0000
  H   H24       1.0  0.5618445616218526  0.3138498467478792  0.9684377707299894  1.0000
  H   H25       1.0  0.6317227216616808  0.06362986773332713  0.30438715866955857  1.0000
  H   H26       1.0  0.7598036083187185  0.1691166274672118  0.30692234215650704  1.0000
  H   H27       1.0  0.4881459979843467  0.21140233409952858  0.33565570353754093  1.0000
  H   H28       1.0  0.3948164750252413  0.1882270036054441  0.2557918648739925  1.0000
  H   H29       1.0  0.4586897907106228  0.3168667138113377  0.19364694616374978  1.0000
  Zn  Zn1       1.0  0.8375522466233112  0.4574379547818219  0.636003675254269  1.0000
  Zn  Zn2       1.0  0.005677484522258691  0.4647784127271293  0.649729138621072  1.0000
  C   C40       1.0  0.9215966778952539  0.45600329652002625  0.8800498028686325  1.0000
  C   C41       1.0  0.9216348894732892  0.46621478980127784  0.40568328840696966  1.0000
  C   C42       1.0  0.9216600113299808  0.6982988915171  0.6377002601744073  1.0000
  C   C43       1.0  0.9215714983675314  0.2239176320182823  0.6480328955969485  1.0000
  O   O1        1.0  0.9854326853186056  0.4707453570995408  0.4592754188694266  1.0000
  O   O2        1.0  0.9854020473063608  0.45704298712625535  0.8368746076538145  1.0000
  O   O3        1.0  0.9854523296564855  0.6526997071696543  0.641175567095974  1.0000
  O   O4        1.0  0.985382345608357  0.2750886438134792  0.654974357374291  1.0000
  O   O5        1.0  0.857847328164321  0.6471277211919464  0.6307584518103921  1.0000
  O   O6        1.0  0.8577970461123359  0.4514725614309423  0.8264574231818214  1.0000
  O   O7        1.0  0.8578276842931881  0.4651748857003475  0.4488566730783532  1.0000
  O   O8        1.0  0.8577773445701719  0.2695181631534225  0.644555708945536  1.0000
