data_image0
_chemical_formula_structural       NC8NC6H8C12ClH9C13F3H9Zn2C4O8
_chemical_formula_sum              "N2 C43 H26 Cl1 F3 Zn2 O8"
_cell_length_a       17.457602349358154
_cell_length_b       10.299768534541528
_cell_length_c       10.2985328690268
_cell_angle_alpha    85.58012551441328
_cell_angle_beta     92.88104695485512
_cell_angle_gamma    91.70638861519478

_space_group_name_H-M_alt    "P 1"
_space_group_IT_number       1

loop_
  _space_group_symop_operation_xyz
  'x, y, z'

loop_
  _atom_site_type_symbol
  _atom_site_label
  _atom_site_symmetry_multiplicity
  _atom_site_fract_x
  _atom_site_fract_y
  _atom_site_fract_z
  _atom_site_occupancy
  N   N1        1.0  0.7226210929470093  0.4523826242036495  0.6264470354940133  1.0000
  C   C1        1.0  0.6615338320689462  0.4064543282053561  0.6158288117519866  1.0000
  C   C2        1.0  0.5855386981402024  0.3493252453787099  0.602629284351061  1.0000
  C   C3        1.0  0.5270220260382377  0.38951079880394857  0.6775344421109972  1.0000
  C   C4        1.0  0.4524654123266403  0.33450016069067945  0.664949478122103  1.0000
  C   C5        1.0  0.3903585255192764  0.3769302629428899  0.7442768765068097  1.0000
  C   C6        1.0  0.315812136804536  0.39538068486743105  0.6885095289165508  1.0000
  C   C7        1.0  0.2572954332152562  0.43538234865763115  0.7635226424869652  1.0000
  C   C8        1.0  0.18131087584158911  0.4544379101931624  0.7055396768794928  1.0000
  N   N2        1.0  0.1202322070188145  0.4697522020633178  0.6589215233628116  1.0000
  C   C9        1.0  0.2728330312129691  0.45717689310455256  0.8948116709694283  1.0000
  C   C10       1.0  0.34659481216162  0.43911557924347955  0.9509666618614081  1.0000
  C   C11       1.0  0.4050999714962248  0.3992941150496012  0.8764113129694235  1.0000
  C   C12       1.0  0.4377139050556877  0.23862609570564253  0.5760262968456558  1.0000
  C   C13       1.0  0.4962189350456802  0.1987193483892149  0.5015211846432939  1.0000
  C   C14       1.0  0.5699908362634248  0.25384253737836593  0.514656146817305  1.0000
  H   H1        1.0  0.5393841906311659  0.4647259419542331  0.744173219072449  1.0000
  H   H2        1.0  0.3034583878689129  0.3803778534649458  0.5864762826470118  1.0000
  H   H3        1.0  0.2279813254367321  0.4880782833150663  0.9536533583891695  1.0000
  H   H4        1.0  0.3584351239881091  0.45567594081732277  0.05262667322184433  1.0000
  H   H5        1.0  0.46158541122900165  0.38431716752502876  0.9225209485831072  1.0000
  H   H6        1.0  0.381220031986505  0.19328745221244348  0.5653719743984107  1.0000
  H   H7        1.0  0.4843707226827345  0.12462027549484156  0.43368402973079156  1.0000
  H   H8        1.0  0.6148424505405133  0.2220716188440488  0.4563255944700251  1.0000
  C   C15       1.0  0.9213579552956438  0.07969900174262179  0.6426765472257492  1.0000
  C   C16       1.0  0.9264031452440012  0.08944266006051049  0.5066097798634372  1.0000
  C   C17       1.0  0.9290333411528389  0.9772437064069651  0.4376770802131138  1.0000
  C   C18       1.0  0.9265496778524082  0.8541613486673751  0.5066372388448155  1.0000
  C   C19       1.0  0.92150268303533  0.8424260824474128  0.6427037967421025  1.0000
  C   C20       1.0  0.9189356502148648  0.9557530449246437  0.7099615234520387  1.0000
  C   C21       1.0  0.934371751631068  0.9886053970076181  0.2937298667395698  1.0000
  C   C22       1.0  0.8907204968569998  0.08021542482988653  0.21569548876378208  1.0000
  C   C23       1.0  0.895813519637333  0.09071656562222152  0.08022184914669461  1.0000
  C   C24       1.0  0.9444836101583386  0.010126046414474565  0.02108454777484292  1.0000
  C   C25       1.0  0.9881222052307687  0.9188272400410665  0.09760656161416303  1.0000
  C   C26       1.0  0.9831654293789075  0.9079398044755169  0.23310597338637873  1.0000
  Cl  Cl1       1.0  0.9507880785812074  0.02354359627128222  0.8511020912446408  1.0000
  H   H9        1.0  0.9193961237866554  0.40343821788449996  0.6945182151376845  1.0000
  H   H10       1.0  0.9293580461824914  0.18456771439230768  0.4541147027131309  1.0000
  H   H11       1.0  0.9275023689899324  0.7673527150476742  0.45376506247133874  1.0000
  H   H12       1.0  0.9150427414111404  0.9474680384008928  0.8149307074734364  1.0000
  H   H13       1.0  0.9196100895015511  0.5105019868135955  0.6945589211431782  1.0000
  H   H14       1.0  0.8519317983833116  0.14251140594528744  0.25927431950029134  1.0000
  H   H15       1.0  0.8617463782150074  0.16132482024677164  0.021323619346851563  1.0000
  H   H16       1.0  0.026055183264146686  0.8564467365194806  0.05226824022893006  1.0000
  H   H17       1.0  0.018206044454508463  0.8376669201909954  0.2905892970786226  1.0000
  C   C27       1.0  0.9214082412939859  0.4609396549604352  0.2612909066262745  1.0000
  C   C28       1.0  0.9983316676844964  0.4234090695837811  0.2697858315352455  1.0000
  C   C29       1.0  0.03730936658273931  0.4045107071494849  0.15691942247718305  1.0000
  C   C30       1.0  0.9983770094069033  0.42366666461784974  0.03448886343985946  1.0000
  C   C31       1.0  0.9214523852905802  0.46118549295263356  0.024089491246357397  1.0000
  C   C32       1.0  0.8834592539033893  0.4795772205196649  0.13802800000936077  1.0000
  C   C33       1.0  0.11863574858541592  0.364844114263432  0.16683501953835322  1.0000
  C   C34       1.0  0.1716216367257355  0.421758715390788  0.079622033628028  1.0000
  C   C35       1.0  0.2481606846219151  0.38452925408954064  0.08897542964297012  1.0000
  C   C36       1.0  0.2731063735631165  0.28822386938086053  0.18448237449769422  1.0000
  C   C37       1.0  0.22056493489878926  0.2331477113335585  0.2733090242030274  1.0000
  C   C38       1.0  0.14403088745103942  0.27041044572769857  0.264066958246054  1.0000
  C   C39       1.0  0.35628069058570344  0.2515711647057677  0.19755826295920698  1.0000
  F   F1        1.0  0.39564159013084077  0.3326044286147165  0.2802593162976341  1.0000
  F   F2        1.0  0.38895648201508815  0.2641716577285558  0.07737004290517846  1.0000
  F   F3        1.0  0.36336153125560133  0.12376062669123011  0.24802007423366512  1.0000
  H   H18       1.0  0.7761979614142742  0.532683416664911  0.452512559096387  1.0000
  H   H19       1.0  0.02837392339042899  0.4105620534295298  0.36431821968177824  1.0000
  H   H20       1.0  0.027838506832436938  0.4075723306765162  0.9472640708803453  1.0000
  H   H21       1.0  0.8241725968170779  0.5084975246666552  0.13074764863514865  1.0000
  H   H22       1.0  0.7759520176556121  0.5313330621840571  0.797158173265534  1.0000
  H   H23       1.0  0.1541528666750529  0.49675911249555504  0.00546753980696324  1.0000
  H   H24       1.0  0.28794514247006164  0.43149307616594945  0.021740419431818703  1.0000
  H   H25       1.0  0.23864762776571768  0.161065640601324  0.34995659630710474  1.0000
  H   H26       1.0  0.1045229438243851  0.22441272052543737  0.3323442488591166  1.0000
  Zn  Zn1       1.0  0.8373630714008293  0.4573916288878619  0.6358259701464903  1.0000
  Zn  Zn2       1.0  0.005490212910174375  0.46473255299598004  0.649553221703556  1.0000
  C   C40       1.0  0.9214413498904293  0.4559652592517929  0.8799038927463856  1.0000
  C   C41       1.0  0.921413770682021  0.4661606414538222  0.4054755765400624  1.0000
  C   C42       1.0  0.9214710714100608  0.6982526232448589  0.6375227761022724  1.0000
  C   C43       1.0  0.9213839915003033  0.22387171467702527  0.6478567576883323  1.0000
  O   O1        1.0  0.9852189993209745  0.4706930289207383  0.45907468912933846  1.0000
  O   O2        1.0  0.9852407312522927  0.45700348348345887  0.8367230725510744  1.0000
  O   O3        1.0  0.9852638717334362  0.6526535569305023  0.640998535796167  1.0000
  O   O4        1.0  0.985195801465553  0.27504296222756586  0.6547991238179744  1.0000
  O   O5        1.0  0.8576574254719084  0.6470812171525904  0.630580063340803  1.0000
  O   O6        1.0  0.8576342852793089  0.4514327039855919  0.8263045309002854  1.0000
  O   O7        1.0  0.8576125533000556  0.46512220366596346  0.44865458595605623  1.0000
  O   O8        1.0  0.85758935544537  0.26947212771523454  0.6443791180196956  1.0000
