data_image0
_chemical_formula_structural       NC11NC3H8C12NCOCH13C12NH11Zn2C4O8
_chemical_formula_sum              "N4 C44 H32 O9 Zn2"
_cell_length_a       17.807433833752565
_cell_length_b       10.299155265289647
_cell_length_c       10.299774167527174
_cell_angle_alpha    85.56091470143106
_cell_angle_beta     88.5175958409119
_cell_angle_gamma    90.66237101144992

_space_group_name_H-M_alt    "P 1"
_space_group_IT_number       1

loop_
  _space_group_symop_operation_xyz
  'x, y, z'

loop_
  _atom_site_type_symbol
  _atom_site_label
  _atom_site_symmetry_multiplicity
  _atom_site_fract_x
  _atom_site_fract_y
  _atom_site_fract_z
  _atom_site_occupancy
  N   N1        1.0  0.7071929788992659  0.4381385358506662  0.5343324031464114  1.0000
  C   C1        1.0  0.6563767657213027  0.4034292117336804  0.6009010385814773  1.0000
  C   C2        1.0  0.5931562708318686  0.3602536726784731  0.6837039264008538  1.0000
  C   C3        1.0  0.6048893007582219  0.2967355730783361  0.8064338053670379  1.0000
  C   C4        1.0  0.5435759798092396  0.25523924460429703  0.886952415379326  1.0000
  C   C5        1.0  0.47037530808588485  0.2769479161040449  0.8453819968548781  1.0000
  C   C6        1.0  0.45766548109646815  0.34062044110885004  0.722191900690776  1.0000
  C   C7        1.0  0.379896480570575  0.36365849690103436  0.677840601892369  1.0000
  C   C8        1.0  0.3611251288810944  0.34674673010400636  0.5482710384879765  1.0000
  C   C9        1.0  0.2878945260441779  0.36841665796900047  0.5066565611051899  1.0000
  C   C10       1.0  0.2324921850290879  0.40731665823519103  0.5937913254514768  1.0000
  C   C11       1.0  0.1571248055869933  0.42964469154273277  0.5508154394517071  1.0000
  N   N2        1.0  0.0965348061169149  0.44759477151291205  0.5162659548935657  1.0000
  C   C12       1.0  0.2505719618765945  0.42443885858780916  0.7228297228164311  1.0000
  C   C13       1.0  0.3237497938754407  0.4027340741271246  0.764699626811751  1.0000
  C   C14       1.0  0.5198361138544707  0.382112209214299  0.6416897069651697  1.0000
  H   H1        1.0  0.6613567237355866  0.2793298321076969  0.8398024949355396  1.0000
  H   H2        1.0  0.5527787127181374  0.2058117732866156  0.9816975003302397  1.0000
  H   H3        1.0  0.4237394661557774  0.24240840475800063  0.9088274513416694  1.0000
  H   H4        1.0  0.40281495146266877  0.3150824491101527  0.4795664387589902  1.0000
  H   H5        1.0  0.2744626708998445  0.3545053642719651  0.4066306097161605  1.0000
  H   H6        1.0  0.2081656584208873  0.45487988026800785  0.7910199120308374  1.0000
  H   H7        1.0  0.3366528889956699  0.418190823896472  0.8645424113967064  1.0000
  H   H8        1.0  0.5113315436250758  0.4329021916362954  0.5471785555290909  1.0000
  C   C15       1.0  0.9019513828425352  0.061471324720269394  0.5254137953552196  1.0000
  C   C16       1.0  0.8891273294361963  0.0708321329154733  0.3910903181539558  1.0000
  C   C17       1.0  0.8825525130034912  0.9584387854304668  0.32287114333304845  1.0000
  C   C18       1.0  0.8889477205253693  0.8355679375969374  0.39079088281561325  1.0000
  C   C19       1.0  0.9017836077023319  0.8242521998252843  0.5251953974495018  1.0000
  C   C20       1.0  0.9082097586464669  0.9377191212661228  0.5916792482284456  1.0000
  C   C21       1.0  0.868987140381904  0.9693150820426893  0.18077308089421695  1.0000
  C   C22       1.0  0.9070923311639381  0.06433469153673532  0.09759130804687999  1.0000
  C   C23       1.0  0.8943326033740843  0.07443927606032341  0.9638672752717774  1.0000
  C   C24       1.0  0.8436796921190984  0.9888552109892709  0.9104698873657324  1.0000
  C   C25       1.0  0.8046568458205491  0.8956295852326396  0.9936260857719255  1.0000
  C   C26       1.0  0.817443938193531  0.8852696382132874  0.1273115151291122  1.0000
  N   N3        1.0  0.8285025535222728  0.9986992209071097  0.773619860078036  1.0000
  C   C27       1.0  0.8833638719156927  0.03694793473500324  0.6728612539806558  1.0000
  O   O1        1.0  0.9522817227855408  0.041161853037105844  0.6975203273742214  1.0000
  C   C28       1.0  0.8594064917686952  0.06278423324814719  0.5354398687546884  1.0000
  H   H9        1.0  0.9069073817289528  0.38534750957182284  0.5770735742060329  1.0000
  H   H10       1.0  0.8831869874131087  0.16572226146627966  0.33955887763801496  1.0000
  H   H11       1.0  0.8849099965280561  0.7486599289563426  0.338352384971639  1.0000
  H   H12       1.0  0.9181037481244303  0.9297841305176842  0.6952851904423611  1.0000
  H   H13       1.0  0.9264605334110639  0.5956219186664399  0.77872520160745  1.0000
  H   H14       1.0  0.9472056672036108  0.13036559180238805  0.1358202890157827  1.0000
  H   H15       1.0  0.923157299032569  0.1505827032210445  0.9029522306041842  1.0000
  H   H16       1.0  0.7644714711519316  0.8303008066985371  0.9545334543236308  1.0000
  H   H17       1.0  0.7862051819054778  0.812684099025593  0.189171485068661  1.0000
  H   H18       1.0  0.775591065138563  0.9685391304660226  0.7450031799836063  1.0000
  H   H19       1.0  0.8051769263613839  0.11491186981315216  0.533502844268746  1.0000
  H   H20       1.0  0.8524577320017428  0.968996498146696  0.4905404668812743  1.0000
  H   H21       1.0  0.9021778275981865  0.12390289249856679  0.4780626020821135  1.0000
  C   C29       1.0  0.901893068316636  0.44274783685229435  0.14395136064238456  1.0000
  C   C30       1.0  0.8283272007870964  0.3916555019426726  0.15020039672379215  1.0000
  C   C31       1.0  0.7910244640360223  0.3658817983310485  0.03622020088955358  1.0000
  C   C32       1.0  0.8282755376673017  0.39188556565078336  0.9148980144058148  1.0000
  C   C33       1.0  0.9018418835656274  0.44297568551379785  0.9066578124251921  1.0000
  C   C34       1.0  0.938238576499609  0.4681212221969002  0.02172288410459755  1.0000
  C   C35       1.0  0.713196039709569  0.3118296359517374  0.04388466737527663  1.0000
  C   C36       1.0  0.6921042097391372  0.21285607474514712  0.1401913185421535  1.0000
  C   C37       1.0  0.6188485952699188  0.16203762272423172  0.14727155597437824  1.0000
  C   C38       1.0  0.5655260341282641  0.20927187490951837  0.05842687509688993  1.0000
  C   C39       1.0  0.5861222004300982  0.3078432074680675  0.9623027044260075  1.0000
  C   C40       1.0  0.6593552341081154  0.3587623805373783  0.9549572046732941  1.0000
  N   N4        1.0  0.4906025547779332  0.1572367740489169  0.06580505480983323  1.0000
  H   H22       1.0  0.9299378204302209  0.4621629961164053  0.4690272149379904  1.0000
  H   H23       1.0  0.7994883349172979  0.37345061070622965  0.2438294707913724  1.0000
  H   H24       1.0  0.8001448482121286  0.3705252285505072  0.8268790690622314  1.0000
  H   H25       1.0  0.994991419565808  0.5075357233606197  0.01613404604271307  1.0000
  H   H26       1.0  0.9298627076631025  0.4624981471491647  0.576060822875768  1.0000
  H   H27       1.0  0.7325248761005987  0.17356658167752337  0.20897745177941784  1.0000
  H   H28       1.0  0.6037104543214844  0.0856175733478024  0.22181490410828708  1.0000
  H   H29       1.0  0.5453882784382029  0.34545965647527876  0.8932615477763783  1.0000
  H   H30       1.0  0.6736149376816386  0.436027654749493  0.8807863792766235  1.0000
  H   H31       1.0  0.4504618067289838  0.19182094815552353  0.9999926083363819  1.0000
  H   H32       1.0  0.4747199119175393  0.08374413512778012  0.13713494151645045  1.0000
  Zn  Zn1       1.0  0.8195486200489868  0.4408639285521152  0.5291263016435546  1.0000
  Zn  Zn2       1.0  0.9841791518327208  0.4448587616435886  0.5214826450155534  1.0000
  C   C41       1.0  0.9018510302593903  0.4377585119199825  0.7624915501237457  1.0000
  C   C42       1.0  0.9018785390135557  0.4479658606706791  0.28811744005892015  1.0000
  C   C43       1.0  0.9018117802507385  0.6800687096415432  0.5200619134282256  1.0000
  C   C44       1.0  0.9019177331839369  0.20565410119565408  0.5305471490452096  1.0000
  O   O2        1.0  0.9643500929258829  0.4512274293352654  0.33360016705162443  1.0000
  O   O3        1.0  0.9643302409203351  0.4375279492354456  0.7112070910624002  1.0000
  O   O4        1.0  0.9642977037392237  0.633196478292986  0.5154434829180046  1.0000
  O   O5        1.0  0.9643825739342348  0.25555890817634297  0.5293636804309552  1.0000
  O   O6        1.0  0.8393451417671524  0.6301637806575322  0.5212452688297262  1.0000
  O   O7        1.0  0.839377678606214  0.43449681199162815  0.7170088072849252  1.0000
  O   O8        1.0  0.8393975307764378  0.44819624636718847  0.33940032194825953  1.0000
  O   O9        1.0  0.8394300117772283  0.25252771594781964  0.5351639326942288  1.0000
