data_image0
_chemical_formula_structural       NC8NC6H8C12NCOCH13C12OCH12Zn2C4O8
_chemical_formula_sum              "N3 C45 H33 O10 Zn2"
_cell_length_a       17.457602349358154
_cell_length_b       10.299155265289647
_cell_length_c       10.299794127170987
_cell_angle_alpha    85.56075829467142
_cell_angle_beta     92.8688978689242
_cell_angle_gamma    91.66712233072684

_space_group_name_H-M_alt    "P 1"
_space_group_IT_number       1

loop_
  _space_group_symop_operation_xyz
  'x, y, z'

loop_
  _atom_site_type_symbol
  _atom_site_label
  _atom_site_symmetry_multiplicity
  _atom_site_fract_x
  _atom_site_fract_y
  _atom_site_fract_z
  _atom_site_occupancy
  N   N1        1.0  0.7221918176902272  0.4525164612477923  0.6261176859199842  1.0000
  C   C1        1.0  0.6611249238901338  0.4065854300618785  0.6155169578113795  1.0000
  C   C2        1.0  0.5851551230379424  0.34945294477462596  0.602339191723567  1.0000
  C   C3        1.0  0.526612385567556  0.389639074085498  0.6772204463455758  1.0000
  C   C4        1.0  0.4520801498184691  0.3346251562158098  0.6646564203352339  1.0000
  C   C5        1.0  0.38994571180959786  0.3770558599155074  0.7439585492469589  1.0000
  C   C6        1.0  0.3153986847393999  0.3955090433343156  0.6881920372127523  1.0000
  C   C7        1.0  0.2568559784207192  0.4355112678913957  0.7631812979844135  1.0000
  C   C8        1.0  0.18087081032772603  0.4545696921992748  0.7051992459736696  1.0000
  N   N2        1.0  0.11979165311138731  0.4698862853134429  0.6585818292060017  1.0000
  C   C9        1.0  0.2723680473141454  0.45730361357276283  0.8944454861790816  1.0000
  C   C10       1.0  0.3461302566606228  0.43923955314528174  0.9505994542957716  1.0000
  C   C11       1.0  0.4046612865280577  0.3994175273913563  0.8760678350513824  1.0000
  C   C12       1.0  0.437379546865143  0.23874723056934877  0.5757785055928724  1.0000
  C   C13       1.0  0.4959104764169592  0.19883991467649897  0.5012971463618521  1.0000
  C   C14       1.0  0.5696578839196746  0.2539663756124635  0.5144110590450905  1.0000
  H   H1        1.0  0.5389350071527057  0.4648573325063867  0.7438241199228974  1.0000
  H   H2        1.0  0.3030639742092341  0.3805080483701  0.5861774173966556  1.0000
  H   H3        1.0  0.22749614204145932  0.4882054122202617  0.9532686301590194  1.0000
  H   H4        1.0  0.3579509315360179  0.45579819134766253  0.052240341947817126  1.0000
  H   H5        1.0  0.46114713875669505  0.3844383149570927  0.9221766822392967  1.0000
  H   H6        1.0  0.3809058010562077  0.1934058917798427  0.5651414767466882  1.0000
  H   H7        1.0  0.484101495143436  0.12473783331477573  0.4334948604646611  1.0000
  H   H8        1.0  0.6145299938006948  0.22219497713328118  0.4560992880813235  1.0000
  C   C15       1.0  0.921081081904532  0.07980780832236012  0.6424757528302176  1.0000
  C   C16       1.0  0.9079849480771113  0.08890832743808286  0.5064881351345558  1.0000
  C   C17       1.0  0.9012706380035775  0.9763815295225372  0.43741576422530115  1.0000
  C   C18       1.0  0.9078015294470664  0.8536404823166631  0.506165389811134  1.0000
  C   C19       1.0  0.9209097480898438  0.8425852739302689  0.6422355806457614  1.0000
  C   C20       1.0  0.9274722384207059  0.9561826288299877  0.709553335919431  1.0000
  C   C21       1.0  0.8874174568200452  0.9869824905679776  0.2935573624478862  1.0000
  C   C22       1.0  0.9263308171774356  0.0827768273001408  0.21532119965054308  1.0000
  C   C23       1.0  0.9133003736813252  0.09262242855922942  0.0799413738558099  1.0000
  C   C24       1.0  0.8615730721707334  0.006008969854979895  0.019970102974603776  1.0000
  C   C25       1.0  0.8217225926205851  0.9119899652539954  0.09806159373386603  1.0000
  C   C26       1.0  0.8347809810853412  0.9018895577987729  0.2334063676794762  1.0000
  N   N3        1.0  0.8460739422372048  0.015544870251493315  0.8811505449911725  1.0000
  C   C27       1.0  0.9020988206781699  0.0549089332671302  0.7875122673154884  1.0000
  O   O1        1.0  0.9724784478702929  0.0605235645718063  0.821115781483976  1.0000
  C   C28       1.0  0.8776332181377298  0.08025866226830769  0.6469818113949044  1.0000
  H   H9        1.0  0.9261422291643074  0.4037845854811981  0.6947786578110022  1.0000
  H   H10       1.0  0.9019185796376074  0.1836778562081891  0.4541858156011642  1.0000
  H   H11       1.0  0.9036781334128721  0.7666505477457936  0.45320294516851223  1.0000
  H   H12       1.0  0.9375761428555386  0.9484484558942285  0.8144431927118136  1.0000
  H   H13       1.0  0.9461102267295572  0.6144558723363945  0.8989676467116692  1.0000
  H   H14       1.0  0.96729498793618  0.14962294172161572  0.2587562135038606  1.0000
  H   H15       1.0  0.9427364109163003  0.16935189318231525  0.0227674356688774  1.0000
  H   H16       1.0  0.7806848547668788  0.8458445106960719  0.05375358133867203  1.0000
  H   H17       1.0  0.8028796810615406  0.8286689119422609  0.2912119214345179  1.0000
  H   H18       1.0  0.7920401734053241  0.9843094125690656  0.8456668116086354  1.0000
  H   H19       1.0  0.8222534314148551  0.1312840688325767  0.6380066226399506  1.0000
  H   H20       1.0  0.8705370471393576  0.9863298129451876  0.6011806421902559  1.0000
  H   H21       1.0  0.9213117087297514  0.14224681981904852  0.5951557056862149  1.0000
  C   C29       1.0  0.9210213043846146  0.46108416998341495  0.26100638973666634  1.0000
  C   C30       1.0  0.8458548935952561  0.4086741621042824  0.2576902434660657  1.0000
  C   C31       1.0  0.8077463584963923  0.3822192704355596  0.138861303174868  1.0000
  C   C32       1.0  0.8458026849759797  0.40889836451516004  0.0223810218266165  1.0000
  C   C33       1.0  0.9209695252176544  0.46130889862054625  0.023704941176721617  1.0000
  C   C34       1.0  0.9581587116671586  0.4871054778821047  0.14350309244025583  1.0000
  C   C35       1.0  0.7282267518974751  0.32676545140797786  0.1364078867315075  1.0000
  C   C36       1.0  0.6732935933174689  0.3730362297006633  0.04075982799376843  1.0000
  C   C37       1.0  0.5985575323921641  0.32083768088473197  0.03872338129371555  1.0000
  C   C38       1.0  0.5776681917625099  0.22198407640840268  0.13173350199827216  1.0000
  C   C39       1.0  0.631844791529307  0.17427554779603782  0.2281827863228647  1.0000
  C   C40       1.0  0.7066849965117246  0.22711823881321047  0.22977617104508985  1.0000
  O   O2        1.0  0.6138087745987761  0.07490758101099626  0.3235610273160652  1.0000
  C   C41       1.0  0.5402832719102578  0.012417638931419228  0.3336124334332926  1.0000
  H   H22       1.0  0.949673148130307  0.480996761884799  0.589728393602416  1.0000
  H   H23       1.0  0.8163846528660098  0.38995660910533436  0.34756618241762527  1.0000
  H   H24       1.0  0.8170482451476789  0.38704623838928764  0.9307077929872243  1.0000
  H   H25       1.0  0.01614676111887947  0.5275367696304454  0.14529299517238314  1.0000
  H   H26       1.0  0.9495958540998597  0.4813401794195662  0.6967507568038975  1.0000
  H   H27       1.0  0.6878666679008719  0.45074457780080723  0.9686081653869936  1.0000
  H   H28       1.0  0.5566029598479377  0.3574030070299561  0.9649485176405488  1.0000
  H   H29       1.0  0.5193922659688006  0.18340137637200926  0.12781439636024783  1.0000
  H   H30       1.0  0.7483017786938931  0.18878800905460813  0.3033502067004985  1.0000
  H   H31       1.0  0.5244814065640868  0.9632680482306991  0.24347604371884368  1.0000
  H   H32       1.0  0.5422713789842765  0.9380232594512065  0.41746873805152984  1.0000
  H   H33       1.0  0.4965707456115955  0.08477171600308364  0.35029833495624385  1.0000
  Zn  Zn1       1.0  0.8369305418690489  0.45752553654449013  0.6354936355873682  1.0000
  Zn  Zn2       1.0  0.005052916352700443  0.4648665646370542  0.6492165148714248  1.0000
  C   C42       1.0  0.9209787413623237  0.45609231269957173  0.8795400856411764  1.0000
  C   C43       1.0  0.9210065523737255  0.4663015074094301  0.40517034161497234  1.0000
  C   C44       1.0  0.9209385151406304  0.6984023702892148  0.6371057616021201  1.0000
  C   C45       1.0  0.9210467215728495  0.2239898869311936  0.6476047306977248  1.0000
  O   O3        1.0  0.9848031676764437  0.47083270930386933  0.4587608437741695  1.0000
  O   O4        1.0  0.9847831184512567  0.45713180137123177  0.8363645578144583  1.0000
  O   O5        1.0  0.9847497751011787  0.6528002001466036  0.6405970552605433  1.0000
  O   O6        1.0  0.9848364536622698  0.2751643172856406  0.6545282442728144  1.0000
  O   O7        1.0  0.8571469471875642  0.6472277813921825  0.6301819014962022  1.0000
  O   O8        1.0  0.8571802901882959  0.45156094300168337  0.8259493343166449  1.0000
  O   O9        1.0  0.857200339580726  0.46526180521764404  0.4483440589744574  1.0000
  O   O10       1.0  0.8572336255588886  0.269593403938551  0.6441115568385964  1.0000
