data_image0
_chemical_formula_structural       NC9NC5H8C16H10C12ClH9Zn2C4O8
_chemical_formula_sum              "N2 C46 H27 Cl1 Zn2 O8"
_cell_length_a       17.807436237873137
_cell_length_b       10.29914801576943
_cell_length_c       10.299771906710086
_cell_angle_alpha    85.52082016499398
_cell_angle_beta     89.40099058273775
_cell_angle_gamma    88.40369483635645

_space_group_name_H-M_alt    "P 1"
_space_group_IT_number       1

loop_
  _space_group_symop_operation_xyz
  'x, y, z'

loop_
  _atom_site_type_symbol
  _atom_site_label
  _atom_site_symmetry_multiplicity
  _atom_site_fract_x
  _atom_site_fract_y
  _atom_site_fract_z
  _atom_site_occupancy
  N   N1        1.0  0.7074712587221379  0.38828007640250806  0.5565439215431722  1.0000
  C   C1        1.0  0.6468777745874604  0.35309083522063434  0.5455348056145775  1.0000
  C   C2        1.0  0.5715061401106771  0.3093192944372778  0.5318406607335822  1.0000
  C   C3        1.0  0.5533949492910823  0.23792915143090987  0.4268677698823702  1.0000
  C   C4        1.0  0.4802129582229996  0.19531887750322308  0.4134890560127953  1.0000
  C   C5        1.0  0.4240933835816614  0.22372119727748885  0.5050509402327137  1.0000
  C   C6        1.0  0.3463198158082791  0.1785523518879375  0.4909148581946656  1.0000
  C   C7        1.0  0.2841573273117906  0.260307297002067  0.5168193822205345  1.0000
  C   C8        1.0  0.2108330042231882  0.217493965398728  0.5034544349539523  1.0000
  C   C9        1.0  0.1476208367800725  0.30194036422662696  0.5297217293364593  1.0000
  N   N2        1.0  0.0968112415628812  0.36982942622861814  0.5508399099911239  1.0000
  C   C10       1.0  0.1990875862906286  0.09266769621978743  0.46415972247948756  1.0000
  C   C11       1.0  0.2603927022439968  0.010898900172841897  0.43824681457798254  1.0000
  C   C12       1.0  0.3335975192321358  0.05331771904245319  0.4514093893250277  1.0000
  C   C13       1.0  0.4428960685230932  0.29560568120619934  0.6102428528518409  1.0000
  C   C14       1.0  0.516130889777486  0.33802559117329856  0.623465995936882  1.0000
  H   H1        1.0  0.5957800456787973  0.21546296600724646  0.3551644015401534  1.0000
  H   H2        1.0  0.46728516976252743  0.14165649076107267  0.33059110835078487  1.0000
  H   H3        1.0  0.2926711287179805  0.357771301068446  0.5456554097357966  1.0000
  H   H4        1.0  0.1426168090867645  0.05863210328145896  0.4535791607614401  1.0000
  H   H5        1.0  0.2511805592617234  0.9142554061246962  0.4082100291416566  1.0000
  H   H6        1.0  0.3802273732700041  0.9875731567159148  0.432388653793784  1.0000
  H   H7        1.0  0.401227897480209  0.31753240110966874  0.6832409479715438  1.0000
  H   H8        1.0  0.5295871017259985  0.39290895886265087  0.705321801722145  1.0000
  C   C15       1.0  0.9020913575808928  0.9976557083109541  0.5538582177478308  1.0000
  C   C16       1.0  0.8849256805957799  0.00810647232233519  0.42063580764100106  1.0000
  C   C17       1.0  0.8762775092085617  0.8962729029533019  0.352923805523927  1.0000
  C   C18       1.0  0.8850259282225639  0.77285002319544  0.4202297489364697  1.0000
  C   C19       1.0  0.9021983095912212  0.7604434748817409  0.5535368136612058  1.0000
  C   C20       1.0  0.910626633327475  0.8733676797788879  0.6195302119830397  1.0000
  C   C21       1.0  0.8581184785827327  0.9083741477818735  0.211990559577933  1.0000
  C   C22       1.0  0.8936540626754416  0.8257296060740765  0.12625231406036863  1.0000
  C   C23       1.0  0.8765371632993242  0.8372453008488926  0.9936117611511008  1.0000
  C   C24       1.0  0.8237088796365089  0.9313146977506179  0.9449077752216581  1.0000
  C   C25       1.0  0.78803619032588  0.013946422422208782  0.029364089329933396  1.0000
  C   C26       1.0  0.8050995281909604  0.002674525562999852  0.16202637349895155  1.0000
  C   C27       1.0  0.8061147383810443  0.9430451017309452  0.8083414712080681  1.0000
  C   C28       1.0  0.7913798347954556  0.9528692016464674  0.6939691682030622  1.0000
  C   C29       1.0  0.7741254366856596  0.964373091425637  0.5600403673110383  1.0000
  C   C30       1.0  0.7593930059784735  0.9741956916384776  0.4456865358290032  1.0000
  H   H9        1.0  0.9086553779566137  0.3211123234171356  0.6051159233116077  1.0000
  H   H10       1.0  0.879253464827362  0.10344556502375557  0.3688088600359265  1.0000
  H   H11       1.0  0.8774146594180486  0.6863322807256195  0.36892579036908457  1.0000
  H   H12       1.0  0.923864763336646  0.8645909504023737  0.7222889643702421  1.0000
  H   H13       1.0  0.9341450619258854  0.5297421968770661  0.805331963281775  1.0000
  H   H14       1.0  0.935390237071316  0.7533367405006776  0.16149053470777397  1.0000
  H   H15       1.0  0.9046377714882825  0.7730092073374806  0.9290252656422027  1.0000
  H   H16       1.0  0.746897427043712  0.08687572376908181  0.9927472246210929  1.0000
  H   H17       1.0  0.7761230824290081  0.06656254878125667  0.22582291352021588  1.0000
  H   H18       1.0  0.7464567457013958  0.9828207615943054  0.3452742286077801  1.0000
  C   C31       1.0  0.9021090956037211  0.37915761802520764  0.17232871321250864  1.0000
  C   C32       1.0  0.9702600822653672  0.44481692331617406  0.16497369826554942  1.0000
  C   C33       1.0  0.004829361018433342  0.4779771226119873  0.04411602435569639  1.0000
  C   C34       1.0  0.9703325214768527  0.4445983095334556  0.9297029509636094  1.0000
  C   C35       1.0  0.9021805692559958  0.37894161011282756  0.9350663230221614  1.0000
  C   C36       1.0  0.8684508498646929  0.3465880951726217  0.05684146981394633  1.0000
  C   C37       1.0  0.07692792092248157  0.5474377730262594  0.037388772574947104  1.0000
  C   C38       1.0  0.08881575328086844  0.6498885160599559  0.11697351644946297  1.0000
  C   C39       1.0  0.15671044392006728  0.715164313925976  0.1104538461560387  1.0000
  C   C40       1.0  0.21348774915817836  0.6789999409879064  0.024648008288434387  1.0000
  C   C41       1.0  0.20231723675768243  0.5773747462191245  0.9451811901614189  1.0000
  C   C42       1.0  0.13448985539755265  0.5118954193182774  0.9513243271275691  1.0000
  Cl  Cl1       1.0  0.2986268752993979  0.7610229761754774  0.01670499814539861  1.0000
  H   H19       1.0  0.8761203448378571  0.35419638419849364  0.5025805467235711  1.0000
  H   H20       1.0  0.9971421966110225  0.46874470153512426  0.2535501029457987  1.0000
  H   H21       1.0  0.9962254537421947  0.4715147991102471  0.8362022426523339  1.0000
  H   H22       1.0  0.8158750443266404  0.29593610517489943  0.061747329008273955  1.0000
  H   H23       1.0  0.876225851266421  0.3538767852536997  0.6096599481676144  1.0000
  H   H24       1.0  0.04526793423859998  0.6806078527944563  0.18297342866484367  1.0000
  H   H25       1.0  0.16502838684557775  0.7940509929866879  0.1719323580306502  1.0000
  H   H26       1.0  0.24620819476125888  0.5487864823608275  0.8788317752981838  1.0000
  H   H27       1.0  0.12741876853684198  0.43240932739305826  0.8900473099840678  1.0000
  Zn  Zn1       1.0  0.8198263665884712  0.3829521496325452  0.5549053792729044  1.0000
  Zn  Zn2       1.0  0.9844561150154408  0.37514676296864446  0.5524891333310784  1.0000
  C   C43       1.0  0.9021646647505824  0.3738084086263065  0.7908947610780996  1.0000
  C   C44       1.0  0.9021196148467987  0.38429205745254014  0.3164998519164086  1.0000
  C   C45       1.0  0.902173747734115  0.6162620095824782  0.5484224303356608  1.0000
  C   C46       1.0  0.9021104754743223  0.14183689871500627  0.5589722533794987  1.0000
  O   O1        1.0  0.964599275959235  0.38304745248058736  0.36396805273017896  1.0000
  O   O2        1.0  0.964635173248712  0.36912792603111577  0.7415923120695753  1.0000
  O   O3        1.0  0.9646416657912052  0.5649123145955914  0.5457942012551569  1.0000
  O   O4        1.0  0.9645927272319372  0.18726307589809377  0.5597660669905482  1.0000
  O   O5        1.0  0.8396896981919212  0.570835839368107  0.5476284464311494  1.0000
  O   O6        1.0  0.8396832058583176  0.3750530112500037  0.7434264873426311  1.0000
  O   O7        1.0  0.8396473084661252  0.38897249287984037  0.3658006666214033  1.0000
  O   O8        1.0  0.8396407597435781  0.19318810698037558  0.5615987782535365  1.0000
