data_image0
_chemical_formula_structural       NC10NC3NH7C12BrH9C12OCH12Zn2C4O8
_chemical_formula_sum              "N3 C42 H28 Br1 O9 Zn2"
_cell_length_a       19.210446455230148
_cell_length_b       10.299144633409057
_cell_length_c       10.299794127170987
_cell_angle_alpha    85.56673362329126
_cell_angle_beta     89.98403246644892
_cell_angle_gamma    89.92144945022245

_space_group_name_H-M_alt    "P 1"
_space_group_IT_number       1

loop_
  _space_group_symop_operation_xyz
  'x, y, z'

loop_
  _atom_site_type_symbol
  _atom_site_label
  _atom_site_symmetry_multiplicity
  _atom_site_fract_x
  _atom_site_fract_y
  _atom_site_fract_z
  _atom_site_occupancy
  N   N1        1.0  0.6552150583679383  0.41986833930732836  0.5671857138790195  1.0000
  C   C1        1.0  0.594985790003227  0.4220760326795099  0.5674165316493651  1.0000
  C   C2        1.0  0.520180458989524  0.4248131681300238  0.5677024857656618  1.0000
  C   C3        1.0  0.48453152885327055  0.541053842433507  0.5827967224598756  1.0000
  C   C4        1.0  0.4118660024937318  0.5412053731599809  0.5827441058673823  1.0000
  C   C5        1.0  0.3750134723671567  0.4255221954354853  0.5677888621721805  1.0000
  C   C6        1.0  0.2976917881179998  0.42416560799823766  0.5676384736716993  1.0000
  C   C7        1.0  0.2599066848962685  0.5277243024459666  0.5042649535252637  1.0000
  C   C8        1.0  0.1871287876305265  0.5263219687941307  0.5041560872746809  1.0000
  C   C9        1.0  0.1511345013375998  0.42161844998056264  0.5673697097590766  1.0000
  C   C10       1.0  0.0762054081829452  0.42031626315901915  0.5672330759942075  1.0000
  N   N2        1.0  0.0159678991055136  0.4192692607529267  0.5671232573277576  1.0000
  C   C11       1.0  0.1881959074231778  0.3181854477800343  0.6307182045614022  1.0000
  C   C12       1.0  0.2609757403084941  0.3193135128153064  0.6308773537196526  1.0000
  C   C13       1.0  0.4132716637659398  0.3111019501769694  0.5529825125450372  1.0000
  N   N3        1.0  0.48404081272444344  0.3135470971202523  0.553147713786525  1.0000
  H   H1        1.0  0.51260304260701  0.6304953706189156  0.5948316191697522  1.0000
  H   H2        1.0  0.3845674551779932  0.6312291745758851  0.5961735708436411  1.0000
  H   H3        1.0  0.2866094825856003  0.608968066095505  0.45326518716914665  1.0000
  H   H4        1.0  0.1589581110759441  0.6067383447648294  0.4544867661085694  1.0000
  H   H5        1.0  0.1608535685746691  0.23680559793481715  0.6802881853022342  1.0000
  H   H6        1.0  0.2885014512972098  0.23901671821820925  0.6819843106521442  1.0000
  H   H7        1.0  0.3870362989203305  0.22021517058019402  0.5395069275450883  1.0000
  C   C14       1.0  0.8356856050485078  0.03817388939437327  0.5672332758997725  1.0000
  C   C15       1.0  0.8060077914541587  0.047127734040518066  0.44228352539614346  1.0000
  C   C16       1.0  0.7908668187777684  0.9345311525372485  0.3788554219657285  1.0000
  C   C17       1.0  0.8058041313952984  0.811862432511907  0.4420623277466631  1.0000
  C   C18       1.0  0.8355040129839546  0.8009537737475758  0.5670869305120056  1.0000
  C   C19       1.0  0.8502610720805157  0.9146215671836332  0.6289038340494433  1.0000
  C   C20       1.0  0.7594723556269231  0.9450484143704325  0.24667277631304896  1.0000
  C   C21       1.0  0.7827756948091112  0.040290474003416676  0.15120576702646527  1.0000
  C   C22       1.0  0.7531654772502208  0.04998249363485652  0.02684254364384353  1.0000
  C   C23       1.0  0.7000103512980068  0.964971488375591  0.9963183607181372  1.0000
  C   C24       1.0  0.676437160802386  0.8700492685492207  0.09034492434456443  1.0000
  C   C25       1.0  0.7059260775909977  0.8599401494051298  0.21480844285100176  1.0000
  Br  Br1       1.0  0.6596462419598229  0.978494871995145  0.8263700046646982  1.0000
  H   H8        1.0  0.8471299025480862  0.36220720209476553  0.6152707612712247  1.0000
  H   H9        1.0  0.7937178003053914  0.1418544585630872  0.3947268701101607  1.0000
  H   H10       1.0  0.7951172269385738  0.7247977630417098  0.39290138099656  1.0000
  H   H11       1.0  0.8731544929398516  0.9069996104526202  0.7252789461644542  1.0000
  H   H12       1.0  0.891961463008981  0.5730970811840508  0.8027302094742934  1.0000
  H   H13       1.0  0.8244827581181722  0.10610959502633865  0.1721996804468009  1.0000
  H   H14       1.0  0.7717017360957659  0.12340062834943843  0.9541846024486458  1.0000
  H   H15       1.0  0.6351471440021033  0.8042549050415827  0.06720243460638842  1.0000
  H   H16       1.0  0.686257908238475  0.7867379841906713  0.28660676126434126  1.0000
  C   C26       1.0  0.8356183100019344  0.41945029355704433  0.1858086874564333  1.0000
  C   C27       1.0  0.7674195215164216  0.37043764442258587  0.18863656879553226  1.0000
  C   C28       1.0  0.7328434895223543  0.3457051750777047  0.07292259441262106  1.0000
  C   C29       1.0  0.7673721435003087  0.3706642047323634  0.9533316418977456  1.0000
  C   C30       1.0  0.8355713216218784  0.4196773606811808  0.9485114985588692  1.0000
  C   C31       1.0  0.869313225460739  0.4437930703045452  0.06526982874870058  1.0000
  C   C32       1.0  0.6606950291665038  0.2938454698635602  0.07696903057945859  1.0000
  C   C33       1.0  0.6108510559350682  0.3425985179706337  0.9858200004807274  1.0000
  C   C34       1.0  0.5430427286558972  0.2937778776367983  0.9898923957522294  1.0000
  C   C35       1.0  0.5240926319769699  0.19586901387931954  0.08460117321743699  1.0000
  C   C36       1.0  0.5732502075097166  0.1457124166180752  0.1766131740503556  1.0000
  C   C37       1.0  0.6411530055404753  0.19517248808180798  0.17208926395515411  1.0000
  O   O1        1.0  0.5568890287091355  0.04716024397091245  0.2734565820447048  1.0000
  C   C38       1.0  0.4901794271599362  0.9879935734253271  0.28951671546227997  1.0000
  H   H17       1.0  0.8616142459274981  0.4380678847153012  0.5121887113309997  1.0000
  H   H18       1.0  0.7406809902307551  0.35305206962168256  0.28092156739432705  1.0000
  H   H19       1.0  0.7412831857057903  0.3501117294974647  0.8640085837456737  1.0000
  H   H20       1.0  0.9219260172705644  0.4816034279910988  0.06231984592036133  1.0000
  H   H21       1.0  0.861544103134734  0.43841479300175923  0.6192174340310768  1.0000
  H   H22       1.0  0.6240709522087174  0.4196477236316236  0.9124842151666854  1.0000
  H   H23       1.0  0.5049749213000838  0.33223900045199084  0.9195537421497959  1.0000
  H   H24       1.0  0.471218578616821  0.15992024499909574  0.08544569823797565  1.0000
  H   H25       1.0  0.6789143867100161  0.15496173971087868  0.24225454022433723  1.0000
  H   H26       1.0  0.47584363669017016  0.9395584586972111  0.2006679656568553  1.0000
  H   H27       1.0  0.4919858399389965  0.9135098643112097  0.37320258701459097  1.0000
  H   H28       1.0  0.4505153536510633  0.06232264472485283  0.3097863923969837  1.0000
  Zn  Zn1       1.0  0.7593205350375186  0.41969199611992747  0.5671751896552235  1.0000
  Zn  Zn2       1.0  0.9118624083600532  0.4194350238371949  0.5671444188712425  1.0000
  C   C39       1.0  0.8355798623350664  0.41446039463574835  0.8043453433417886  1.0000
  C   C40       1.0  0.8356047464170148  0.4246682612845034  0.329974391994855  1.0000
  C   C41       1.0  0.8355350657831365  0.656770580297031  0.5619396575900948  1.0000
  C   C42       1.0  0.8356494912842982  0.1823565153225466  0.5723801472918837  1.0000
  O   O2        1.0  0.8934890416502442  0.42631627315074105  0.378346043142874  1.0000
  O   O3        1.0  0.8934713196312635  0.4126163668522602  0.7559499642398184  1.0000
  O   O4        1.0  0.8934343653964861  0.6082849079208748  0.5602056578332026  1.0000
  O   O5        1.0  0.8935259438366031  0.23064774143168387  0.5740902521880078  1.0000
  O   O6        1.0  0.7776569475059136  0.6084792786145428  0.5602293563421277  1.0000
  O   O7        1.0  0.7776939013702826  0.41281229793570673  0.755973593207079  1.0000
  O   O8        1.0  0.7777116235425735  0.4265121585102709  0.3783681107897714  1.0000
  O   O9        1.0  0.777748525722296  0.23084361753076044  0.5741124172000573  1.0000
