data_image0
_chemical_formula_structural       NC12NC2H8C16H10C13NH13Zn2C4O8
_chemical_formula_sum              "N3 C47 H31 Zn2 O8"
_cell_length_a       19.240039667572717
_cell_length_b       10.29914801576943
_cell_length_c       10.299780419254978
_cell_angle_alpha    85.54946318164076
_cell_angle_beta     89.9865849046833
_cell_angle_gamma    90.01219802926651

_space_group_name_H-M_alt    "P 1"
_space_group_IT_number       1

loop_
  _space_group_symop_operation_xyz
  'x, y, z'

loop_
  _atom_site_type_symbol
  _atom_site_label
  _atom_site_symmetry_multiplicity
  _atom_site_fract_x
  _atom_site_fract_y
  _atom_site_fract_z
  _atom_site_occupancy
  N   N1        1.0  0.654818688700982  0.4210881796288952  0.5669656135217773  1.0000
  C   C1        1.0  0.5946703199035441  0.42108826359974905  0.5669655315560764  1.0000
  C   C2        1.0  0.5198522827929593  0.42108838086604816  0.5669653942121298  1.0000
  C   C3        1.0  0.48335826038384594  0.3566396823810458  0.6703978463242837  1.0000
  C   C4        1.0  0.4106874887964022  0.3565288102057249  0.6704844273049153  1.0000
  C   C5        1.0  0.3735200478947123  0.421088473390516  0.5669651665041997  1.0000
  C   C6        1.0  0.4107282853771794  0.4856483236188376  0.46344610016544774  1.0000
  C   C7        1.0  0.48339895031125624  0.48553721595029375  0.4635328037312778  1.0000
  C   C8        1.0  0.2963149574580722  0.421088394702406  0.5669650711222516  1.0000
  C   C9        1.0  0.2591089877061272  0.30782697742234744  0.608876991372699  1.0000
  C   C10       1.0  0.18643832295450358  0.30793386722354366  0.6087856291004172  1.0000
  C   C11       1.0  0.1499826705125143  0.42108826553160306  0.566965132078993  1.0000
  C   C12       1.0  0.0751646333134339  0.4210881518320335  0.5669653807730066  1.0000
  N   N2        1.0  0.0150163164305636  0.4210881110493543  0.5669655891995751  1.0000
  C   C13       1.0  0.1864745289424113  0.5342427396624203  0.5251445821402194  1.0000
  C   C14       1.0  0.2591452488337142  0.53434980956517  0.5250530572116527  1.0000
  H   H1        1.0  0.5110573181581792  0.3067422421316277  0.7511548068983138  1.0000
  H   H2        1.0  0.3835783250621745  0.3074297591733812  0.7523565489063266  1.0000
  H   H3        1.0  0.3836509183327349  0.5347474016950853  0.38157392770738263  1.0000
  H   H4        1.0  0.5111296639540142  0.5354345559873548  0.38277611897970965  1.0000
  H   H5        1.0  0.2861881913833021  0.21867070173239855  0.6400770865883727  1.0000
  H   H6        1.0  0.1587093825605576  0.21967706670249765  0.6410183103198965  1.0000
  H   H7        1.0  0.1587736458839464  0.6224995156476341  0.4929119154798782  1.0000
  H   H8        1.0  0.286252523988387  0.6235061644288944  0.49385291719627333  1.0000
  C   C15       1.0  0.8348713274003545  0.0396868177394778  0.5671311270891137  1.0000
  C   C16       1.0  0.8190186437849127  0.04925719114938598  0.4336625539345802  1.0000
  C   C17       1.0  0.8110320915067546  0.9369797780066571  0.36582655704741485  1.0000
  C   C18       1.0  0.8191114730963089  0.8140052898439932  0.43325797999701554  1.0000
  C   C19       1.0  0.834970341404773  0.8024794923409383  0.5668113026134785  1.0000
  C   C20       1.0  0.8427538646677126  0.9158362592965883  0.6329255434902448  1.0000
  C   C21       1.0  0.7942620356384562  0.9481496845420604  0.22463290300100103  1.0000
  C   C22       1.0  0.8271557225803049  0.8671464259361034  0.1394186560783408  1.0000
  C   C23       1.0  0.8113480427517369  0.8777843337344995  0.0065326315135609825  1.0000
  C   C24       1.0  0.7624844148197139  0.9693254248960653  0.9570566717067224  1.0000
  C   C25       1.0  0.729464155683273  0.05030872540508691  0.040987029753037474  1.0000
  C   C26       1.0  0.7452222786954509  0.03991208777823552  0.17389400005604538  1.0000
  C   C27       1.0  0.7462360438536331  0.9801534539433492  0.8202380610278266  1.0000
  C   C28       1.0  0.7326282082678618  0.9892218248353701  0.7056544538911456  1.0000
  C   C29       1.0  0.716693593516399  0.9998407647590861  0.57147821836335  1.0000
  C   C30       1.0  0.7030880418117426  0.008907762415830689  0.45691311824046066  1.0000
  H   H9        1.0  0.8409332031115916  0.3634802449946055  0.6184829509438121  1.0000
  H   H10       1.0  0.81378193782505  0.14430145490593116  0.38175457531523116  1.0000
  H   H11       1.0  0.8120807490804144  0.7271010759033024  0.381844563190594  1.0000
  H   H12       1.0  0.8549794134745944  0.9077384940912274  0.7358741355302849  1.0000
  H   H13       1.0  0.8644726909066945  0.5734186283313406  0.8190644284666442  1.0000
  H   H14       1.0  0.8657603644112992  0.796749385241908  0.17526689190130318  1.0000
  H   H15       1.0  0.8373588307160602  0.8148477348051659  0.9423603723462595  1.0000
  H   H16       1.0  0.6914124971397583  0.1212698259819236  0.003768956639276899  1.0000
  H   H17       1.0  0.7184013793050389  0.10245870853198791  0.23726350452052136  1.0000
  H   H18       1.0  0.6911412721165394  0.016869352274581972  0.3563153001606003  1.0000
  C   C31       1.0  0.8349681537166251  0.4209982800523675  0.18561708255890674  1.0000
  C   C32       1.0  0.8853016566337851  0.5200358405796817  0.17691397686687282  1.0000
  C   C33       1.0  0.9107524634277183  0.5703142499585165  0.05536008422917571  1.0000
  C   C34       1.0  0.8852062224532817  0.5202080878727877  0.9416137287904363  1.0000
  C   C35       1.0  0.834873544890572  0.42116800778582464  0.9483252821864139  1.0000
  C   C36       1.0  0.8100344483563382  0.37212112656887797  0.07078108051599585  1.0000
  C   C37       1.0  0.9640033307612078  0.6750849095959681  0.0472445233057639  1.0000
  C   C38       1.0  0.9593185538520913  0.779671451928954  0.951374372211796  1.0000
  C   C39       1.0  0.009462002782331114  0.878196427034406  0.9438215329424251  1.0000
  C   C40       1.0  0.06486406710264792  0.8744930101772601  0.03249754866561272  1.0000
  C   C41       1.0  0.07021508196885784  0.7696276066816481  0.12731104406150173  1.0000
  C   C42       1.0  0.020086000434944573  0.6710779304966248  0.13503666435681172  1.0000
  C   C43       1.0  0.11976127831367012  0.9787196191497658  0.021998396949787002  1.0000
  N   N3        1.0  0.17303721005295447  0.9460649137341586  0.9291342013366712  1.0000
  H   H19       1.0  0.8158169723941026  0.3832134654997108  0.5163902116939019  1.0000
  H   H20       1.0  0.9041468071174061  0.5595450513960041  0.26476728696409824  1.0000
  H   H21       1.0  0.9053592819754919  0.5573662296151185  0.8477906466821974  1.0000
  H   H22       1.0  0.7712046741906363  0.29571711168332926  0.0767265666328012  1.0000
  H   H23       1.0  0.8156813026462133  0.38345219392478125  0.6234273725531403  1.0000
  H   H24       1.0  0.9164551966267619  0.7860184096577969  0.8830700137583274  1.0000
  H   H25       1.0  0.004995869008980858  0.9576032583209688  0.8689489761298597  1.0000
  H   H26       1.0  0.11333660620039132  0.7639329634974477  0.19508860456192112  1.0000
  H   H27       1.0  0.02576335089683024  0.5906538548430065  0.20844375994863018  1.0000
  H   H28       1.0  0.09575839693867527  0.07375417981572463  0.9886780173949319  1.0000
  H   H29       1.0  0.14373120122666072  0.9900309142720176  0.11885033401467582  1.0000
  H   H30       1.0  0.20811995699789443  0.023762961273232186  0.9191621022114322  1.0000
  H   H31       1.0  0.20091033746803544  0.8657547376028418  0.9699403417908625  1.0000
  Zn  Zn1       1.0  0.7587639511590255  0.4210846940081079  0.5669730960922088  1.0000
  Zn  Zn2       1.0  0.9110710700533116  0.4210810046483835  0.5669687095601592  1.0000
  C   C44       1.0  0.8348891863997461  0.41596183600635417  0.8041593007966974  1.0000
  C   C45       1.0  0.8349474981985128  0.4262055013971058  0.3297826315821166  1.0000
  C   C46       1.0  0.8349486960655  0.6582942986829616  0.5616967632233008  1.0000
  C   C47       1.0  0.8348879363498279  0.1838714783019435  0.5722452390472703  1.0000
  O   O1        1.0  0.892740323147549  0.4279460261330921  0.37816424451274977  1.0000
  O   O2        1.0  0.8926939404638238  0.414217531242705  0.7557739851690544  1.0000
  O   O3        1.0  0.8927412159356007  0.6099040598857723  0.5599837700720229  1.0000
  O   O4        1.0  0.8926929957169567  0.23225950676062324  0.5739543622364922  1.0000
  O   O5        1.0  0.7771419735204365  0.60990619189854  0.559987443410541  1.0000
  O   O6        1.0  0.7770946982566469  0.41422122367669867  0.7557775886104814  1.0000
  O   O7        1.0  0.7771410811744422  0.42794967295974984  0.37816628663304575  1.0000
  O   O8        1.0  0.7770937537277217  0.2322631443193539  0.5739565017247432  1.0000
