data_image0
_chemical_formula_structural       NC12NC2H8C13OH12C12ClH9Zn2C4O8
_chemical_formula_sum              "N2 C43 H29 O9 Cl1 Zn2"
_cell_length_a       19.240039667572717
_cell_length_b       10.299150109392551
_cell_length_c       10.299771906710086
_cell_angle_alpha    85.52403423523229
_cell_angle_beta     90.0091503227729
_cell_angle_gamma    89.97992514300192

_space_group_name_H-M_alt    "P 1"
_space_group_IT_number       1

loop_
  _space_group_symop_operation_xyz
  'x, y, z'

loop_
  _atom_site_type_symbol
  _atom_site_label
  _atom_site_symmetry_multiplicity
  _atom_site_fract_x
  _atom_site_fract_y
  _atom_site_fract_z
  _atom_site_occupancy
  N   N1        1.0  0.6540879423498213  0.42180022200518685  0.5669883830762765  1.0000
  C   C1        1.0  0.593939573509776  0.42180030601675567  0.5669883011120291  1.0000
  C   C2        1.0  0.5191215363348639  0.4218004233513841  0.5669881637692014  1.0000
  C   C3        1.0  0.4826687631383374  0.357300158166695  0.6704211137524372  1.0000
  C   C4        1.0  0.4099980432427499  0.35718924308505273  0.6705076919523818  1.0000
  C   C5        1.0  0.3727893013606887  0.4218005159896012  0.5669879360574026  1.0000
  C   C6        1.0  0.40995623784740753  0.4864119758393277  0.4634683746426358  1.0000
  C   C7        1.0  0.48262695457020155  0.48630082520407103  0.4635550754194313  1.0000
  C   C8        1.0  0.2955842109276549  0.42180043734967265  0.5669878406672366  1.0000
  C   C9        1.0  0.25842123126169353  0.3085185212155117  0.6088950675955669  1.0000
  C   C10       1.0  0.1857505150104121  0.30862545633843874  0.6088037076899186  1.0000
  C   C11       1.0  0.1492519240339011  0.4218003081488946  0.5669879016191492  1.0000
  C   C12       1.0  0.07443388692156  0.42180019432514926  0.5669881503166778  1.0000
  N   N2        1.0  0.014285570094949998  0.421800153438153  0.5669883587492535  1.0000
  C   C13       1.0  0.185700843895253  0.5349752358082951  0.525172042633183  1.0000
  C   C14       1.0  0.2583715121982861  0.5350823511135103  0.5250805200748903  1.0000
  H   H1        1.0  0.5103998997727238  0.3073624542618063  0.7511784867630844  1.0000
  H   H2        1.0  0.3829209528694412  0.3080493656345562  0.7523803152349671  1.0000
  H   H3        1.0  0.3828467974231626  0.5355518803591037  0.3815957005028907  1.0000
  H   H4        1.0  0.5103255894413011  0.5362384287587645  0.382797978236598  1.0000
  H   H5        1.0  0.2855338976011425  0.219347007788933  0.6400913970185942  1.0000
  H   H6        1.0  0.1580549838833845  0.2203528962603858  0.6410327147517854  1.0000
  H   H7        1.0  0.1579665515803385  0.6232477713433273  0.4929430501296559  1.0000
  H   H8        1.0  0.2854453246573637  0.6242539437359669  0.4938841458548209  1.0000
  C   C15       1.0  0.8342556124694451  0.0404005125117366  0.5671324796260582  1.0000
  C   C16       1.0  0.8329872445189576  0.02855656322145439  0.7039428397366547  1.0000
  C   C17       1.0  0.8322836573460825  0.9054169062119221  0.7730449025414337  1.0000
  C   C18       1.0  0.8328532108435076  0.7933013241198307  0.7035794457534248  1.0000
  C   C19       1.0  0.8341245768691682  0.8031898421077913  0.5668554843803171  1.0000
  C   C20       1.0  0.8348202594729665  0.9271996191282752  0.49943100555891085  1.0000
  C   C21       1.0  0.8309358001322557  0.8938691273772631  0.9176846292441454  1.0000
  C   C22       1.0  0.7882044373171079  0.8009691189742637  0.9857058637410958  1.0000
  C   C23       1.0  0.7869130785979409  0.7901840799362618  0.12181170201823144  1.0000
  C   C24       1.0  0.8287855981890435  0.8711396959297851  0.19235679685822582  1.0000
  C   C25       1.0  0.8708520712795239  0.9649931522190492  0.12497813234157829  1.0000
  C   C26       1.0  0.8721595634068614  0.9759539883704983  0.9888720053491962  1.0000
  C   C27       1.0  0.8259365382605857  0.8619047769785638  0.33844267417031326  1.0000
  O   O1        1.0  0.7739927329812515  0.945068495122274  0.3786832310832312  1.0000
  H   H9        1.0  0.8361981732862325  0.27004935783792683  0.3088965138947184  1.0000
  H   H10       1.0  0.8315800791330785  0.11531320369171083  0.756951274380248  1.0000
  H   H11       1.0  0.8332543381927267  0.6981620407594725  0.756412817905906  1.0000
  H   H12       1.0  0.8357989354571363  0.935543137508441  0.39397172304711225  1.0000
  H   H13       1.0  0.8345668087949579  0.479517844943295  0.5142666536704306  1.0000
  H   H14       1.0  0.7549614623679355  0.7379771093940356  0.9335973162917561  1.0000
  H   H15       1.0  0.7531079422954524  0.7188383905654703  0.17218713342537728  1.0000
  H   H16       1.0  0.9028148820487993  0.029537894074002535  0.17783288374745299  1.0000
  H   H17       1.0  0.9059880566469951  0.04774485339781198  0.9393032150246463  1.0000
  H   H18       1.0  0.8770639546646419  0.8897211368066043  0.3786125630262117  1.0000
  H   H19       1.0  0.8146449499032894  0.7598714156244681  0.37625515603865145  1.0000
  H   H20       1.0  0.7742585383752632  0.9353604185855486  0.47530965108810097  1.0000
  C   C28       1.0  0.83415699571341  0.4219015269756117  0.1856246642586592  1.0000
  C   C29       1.0  0.8971860714620147  0.4907901509126531  0.17927194464572427  1.0000
  C   C30       1.0  0.9291573279197235  0.5255884080994426  0.05892267234102455  1.0000
  C   C31       1.0  0.8972531534365601  0.49057497095736147  0.9440022465060607  1.0000
  C   C32       1.0  0.8342231836295002  0.4216889071217709  0.9483633092287524  1.0000
  C   C33       1.0  0.8030283898173004  0.3877371166255206  0.0696424016773678  1.0000
  C   C34       1.0  0.9958372962547877  0.5984654320080331  0.053255772676183755  1.0000
  C   C35       1.0  0.00680425775799387  0.7014790631716727  0.1330204620890849  1.0000
  C   C36       1.0  0.06959634068100606  0.7699720357778272  0.1274993101167874  1.0000
  C   C37       1.0  0.12213392495787723  0.736498455679018  0.042523391051720205  1.0000
  C   C38       1.0  0.1118303324442631  0.6343443622078273  0.962887184550433  1.0000
  C   C39       1.0  0.04910058106683257  0.565651051222495  0.9680327780368478  1.0000
  Cl  Cl1       1.0  0.20087439169883092  0.8225557885642523  0.035832520318698435  1.0000
  H   H21       1.0  0.8101214151588823  0.3957088218888487  0.5154942860241305  1.0000
  H   H22       1.0  0.9220484456564179  0.5159917408354644  0.268243593357413  1.0000
  H   H23       1.0  0.9211994993989068  0.5187183821403654  0.850882455753049  1.0000
  H   H24       1.0  0.7544039366050745  0.33459383430814693  0.07377502953490822  1.0000
  H   H25       1.0  0.8102191192260769  0.39539422425830906  0.6225752154875002  1.0000
  H   H26       1.0  0.9665073778059494  0.7301345659607781  0.19838399952400843  1.0000
  H   H27       1.0  0.0772677768293466  0.8492525361560233  0.18910413481065214  1.0000
  H   H28       1.0  0.15244401976716793  0.6078361836625557  0.8971792921404966  1.0000
  H   H29       1.0  0.04258283601021762  0.48583022815744803  0.9066476844180804  1.0000
  Zn  Zn1       1.0  0.7580332074371322  0.42179673264857764  0.566995865748825  1.0000
  Zn  Zn2       1.0  0.9103403265185375  0.4217930455050005  0.5669914788348984  1.0000
  C   C40       1.0  0.8342100175266768  0.41655497529039587  0.8041912259022541  1.0000
  C   C41       1.0  0.834165179347546  0.42703644153915543  0.3297962455050101  1.0000
  C   C42       1.0  0.834145318212091  0.65900790351341  0.5617326470563946  1.0000
  C   C43       1.0  0.8342298269644259  0.18458195286964285  0.5722548941577592  1.0000
  O   O2        1.0  0.891967684759463  0.4287527003244487  0.3781798824417324  1.0000
  O   O3        1.0  0.892005091486573  0.41483493835113183  0.7558038859087777  1.0000
  O   O4        1.0  0.8919520669206249  0.6106187437693644  0.5600168675880774  1.0000
  O   O5        1.0  0.8920206573432614  0.23296890422559424  0.5739668033857876  1.0000
  O   O6        1.0  0.7763528246374626  0.6106208739306582  0.5600205411926007  1.0000
  O   O7        1.0  0.776405848926171  0.4148386289615973  0.7558074897010769  1.0000
  O   O8        1.0  0.7763684421175492  0.42875634611061564  0.37818192484817725  1.0000
  O   O9        1.0  0.7764214147085515  0.2329725406950569  0.5739689431635433  1.0000
