data_image0
_chemical_formula_structural       NC9NC5H8C12NCOCH13C15H12Zn2C4O8
_chemical_formula_sum              "N3 C47 H33 O9 Zn2"
_cell_length_a       17.807436237873137
_cell_length_b       10.299155265289647
_cell_length_c       10.299157797200024
_cell_angle_alpha    85.52785804654131
_cell_angle_beta     89.41431720980768
_cell_angle_gamma    88.36808077728016

_space_group_name_H-M_alt    "P 1"
_space_group_IT_number       1

loop_
  _space_group_symop_operation_xyz
  'x, y, z'

loop_
  _atom_site_type_symbol
  _atom_site_label
  _atom_site_symmetry_multiplicity
  _atom_site_fract_x
  _atom_site_fract_y
  _atom_site_fract_z
  _atom_site_occupancy
  N   N1        1.0  0.7067768024217649  0.38829853428610983  0.5566384779382321  1.0000
  C   C1        1.0  0.6461945125775314  0.35310912059174937  0.5456242187043585  1.0000
  C   C2        1.0  0.5708368025629831  0.30933736522196353  0.531923676117023  1.0000
  C   C3        1.0  0.5527371959283816  0.23794738501348478  0.42693558220793304  1.0000
  C   C4        1.0  0.479568753457973  0.19533690248947044  0.4135506376016005  1.0000
  C   C5        1.0  0.4234512748894388  0.22373884848605452  0.505121443912034  1.0000
  C   C6        1.0  0.3456920754403213  0.17856978168958326  0.4909787596597308  1.0000
  C   C7        1.0  0.283503623360337  0.26032512557110987  0.5168952519706289  1.0000
  C   C8        1.0  0.2101929238721906  0.21751158389634684  0.5035240487483232  1.0000
  C   C9        1.0  0.146953872121837  0.3019583976601854  0.529803677146655  1.0000
  N   N2        1.0  0.0961226639288967  0.3698477932351798  0.5509317735597701  1.0000
  C   C10       1.0  0.1984871826640881  0.09268470426957931  0.4642110775256225  1.0000
  C   C11       1.0  0.2598182660618101  0.01091550941246755  0.43828619908088395  1.0000
  C   C12       1.0  0.3330095743213337  0.05333453690931633  0.4514549675655495  1.0000
  C   C13       1.0  0.4422422270536575  0.295623171640949  0.6103286355566899  1.0000
  C   C14       1.0  0.5154635473411688  0.33804328986691634  0.6235579760141865  1.0000
  H   H1        1.0  0.5951207315242353  0.2154814907676763  0.35522519816574327  1.0000
  H   H2        1.0  0.4666491350773608  0.14167466289081254  0.33064103177355353  1.0000
  H   H3        1.0  0.2919861968600062  0.35778961772304907  0.545745429391145  1.0000
  H   H4        1.0  0.1420272418612902  0.05864894405477883  0.4536255450235738  1.0000
  H   H5        1.0  0.2506368937389787  0.914271540345  0.4082352995644236  1.0000
  H   H6        1.0  0.3796605511981858  0.9875896426711869  0.4324247120356295  1.0000
  H   H7        1.0  0.4005759854583124  0.317549588640627  0.68333375197777  1.0000
  H   H8        1.0  0.5289110090532515  0.3929265252354932  0.7054255362470649  1.0000
  C   C15       1.0  0.9015372577803811  0.9976715095312129  0.5539025769705919  1.0000
  C   C16       1.0  0.8886731946746464  0.008031512571720079  0.4191584266013755  1.0000
  C   C17       1.0  0.8820780569352031  0.8961500623301271  0.35072364026407077  1.0000
  C   C18       1.0  0.8884934929389999  0.772780373619844  0.4188532585457534  1.0000
  C   C19       1.0  0.9013694140518396  0.7604645444128657  0.553678830220597  1.0000
  C   C20       1.0  0.907815369827048  0.8734312576207958  0.6203733978600292  1.0000
  C   C21       1.0  0.8684703588924019  0.9080833199640759  0.208180585849858  1.0000
  C   C22       1.0  0.9065518813311498  0.0004199304142498139  0.12620029263463417  1.0000
  C   C23       1.0  0.8937523225636822  0.011518741880541583  0.9920576893194166  1.0000
  C   C24       1.0  0.843082409906718  0.929598393860723  0.9370466953819725  1.0000
  C   C25       1.0  0.8040832023065542  0.8391215825693074  0.018972275906738334  1.0000
  C   C26       1.0  0.8169101149060155  0.8277654693272833  0.1530771407509337  1.0000
  N   N3        1.0  0.8278644582219254  0.9406118241618107  0.7997010301015526  1.0000
  C   C27       1.0  0.8826973164951168  0.9749864675322654  0.7006741452195033  1.0000
  O   O1        1.0  0.9516241143829308  0.9742440267728318  0.7275238487742568  1.0000
  C   C28       1.0  0.8586987430658984  0.0026221102229353477  0.5624782907757528  1.0000
  H   H9        1.0  0.9065086446670657  0.321161693211252  0.6057249044284554  1.0000
  H   H10       1.0  0.8827174788922838  0.10337814826916669  0.3674331973665961  1.0000
  H   H11       1.0  0.8844401728818381  0.6861929832366438  0.3662812891276652  1.0000
  H   H12       1.0  0.9177402195167922  0.8647253859930916  0.7243038943218922  1.0000
  H   H13       1.0  0.926121867714631  0.529914475824524  0.8080176253786313  1.0000
  H   H14       1.0  0.9466774818873275  0.06355184556128379  0.1657067214341419  1.0000
  H   H15       1.0  0.9225597077380693  0.08563142212423891  0.9320517065940157  1.0000
  H   H16       1.0  0.7638853061244776  0.776697466781406  0.9785998225417427  1.0000
  H   H17       1.0  0.7856888902856473  0.7573832163538902  0.21395149704497562  1.0000
  H   H18       1.0  0.7749432383376396  0.914262707340165  0.7694015258722877  1.0000
  H   H19       1.0  0.804467299954005  0.058639412640888455  0.5588192760099893  1.0000
  H   H20       1.0  0.851736545454482  0.9093592580295172  0.5173537497264782  1.0000
  H   H21       1.0  0.9014541497139582  0.060707884468413686  0.5064532493829943  1.0000
  C   C29       1.0  0.9013661956652355  0.3791783975915113  0.17239993005399423  1.0000
  C   C30       1.0  0.8231196937202617  0.3649057134807929  0.17372728567344442  1.0000
  C   C31       1.0  0.7836072913164654  0.35755242509765806  0.05725564648049164  1.0000
  C   C32       1.0  0.8233429565297056  0.36468638593327163  0.9384567805703137  1.0000
  C   C33       1.0  0.9015404237669661  0.3789575987487084  0.9351814615532139  1.0000
  C   C34       1.0  0.9400954215655867  0.38611450743392917  0.052690049308166786  1.0000
  C   C35       1.0  0.7008832147128716  0.34246835820490706  0.05970525549336014  1.0000
  C   C36       1.0  0.6670982487405925  0.2570838943886229  0.9791191949874389  1.0000
  C   C37       1.0  0.5892514063322014  0.24298221222702332  0.9814566115215078  1.0000
  C   C38       1.0  0.5438031469340365  0.31332153905904225  0.06493261333122935  1.0000
  C   C39       1.0  0.5771858698475499  0.3995706748179264  0.14454760346867146  1.0000
  C   C40       1.0  0.655031953854852  0.41367659158826164  0.14235814753278575  1.0000
  C   C41       1.0  0.4599395679375672  0.300479340423333  0.06510383442706913  1.0000
  C   C42       1.0  0.4261318080764116  0.39585587100440534  0.9681606441314097  1.0000
  C   C43       1.0  0.3983468597982235  0.4742832096392926  0.8884463238792688  1.0000
  H   H22       1.0  0.04911231068377342  0.4053197351882887  0.37724863397909014  1.0000
  H   H23       1.0  0.7929036657211136  0.35771212006217046  0.2657104548435538  1.0000
  H   H24       1.0  0.7930180716151343  0.36088503002530903  0.8482705026897568  1.0000
  H   H25       1.0  0.00041149551452601685  0.3971185442316012  0.05087943154316399  1.0000
  H   H26       1.0  0.9316208846329377  0.38440519899057257  0.6064492666490722  1.0000
  H   H27       1.0  0.7009687492916011  0.20010908501437408  0.9152670789711994  1.0000
  H   H28       1.0  0.5643932171560252  0.17699951963138938  0.9182817428377446  1.0000
  H   H29       1.0  0.5428767101874733  0.456257070218574  0.2080612413469758  1.0000
  H   H30       1.0  0.6792769211372754  0.48179572875585586  0.20390013844597688  1.0000
  H   H31       1.0  0.4449678710405303  0.20094117778955467  0.04190774760324567  1.0000
  H   H32       1.0  0.4360217581962971  0.3170588657698443  0.1626711362519493  1.0000
  H   H33       1.0  0.3739751074785537  0.5431386792776429  0.8184641189901027  1.0000
  Zn  Zn1       1.0  0.8191336090048602  0.38297058122064964  0.5549991585656799  1.0000
  Zn  Zn2       1.0  0.9837658439177114  0.37516515613195023  0.5525817732616833  1.0000
  C   C44       1.0  0.9015069741969706  0.3738253132867466  0.7910009865979888  1.0000
  C   C45       1.0  0.9013942761729633  0.3843119775535191  0.3165800458247061  1.0000
  C   C46       1.0  0.9013960700103069  0.6162820781084666  0.5485457244466958  1.0000
  C   C47       1.0  0.9015051245413785  0.14185365493933744  0.5590353785011666  1.0000
  O   O2        1.0  0.9638807766561764  0.38306706951634806  0.36405082631635177  1.0000
  O   O3        1.0  0.9639725308122192  0.36914510458885297  0.741695093015009  1.0000
  O   O4        1.0  0.9638821323665642  0.5649320480065858  0.5459107653875055  1.0000
  O   O5        1.0  0.9639711188997113  0.18728013808127897  0.5598350573857698  1.0000
  O   O6        1.0  0.8389282778419566  0.5708556019363453  0.5477458752596969  1.0000
  O   O7        1.0  0.8390186759249565  0.37507021897609794  0.743530133180136  1.0000
  O   O8        1.0  0.8389269214721232  0.38899213909333996  0.3658843050038072  1.0000
  O   O9        1.0  0.8390172637368747  0.19320519834063177  0.5616686334494141  1.0000
