data_image0
_chemical_formula_structural       NC10NC3NH7C12SCH12C15H12Zn2C4O8
_chemical_formula_sum              "N3 C45 H31 S1 Zn2 O8"
_cell_length_a       19.210446455230148
_cell_length_b       10.299776766347529
_cell_length_c       10.299157797200024
_cell_angle_alpha    85.5458752322557
_cell_angle_beta     90.0131967510761
_cell_angle_gamma    89.9285037425463

_space_group_name_H-M_alt    "P 1"
_space_group_IT_number       1

loop_
  _space_group_symop_operation_xyz
  'x, y, z'

loop_
  _atom_site_type_symbol
  _atom_site_label
  _atom_site_symmetry_multiplicity
  _atom_site_fract_x
  _atom_site_fract_y
  _atom_site_fract_z
  _atom_site_occupancy
  N   N1        1.0  0.6549172429082321  0.42058389196750245  0.5673326041849744  1.0000
  C   C1        1.0  0.5946881834328956  0.4227912802028748  0.5675639119268936  1.0000
  C   C2        1.0  0.5198831113442771  0.42552803746513157  0.5678504734950498  1.0000
  C   C3        1.0  0.4842459835705143  0.541750949623766  0.5829708213464326  1.0000
  C   C4        1.0  0.4115804528385892  0.5419024988819372  0.5829182311009178  1.0000
  C   C5        1.0  0.3747161951562344  0.42623695971056486  0.5679370085647599  1.0000
  C   C6        1.0  0.2973943802102119  0.42488056470748803  0.5677863180754581  1.0000
  C   C7        1.0  0.2595987964173009  0.5284677319529079  0.5044278872464989  1.0000
  C   C8        1.0  0.1868207767814896  0.5270655703572815  0.5043187137807219  1.0000
  C   C9        1.0  0.1508368517498458  0.42233376016118185  0.5675169885899305  1.0000
  C   C10       1.0  0.07590763525039  0.4210317536031247  0.5673800657680834  1.0000
  N   N2        1.0  0.0156700270103518  0.4199848961122068  0.5672700146942165  1.0000
  C   C11       1.0  0.1879087398684511  0.3188722897983276  0.6308504179100922  1.0000
  C   C12       1.0  0.2606886907522316  0.32000017515606793  0.6310098218133038  1.0000
  C   C13       1.0  0.4129627831022548  0.3118341687310684  0.5531049621826261  1.0000
  N   N3        1.0  0.48373213869959647  0.3142790298695717  0.553270696473398  1.0000
  H   H1        1.0  0.5123266936219347  0.6311785681653788  0.5950258540680493  1.0000
  H   H2        1.0  0.3842915214142136  0.631911541132367  0.5963681032107533  1.0000
  H   H3        1.0  0.2862930215171464  0.6097345723101741  0.45343982234919156  1.0000
  H   H4        1.0  0.1586418366054836  0.6075043203410941  0.4546610611956541  1.0000
  H   H5        1.0  0.1605745738590985  0.23747019830392513  0.6804085163863134  1.0000
  H   H6        1.0  0.2882230661681024  0.23968016824688876  0.6821052883262806  1.0000
  H   H7        1.0  0.3867177327654423  0.22096224214393168  0.5396087832137086  1.0000
  C   C14       1.0  0.8353625936773513  0.038919159282616134  0.5672997044052193  1.0000
  C   C15       1.0  0.839574397399232  0.027311590221238857  0.7038203337546927  1.0000
  C   C16       1.0  0.8416415337153429  0.9042914313289162  0.773001793803838  1.0000
  C   C17       1.0  0.8394412970951346  0.7920240305058954  0.7038355480065237  1.0000
  C   C18       1.0  0.8352313523211217  0.8016396491832068  0.5673141689114585  1.0000
  C   C19       1.0  0.8332151752269188  0.9255258061592823  0.4998104557122194  1.0000
  C   C20       1.0  0.846089475638298  0.8930758518430097  0.9174252172402253  1.0000
  C   C21       1.0  0.8062661704372626  0.7996604932227093  0.9914788649173736  1.0000
  C   C22       1.0  0.8104731095216272  0.7893397425075033  0.12739487299757402  1.0000
  C   C23       1.0  0.8543301801864261  0.8721555559738665  0.19106403455169918  1.0000
  C   C24       1.0  0.8943198917184281  0.9649964611771987  0.11838349792456782  1.0000
  C   C25       1.0  0.8902150213504698  0.9756669341507933  0.9824570565636468  1.0000
  S   S1        1.0  0.8598050233701893  0.858451947752274  0.3654629590897862  1.0000
  C   C26       1.0  0.7898604865065251  0.9746243478230591  0.3850048764105949  1.0000
  H   H8        1.0  0.8337850908330101  0.37079560649792453  0.5152791426885643  1.0000
  H   H9        1.0  0.8402971097334588  0.11412641463398265  0.756781435882028  1.0000
  H   H10       1.0  0.8419789720181051  0.6969910896248048  0.7566001881578852  1.0000
  H   H11       1.0  0.8299664236713081  0.933712063063907  0.3944905949223574  1.0000
  H   H12       1.0  0.8335924206312262  0.4778499229091863  0.515298283871189  1.0000
  H   H13       1.0  0.7712149442388704  0.7357680045426382  0.9443682411753369  1.0000
  H   H14       1.0  0.779363078871325  0.7173132808789049  0.1831248143323161  1.0000
  H   H15       1.0  0.9286306021215309  0.028945603493976346  0.16708327154973313  1.0000
  H   H16       1.0  0.9222039070957968  0.047322584398937106  0.9281400827399864  1.0000
  H   H17       1.0  0.803785071951138  0.07094482106619004  0.3361221300531282  1.0000
  H   H18       1.0  0.7818168019402693  0.9852871851905278  0.4902913062621378  1.0000
  H   H19       1.0  0.7408695766712944  0.9391851515396418  0.34288898414208824  1.0000
  C   C27       1.0  0.835216236019226  0.4203857912555493  0.18591491441860497  1.0000
  C   C28       1.0  0.7627154877255675  0.4025269840845722  0.18610231360970175  1.0000
  C   C29       1.0  0.726104533453579  0.3933628113353367  0.06905498069805405  1.0000
  C   C30       1.0  0.7629223477478331  0.4023179110111139  0.9508349791457156  1.0000
  C   C31       1.0  0.8353776622610283  0.4201729989374232  0.9486989045380843  1.0000
  C   C32       1.0  0.8711015148388039  0.4290969149322279  0.06676923093198295  1.0000
  C   C33       1.0  0.6494550054460494  0.37448740876643516  0.07029940215175334  1.0000
  C   C34       1.0  0.6181483969469946  0.28756127370393814  0.9891961466926782  1.0000
  C   C35       1.0  0.5460179637351572  0.2698917769824116  0.9903994602963304  1.0000
  C   C36       1.0  0.5039095381850353  0.33814147971993935  0.07323813838686588  1.0000
  C   C37       1.0  0.5348434707689875  0.42591377178640033  0.15336475917346704  1.0000
  C   C38       1.0  0.6069732014093999  0.4435874679867755  0.15230939649838016  1.0000
  C   C39       1.0  0.42620426105782233  0.3214555126303451  0.07218834347765801  1.0000
  C   C40       1.0  0.3948822856260428  0.4152739691825498  0.9747846451559812  1.0000
  C   C41       1.0  0.369140283621126  0.49242079922457793  0.8946918690813987  1.0000
  H   H20       1.0  0.9721131146851298  0.4532985641509968  0.39291584462216433  1.0000
  H   H21       1.0  0.7347182127719802  0.393948699845007  0.2776447414261116  1.0000
  H   H22       1.0  0.7348243179952139  0.39712658535303635  0.8602074502800434  1.0000
  H   H23       1.0  0.9269884924246629  0.4428653034278931  0.06583734567834632  1.0000
  H   H24       1.0  0.8632492701895597  0.426999223051308  0.6204049329982997  1.0000
  H   H25       1.0  0.6495297277670389  0.23214415213023898  0.9258175622571247  1.0000
  H   H26       1.0  0.5229831915906612  0.20277502705440598  0.9268430552571418  1.0000
  H   H27       1.0  0.5030556855791374  0.481022392864084  0.2163984090052482  1.0000
  H   H28       1.0  0.6294398529855948  0.512812366834928  0.21422469905388764  1.0000
  H   H29       1.0  0.4123288764282433  0.2212394056021616  0.04874360118813059  1.0000
  H   H30       1.0  0.4040434371561951  0.33693707921369187  0.16941379774269527  1.0000
  H   H31       1.0  0.3465605172091977  0.5601530569253474  0.8243777188338623  1.0000
  Zn  Zn1       1.0  0.7590227050549865  0.42040756859071515  0.5673220416657285  1.0000
  Zn  Zn2       1.0  0.9115645529961525  0.42015063407657594  0.5672912134344268  1.0000
  C   C42       1.0  0.8353465057914725  0.41503961597424155  0.8045163253038348  1.0000
  C   C43       1.0  0.83524241775688  0.4255202224555701  0.33009705696487535  1.0000
  C   C44       1.0  0.8352514627149914  0.6574706966789354  0.5621359322730268  1.0000
  C   C45       1.0  0.8353374090646717  0.18308758153169058  0.5724775192194815  1.0000
  O   O1        1.0  0.8931400418774256  0.4271402134739908  0.3784742018631442  1.0000
  O   O2        1.0  0.893224614769648  0.41322363799587225  0.7561154086040982  1.0000
  O   O3        1.0  0.8931470862000421  0.6089898025621128  0.5603915265335091  1.0000
  O   O4        1.0  0.8932175183726214  0.23137405831271995  0.5741979865638642  1.0000
  O   O5        1.0  0.7773696876234695  0.6091841444436659  0.5604152685399801  1.0000
  O   O6        1.0  0.7774472159067168  0.41341954018570615  0.7561390813904596  1.0000
  O   O7        1.0  0.7773626427380731  0.42733607084377123  0.3784963131533927  1.0000
  O   O8        1.0  0.777440119252631  0.23156990636662567  0.5742201952276709  1.0000
