data_image0
_chemical_formula_structural       NC12NC2H8C13OH12C12NH11Zn2C4O8
_chemical_formula_sum              "N3 C43 H31 O9 Zn2"
_cell_length_a       17.80743265337812
_cell_length_b       10.299150109392551
_cell_length_c       10.299774167527174
_cell_angle_alpha    85.55710761189597
_cell_angle_beta     91.52767882299842
_cell_angle_gamma    89.41750150667457

_space_group_name_H-M_alt    "P 1"
_space_group_IT_number       1

loop_
  _space_group_symop_operation_xyz
  'x, y, z'

loop_
  _atom_site_type_symbol
  _atom_site_label
  _atom_site_symmetry_multiplicity
  _atom_site_fract_x
  _atom_site_fract_y
  _atom_site_fract_z
  _atom_site_occupancy
  N   N1        1.0  0.7072443226714723  0.406342412844229  0.6009294776120526  1.0000
  C   C1        1.0  0.6564231262802662  0.4358810911360895  0.5322247693339666  1.0000
  C   C2        1.0  0.593196543066983  0.4726250639936176  0.4467647604396179  1.0000
  C   C3        1.0  0.6049207588486823  0.5266086225051501  0.32013416427164665  1.0000
  C   C4        1.0  0.5436016656708259  0.5618496669546189  0.23707051056802464  1.0000
  C   C5        1.0  0.4704040441468669  0.5433704223552844  0.27997750067187277  1.0000
  C   C6        1.0  0.4577030491688033  0.4892682050602264  0.40707625130102665  1.0000
  C   C7        1.0  0.5198794588231681  0.45403040934634253  0.4901233932211122  1.0000
  C   C8        1.0  0.3799372572781367  0.4696756814031986  0.4528437427948946  1.0000
  C   C9        1.0  0.36113893542522746  0.49690633027950204  0.5798707080146186  1.0000
  C   C10       1.0  0.287911357775928  0.4784686759308294  0.6228182440643752  1.0000
  C   C11       1.0  0.23253913251785932  0.43254635643855566  0.539576819107473  1.0000
  C   C12       1.0  0.1571749738545944  0.41355629284486795  0.5839253866444365  1.0000
  N   N2        1.0  0.09658752727857643  0.39828955886498996  0.6195785840691064  1.0000
  C   C13       1.0  0.2506459621726174  0.40514696034775866  0.4130928480295881  1.0000
  C   C14       1.0  0.3238206964373532  0.42359931673608564  0.3698894358515661  1.0000
  H   H1        1.0  0.6613855849579869  0.5414222485206308  0.28569418068995667  1.0000
  H   H2        1.0  0.552797326488591  0.6039179366312599  0.13928295309732164  1.0000
  H   H3        1.0  0.42376280929040694  0.5729867447862733  0.21438051713513429  1.0000
  H   H4        1.0  0.5113824531351288  0.410576672114513  0.5877869944210241  1.0000
  H   H5        1.0  0.4028045355489273  0.5341104763063749  0.6454267903722946  1.0000
  H   H6        1.0  0.2744582880518947  0.500348543688099  0.7208134030064868  1.0000
  H   H7        1.0  0.20826321729336972  0.3692103408586347  0.3479492538204849  1.0000
  H   H8        1.0  0.3367456485142046  0.4001838716280479  0.27219812717769387  1.0000
  C   C15       1.0  0.9019903181789701  0.020914855409051247  0.6104016935236394  1.0000
  C   C16       1.0  0.9005973081295519  0.00917894633724492  0.7471391392144613  1.0000
  C   C17       1.0  0.8998256719940202  0.886095266947225  0.8162011145749084  1.0000
  C   C18       1.0  0.9004524875253479  0.7739264921141478  0.7467688249221653  1.0000
  C   C19       1.0  0.9018487243397844  0.7837069531790424  0.6101179286178657  1.0000
  C   C20       1.0  0.9026115463965783  0.9076619063914848  0.542733039144484  1.0000
  C   C21       1.0  0.8983454810982667  0.8746618655766575  0.9607633967062692  1.0000
  C   C22       1.0  0.8521455467279424  0.7827568023561395  0.026568625538702872  1.0000
  C   C23       1.0  0.8507277989524926  0.7720799071895854  0.16260039636520296  1.0000
  C   C24       1.0  0.8959771023590895  0.8521404853963108  0.23530969247896172  1.0000
  C   C25       1.0  0.9414582437681294  0.9450142354180999  0.17011257513258582  1.0000
  C   C26       1.0  0.9428934304402254  0.9558665668422066  0.03408135090848974  1.0000
  C   C27       1.0  0.8928740055792365  0.843054347955207  0.38124032431652577  1.0000
  O   O1        1.0  0.8367206694494068  0.9274027893500935  0.4187893753021199  1.0000
  H   H9        1.0  0.9041316099818655  0.25036986471739997  0.3522799786667332  1.0000
  H   H10       1.0  0.8990677527486359  0.09599792044913036  0.8000719111314996  1.0000
  H   H11       1.0  0.9008775718705739  0.6788090132014369  0.7996201674319496  1.0000
  H   H12       1.0  0.9036863798222676  0.9159221212016567  0.4373300120825967  1.0000
  H   H13       1.0  0.9023352007225343  0.4599944393735372  0.5575547792736171  1.0000
  H   H14       1.0  0.8162210852023328  0.7204776416951203  0.9727416925547847  1.0000
  H   H15       1.0  0.8141791998009873  0.701519325531264  0.21122290927054532  1.0000
  H   H16       1.0  0.9759988359924499  0.008875183058403513  0.2246193924405886  1.0000
  H   H17       1.0  0.9794671466854051  0.026872271796152924  0.9862666456669757  1.0000
  H   H18       1.0  0.9481319570552262  0.8697510704682762  0.424055192524453  1.0000
  H   H19       1.0  0.8806626695579057  0.7412954513433466  0.41846618515882716  1.0000
  H   H20       1.0  0.8369924363024317  0.9177450494288095  0.5154244402674182  1.0000
  C   C28       1.0  0.9019451029118898  0.4021958691094065  0.22890897576795388  1.0000
  C   C29       1.0  0.8283772788295624  0.35441161669950216  0.22822383669528845  1.0000
  C   C30       1.0  0.7910735545631451  0.33031532930241414  0.11072754899257542  1.0000
  C   C31       1.0  0.8283256234727194  0.35464400488621295  0.9929165674254725  1.0000
  C   C32       1.0  0.9018939258490396  0.40242602072584743  0.9916105858546094  1.0000
  C   C33       1.0  0.9382915822387627  0.4259348838403092  0.11010634740897984  1.0000
  C   C34       1.0  0.7132430603367108  0.2797629264902288  0.11105605999949941  1.0000
  C   C35       1.0  0.6921477722757142  0.1817373992370872  0.20538011773132814  1.0000
  C   C36       1.0  0.618890211511906  0.13421307865982368  0.20555542006098992  1.0000
  C   C37       1.0  0.5655691273595781  0.18384553519924118  0.11167918103530239  1.0000
  C   C38       1.0  0.586168736577179  0.2814911223375931  0.017490887278175382  1.0000
  C   C39       1.0  0.6594037199484793  0.32911717994154066  0.01704818664021035  1.0000
  N   N3        1.0  0.4906436553533201  0.1351795654210326  0.11199521974529025  1.0000
  H   H21       1.0  0.9299905987633794  0.42034992211109024  0.5566282777312443  1.0000
  H   H22       1.0  0.7995377086309953  0.3375035498196577  0.31913449696165963  1.0000
  H   H23       1.0  0.8001941232146511  0.3345486291541335  0.9022461966891822  1.0000
  H   H24       1.0  0.9950459346654699  0.4627973443142037  0.10986692168045509  1.0000
  H   H25       1.0  0.929915497305541  0.42068845269563027  0.6636547805096424  1.0000
  H   H26       1.0  0.7325671993199965  0.1406299527257484  0.2779806028058329  1.0000
  H   H27       1.0  0.603749403620114  0.05847343074413636  0.27867616062281786  1.0000
  H   H28       1.0  0.5454359955654359  0.32093960397761667  0.9446059465363437  1.0000
  H   H29       1.0  0.6736661171021954  0.4057415611096584  0.9442170744241314  1.0000
  H   H30       1.0  0.45050398572764216  0.17156908156099338  0.0423951244813805  1.0000
  H   H31       1.0  0.4747584440897998  0.06240082342093478  0.18183209968370107  1.0000
  Zn  Zn1       1.0  0.8196003647250973  0.40401506782346375  0.6063186947599839  1.0000
  Zn  Zn2       1.0  0.98423148398705  0.4006063127294648  0.6141999634112192  1.0000
  C   C40       1.0  0.9019028933227359  0.39720841008302155  0.8474455252431505  1.0000
  C   C41       1.0  0.9019307528433669  0.4074145720425848  0.3730733458419859  1.0000
  C   C42       1.0  0.9018719681953974  0.6395215671327874  0.6049964364602372  1.0000
  C   C43       1.0  0.9019616220786251  0.1650998557427632  0.6155225017514594  1.0000
  O   O2        1.0  0.9644025896587044  0.4078667454080567  0.4244471278842299  1.0000
  O   O3        1.0  0.9643822669293791  0.3941680905565448  0.8020530702832744  1.0000
  O   O4        1.0  0.9643564521922193  0.5898390471881765  0.606273674901767  1.0000
  O   O5        1.0  0.9644283482232227  0.21219579920122977  0.6202264232028889  1.0000
  O   O6        1.0  0.8394034443084034  0.5924255825163518  0.6002922322719926  1.0000
  O   O7        1.0  0.8394292587571229  0.39675618629942844  0.796071557830619  1.0000
  O   O8        1.0  0.8394495816495535  0.41045479541905006  0.4184640541241862  1.0000
  O   O9        1.0  0.8394753402061924  0.21478383995207118  0.6142434468093723  1.0000
