data_image0
_chemical_formula_structural       NC12NC2H8C12SCH12C13NH13Zn2C4O8
_chemical_formula_sum              "N3 C44 H33 S1 Zn2 O8"
_cell_length_a       17.80743265337812
_cell_length_b       10.299776766347529
_cell_length_c       10.299780419254978
_cell_angle_alpha    85.57449051580876
_cell_angle_beta     91.52098048016336
_cell_angle_gamma    89.41689066054833

_space_group_name_H-M_alt    "P 1"
_space_group_IT_number       1

loop_
  _space_group_symop_operation_xyz
  'x, y, z'

loop_
  _atom_site_type_symbol
  _atom_site_label
  _atom_site_symmetry_multiplicity
  _atom_site_fract_x
  _atom_site_fract_y
  _atom_site_fract_z
  _atom_site_occupancy
  N   N1        1.0  0.7073380265823045  0.40632211200019097  0.6014636929696882  1.0000
  C   C1        1.0  0.6565214367456613  0.43586336594131914  0.5327701189781835  1.0000
  C   C2        1.0  0.5933005835062055  0.47261054243993694  0.44732396033662947  1.0000
  C   C3        1.0  0.6050332897503423  0.5265988897091409  0.3207137103427051  1.0000
  C   C4        1.0  0.5437197659338397  0.5618430906869716  0.23766333796570782  1.0000
  C   C5        1.0  0.4705192675602687  0.5433622404492442  0.28056336235420565  1.0000
  C   C6        1.0  0.45780975072021485  0.48925520937802003  0.40764172250403785  1.0000
  C   C7        1.0  0.519980592120805  0.45401425810281393  0.4906755843024124  1.0000
  C   C8        1.0  0.3800408901725764  0.4696609623104797  0.4534018292391784  1.0000
  C   C9        1.0  0.3612340409861715  0.49687945105987397  0.5804394766826106  1.0000
  C   C10       1.0  0.288003583761245  0.4784401842176438  0.6233800629954018  1.0000
  C   C11       1.0  0.2326369500605913  0.4325283713368697  0.5401209108717935  1.0000
  C   C12       1.0  0.1572698178781803  0.4135366382121106  0.5844623207021171  1.0000
  N   N2        1.0  0.09667998079732991  0.39826856204674677  0.6201097638118795  1.0000
  C   C13       1.0  0.2507522706336621  0.4051411091679544  0.4136261942931667  1.0000
  C   C14       1.0  0.32392990164221797  0.4235950962574151  0.3704297369072085  1.0000
  H   H1        1.0  0.6615004250115236  0.5414138062367186  0.2862793106315258  1.0000
  H   H2        1.0  0.5529219832672511  0.6039150239580409  0.13989163780786074  1.0000
  H   H3        1.0  0.4238824307109359  0.5729808942317105  0.21497754959034987  1.0000
  H   H4        1.0  0.5114770384102155  0.4105569919758354  0.5883227986056037  1.0000
  H   H5        1.0  0.4028952373946179  0.5340752288295583  0.6460099166410846  1.0000
  H   H6        1.0  0.2745439355015155  0.5003105921366648  0.7213837961825791  1.0000
  H   H7        1.0  0.20837390163014033  0.3692127118678157  0.34846872764173153  1.0000
  H   H8        1.0  0.3368614120597537  0.4001892265919498  0.27272926799483055  1.0000
  C   C15       1.0  0.9020834352319914  0.020928670873487043  0.6107886787885068  1.0000
  C   C16       1.0  0.9065795155194251  0.009303506885014245  0.7475118057504  1.0000
  C   C17       1.0  0.9087853839900923  0.8862758200862431  0.8167923967688266  1.0000
  C   C18       1.0  0.9064358616824632  0.7740187052697394  0.7475201156560218  1.0000
  C   C19       1.0  0.9019417879338215  0.7836518800798321  0.6107963354408916  1.0000
  C   C20       1.0  0.8997903087736212  0.9075453652846015  0.5431959382913418  1.0000
  C   C21       1.0  0.9135334505122261  0.8750417856696152  0.9614296420035331  1.0000
  C   C22       1.0  0.8705273508909123  0.7824869941149624  0.03340941725446378  1.0000
  C   C23       1.0  0.8750184002638046  0.7721484414724967  0.16952774120116165  1.0000
  C   C24       1.0  0.9223279967106048  0.8540903833502658  0.2354638995001177  1.0000
  C   C25       1.0  0.9655131922386289  0.9460679812872571  0.16486570493435704  1.0000
  C   C26       1.0  0.9611323041707434  0.9567541417511315  0.02874224219970256  1.0000
  S   S1        1.0  0.9281734757343377  0.840362346612691  0.4101264039789324  1.0000
  C   C27       1.0  0.8526788444916021  0.9579900079704025  0.42603872337777304  1.0000
  H   H9        1.0  0.9003997803817535  0.3528112566617312  0.5586923765031144  1.0000
  H   H10       1.0  0.907340297842056  0.09613033434621854  0.8005042093561632  1.0000
  H   H11       1.0  0.9091555111217032  0.6789601634377801  0.8004102040223626  1.0000
  H   H12       1.0  0.8963222876519561  0.9157451860927569  0.4377198838853966  1.0000
  H   H13       1.0  0.9001918343906916  0.45986956411250013  0.5587015235911938  1.0000
  H   H14       1.0  0.8327154457654469  0.7192948365632633  0.9844865354891592  1.0000
  H   H15       1.0  0.8414227344923235  0.7007931775068471  0.22363781744917344  1.0000
  H   H16       1.0  0.002525320476183257  0.009332902639453522  0.21533914810487653  1.0000
  H   H17       1.0  0.995675960745826  0.02772115248862317  0.9760905459854718  1.0000
  H   H18       1.0  0.8677246593249922  0.05399788325322841  0.37788380748560113  1.0000
  H   H19       1.0  0.8439595315771458  0.9688726093894775  0.530895725892388  1.0000
  H   H20       1.0  0.7998207438514506  0.9235417304597612  0.38138707950970496  1.0000
  C   C28       1.0  0.9020637710343056  0.40220434739590916  0.2294407902227522  1.0000
  C   C29       1.0  0.9564375666323386  0.5001077936645526  0.22338511597126054  1.0000
  C   C30       1.0  0.9839312555729318  0.5498127278832092  0.10316996456164818  1.0000
  C   C31       1.0  0.9563343545227457  0.5002821595360425  0.9880800004154167  1.0000
  C   C32       1.0  0.9019614518817183  0.4023761754762114  0.9921441640315996  1.0000
  C   C33       1.0  0.875128566355518  0.35388898390573487  0.11329340754112271  1.0000
  C   C34       1.0  0.0414565960703599  0.6533835398538359  0.09785527898747559  1.0000
  C   C35       1.0  0.036358664598545865  0.75806560522262  0.0017868131153613298  1.0000
  C   C36       1.0  0.09052719569126344  0.8554607605882234  0.9968713502796649  1.0000
  C   C37       1.0  0.15041315828058988  0.8505189628618788  0.08841375925658879  1.0000
  C   C38       1.0  0.1562313252640053  0.7455431648325621  0.1834599402381789  1.0000
  C   C39       1.0  0.10207833211579431  0.6481229893318023  0.1885489174075936  1.0000
  C   C40       1.0  0.20971822898572778  0.953508962347446  0.08080047805717028  1.0000
  N   N3        1.0  0.2673154688347521  0.9196659658971733  0.9906803788192069  1.0000
  H   H21       1.0  0.881375349261206  0.3648510562053242  0.5592065660944987  1.0000
  H   H22       1.0  0.9767946337732476  0.5391921714682175  0.3122306659922911  1.0000
  H   H23       1.0  0.9781059227694924  0.5369864326710672  0.8953158702355934  1.0000
  H   H24       1.0  0.8331819094254317  0.27835988144740753  0.11719653238869188  1.0000
  H   H25       1.0  0.8812286243688753  0.36509279695420904  0.6662368047241753  1.0000
  H   H26       1.0  0.9900250788219815  0.7653703639730531  0.9312662607003448  1.0000
  H   H27       1.0  0.08567380793840185  0.9349604465158188  0.9218011559904533  1.0000
  H   H28       1.0  0.20284375416643918  0.7388848908824137  0.2534673347141396  1.0000
  H   H29       1.0  0.10824127016715823  0.5675790677333665  0.26221592075740396  1.0000
  H   H30       1.0  0.18374224132439476  0.04907181222516854  0.04627772077113934  1.0000
  H   H31       1.0  0.23562391785265402  0.9642833284597796  0.17889802886648698  1.0000
  H   H32       1.0  0.30521149723441865  0.9965727648437461  0.9825572181958395  1.0000
  H   H33       1.0  0.29747005099024104  0.8387396693587552  0.0328954677929012  1.0000
  Zn  Zn1       1.0  0.8196937072977655  0.4039945658778308  0.6068520327972742  1.0000
  Zn  Zn2       1.0  0.9843242981342509  0.4005855171611137  0.6147320164512968  1.0000
  C   C41       1.0  0.9019800564257697  0.3971701130132319  0.8479767921971519  1.0000
  C   C42       1.0  0.9020397464457126  0.40741157143736473  0.3736074705776937  1.0000
  C   C43       1.0  0.9019653697042271  0.6394798782654538  0.6056197458077002  1.0000
  C   C44       1.0  0.9020543772708679  0.16510024707090576  0.6159645834981478  1.0000
  O   O1        1.0  0.9645081358696014  0.4078597814656417  0.4249815381568205  1.0000
  O   O2        1.0  0.9644624763863436  0.3941335340881924  0.8025830760420476  1.0000
  O   O3        1.0  0.9644497742793194  0.5898017516987786  0.6068780060669896  1.0000
  O   O4        1.0  0.964520781810697  0.21219157428655766  0.6206865080727935  1.0000
  O   O5        1.0  0.8394971674409792  0.5923885099171398  0.6008975384798954  1.0000
  O   O6        1.0  0.8395098692640508  0.39672185258554427  0.7966025392280685  1.0000
  O   O7        1.0  0.8395555290151879  0.4104480543544451  0.4189994400145529  1.0000
  O   O8        1.0  0.839568174941872  0.21477983790861277  0.6147045072937289  1.0000
