data_image0
_chemical_formula_structural       NC8NC6H8C12ClH9C12ClH9Zn2C4O8
_chemical_formula_sum              "N2 C42 H26 Cl2 Zn2 O8"
_cell_length_a       17.457602349358154
_cell_length_b       10.299768534541528
_cell_length_c       10.299771906710086
_cell_angle_alpha    85.54593327708469
_cell_angle_beta     92.8856013609098
_cell_angle_gamma    91.70638861519478

_space_group_name_H-M_alt    "P 1"
_space_group_IT_number       1

loop_
  _space_group_symop_operation_xyz
  'x, y, z'

loop_
  _atom_site_type_symbol
  _atom_site_label
  _atom_site_symmetry_multiplicity
  _atom_site_fract_x
  _atom_site_fract_y
  _atom_site_fract_z
  _atom_site_occupancy
  N   N1        1.0  0.7225691528421809  0.45320240843888415  0.6265444217599827  1.0000
  C   C1        1.0  0.6614814904421755  0.40728044976623834  0.6159269508605387  1.0000
  C   C2        1.0  0.5854858573809958  0.35015924487714223  0.602728359319183  1.0000
  C   C3        1.0  0.5269720177739162  0.39030009229609175  0.6776282062292254  1.0000
  C   C4        1.0  0.4524149281692402  0.3352969653275293  0.6650441345267457  1.0000
  C   C5        1.0  0.3903110410812131  0.37767972222626756  0.7443659085203171  1.0000
  C   C6        1.0  0.3157625435567256  0.39616342804562477  0.688602514890251  1.0000
  C   C7        1.0  0.2572486765446168  0.43612032139774937  0.7636103099565976  1.0000
  C   C8        1.0  0.1812619265788986  0.45521048918607576  0.7056314553988305  1.0000
  N   N2        1.0  0.1201814949178184  0.47055260439345714  0.6590166071554184  1.0000
  C   C9        1.0  0.2727912391604249  0.4578365079810933  0.8948900299168723  1.0000
  C   C10       1.0  0.3465551435773285  0.4397416788661841  0.9510410393643647  1.0000
  C   C11       1.0  0.4050574836448668  0.39996471190048255  0.8764909765204791  1.0000
  C   C12       1.0  0.43766005832001315  0.23947597279331267  0.5761272579919476  1.0000
  C   C13       1.0  0.4961622709426103  0.1996136927220562  0.5016274282758535  1.0000
  C   C14       1.0  0.5699346688512943  0.2547290423084325  0.5147614591680336  1.0000
  H   H1        1.0  0.5393367022733571  0.46547546310397636  0.7442622584353711  1.0000
  H   H2        1.0  0.3034049362933611  0.38122149363722935  0.5865765028789574  1.0000
  H   H3        1.0  0.2279417584483039  0.4887027794237342  0.9537275454026806  1.0000
  H   H4        1.0  0.3583992996178984  0.4562413662055269  0.0526938429292807  1.0000
  H   H5        1.0  0.46154466698664093  0.38496024453987454  0.9225973429153169  1.0000
  H   H6        1.0  0.38116578236383675  0.19414368817072525  0.5654736909467191  1.0000
  H   H7        1.0  0.4843114933571879  0.12555510740376952  0.4337950830848414  1.0000
  H   H8        1.0  0.6147840773925417  0.22299293747877935  0.45643504251470346  1.0000
  C   C15       1.0  0.9213066289003429  0.08050909964015673  0.6427727828032583  1.0000
  C   C16       1.0  0.926346673563194  0.09033396734254318  0.5067156627095544  1.0000
  C   C17       1.0  0.928974262822169  0.9781761551243306  0.43778785045592805  1.0000
  C   C18       1.0  0.9264932072099462  0.8550526395609317  0.5067431197440637  1.0000
  C   C19       1.0  0.9214513576704532  0.8432361640814873  0.6428000303875943  1.0000
  C   C20       1.0  0.9188868681617253  0.9565229848055576  0.7100529884580742  1.0000
  C   C21       1.0  0.9343072300204149  0.9896237584341119  0.2938508429824289  1.0000
  C   C22       1.0  0.8906530244218231  0.08128035989025073  0.2158219977213489  1.0000
  C   C23       1.0  0.89574092434543  0.0918623560677938  0.0803579633195246  1.0000
  C   C24       1.0  0.9444087786238503  0.01130713206061884  0.02122485484092773  1.0000
  C   C25       1.0  0.9880502673316355  0.9199626546849161  0.09774144319365563  1.0000
  C   C26       1.0  0.9830986153110598  0.9089943483524391  0.23323124792333716  1.0000
  Cl  Cl1       1.0  0.9507068192591932  0.02482613336613726  0.8512544502352961  1.0000
  H   H9        1.0  0.9193467577538126  0.4042173748695397  0.6946107750895791  1.0000
  H   H10       1.0  0.9292995894309363  0.18549035256422042  0.4542243075122254  1.0000
  H   H11       1.0  0.9274438990169352  0.7682755618970575  0.45387469206027253  1.0000
  H   H12       1.0  0.9149979287065171  0.9481753290178393  0.815014730060331  1.0000
  H   H13       1.0  0.919560725007982  0.5112811195038734  0.6946514782089768  1.0000
  H   H14       1.0  0.8518659738562209  0.1435503316420883  0.2593977386755848  1.0000
  H   H15       1.0  0.8616715557208712  0.1625057632066773  0.021463909462524855  1.0000
  H   H16       1.0  0.025981530922813967  0.857609210652177  0.05240633634032621  1.0000
  H   H17       1.0  0.018141404085043833  0.8386871560188149  0.29071049599098187  1.0000
  C   C27       1.0  0.921342493022962  0.4619773770878235  0.26141418282354323  1.0000
  C   C28       1.0  0.9909446986873452  0.5338969686337003  0.2607721584266227  1.0000
  C   C29       1.0  0.026250094940055257  0.5702326831465137  0.14331955413563113  1.0000
  C   C30       1.0  0.9910186670141702  0.5336850357075846  0.02550841862899511  1.0000
  C   C31       1.0  0.9214154753943061  0.46176796100982176  0.024158706596232316  1.0000
  C   C32       1.0  0.8869675161255073  0.4263160521962801  0.14261148085790198  1.0000
  C   C33       1.0  0.09988393407193752  0.6463162403981695  0.14369413488284533  1.0000
  C   C34       1.0  0.11202914162056254  0.7498505775097277  0.2244902008625973  1.0000
  C   C35       1.0  0.18136958729587005  0.8213631311410194  0.22465821495296656  1.0000
  C   C36       1.0  0.23935169089403385  0.7904226676322392  0.1444047486936526  1.0000
  C   C37       1.0  0.22793908429507992  0.6877797587018477  0.06379732534261184  1.0000
  C   C38       1.0  0.1586673687082567  0.6160698838103504  0.06325928900242062  1.0000
  Cl  Cl2       1.0  0.32630378429093576  0.8802665040737909  0.1448480888796202  1.0000
  H   H18       1.0  0.8948003368611671  0.43462883363658467  0.5891061135399278  1.0000
  H   H19       1.0  0.018399153744237395  0.5602942951067813  0.35199562386208183  1.0000
  H   H20       1.0  0.017463059561750427  0.5629798438480735  0.9345590827540247  1.0000
  H   H21       1.0  0.8332721522831  0.3708344974507065  0.14233853259487228  1.0000
  H   H22       1.0  0.8949080703636908  0.4343189653512747  0.6961957207614078  1.0000
  H   H23       1.0  0.06755738888669116  0.7765629345413854  0.2862328026879559  1.0000
  H   H24       1.0  0.18986795127212774  0.9010073377356806  0.2869874849670526  1.0000
  H   H25       1.0  0.27276136661755457  0.663229828549116  0.0017398190185013984  1.0000
  H   H26       1.0  0.15144232779161326  0.5359409658316299  0.0012535327519291872  1.0000
  Zn  Zn1       1.0  0.8373114859549486  0.45820581544832906  0.6359226914367013  1.0000
  Zn  Zn2       1.0  0.005439146552310481  0.46553854665474614  0.6496489697180323  1.0000
  C   C39       1.0  0.9213989941089399  0.4566337716094544  0.8799833086700748  1.0000
  C   C40       1.0  0.9213534746702571  0.4671123091498106  0.4055886299013898  1.0000
  C   C41       1.0  0.9214195501279083  0.6990657970924508  0.6376193770872602  1.0000
  C   C42       1.0  0.9213328609916418  0.22467872084458573  0.6479526259837878  1.0000
  O   O1        1.0  0.985160730128415  0.47161270680005507  0.459183942260482  1.0000
  O   O2        1.0  0.985196742613254  0.45769776765813464  0.8368055500376954  1.0000
  O   O3        1.0  0.985212481885111  0.6534646563236854  0.6410948903463487  1.0000
  O   O4        1.0  0.9851449334784205  0.2758458249492921  0.654894499892793  1.0000
  O   O5        1.0  0.8576056416551192  0.6478985346528976  0.6306771565710039  1.0000
  O   O6        1.0  0.8575899026691897  0.45213320630869  0.8263877470718308  1.0000
  O   O7        1.0  0.8575538900773676  0.4660481006256738  0.4487645778828384  1.0000
  O   O8        1.0  0.8575380934317911  0.2702812094592373  0.6444752328832486  1.0000
