data_image0
_chemical_formula_structural       NC10NC5H10C12SCH12C12OCH12Zn2C4O8
_chemical_formula_sum              "N2 C45 H34 S1 O9 Zn2"
_cell_length_a       19.4436361288709
_cell_length_b       10.299776766347529
_cell_length_c       10.299794127170987
_cell_angle_alpha    85.57877721711455
_cell_angle_beta     89.69815743819767
_cell_angle_gamma    89.39962546058797

_space_group_name_H-M_alt    "P 1"
_space_group_IT_number       1

loop_
  _space_group_symop_operation_xyz
  'x, y, z'

loop_
  _atom_site_type_symbol
  _atom_site_label
  _atom_site_symmetry_multiplicity
  _atom_site_fract_x
  _atom_site_fract_y
  _atom_site_fract_z
  _atom_site_occupancy
  N   N1        1.0  0.6474910727620592  0.4088807083852055  0.5622248332319932  1.0000
  C   C1        1.0  0.588653404113012  0.4187840993331571  0.5766086682735228  1.0000
  C   C2        1.0  0.5153219584892473  0.43113496138987917  0.5946008088029493  1.0000
  C   C3        1.0  0.47314387347931797  0.39912786026444946  0.49992960861416735  1.0000
  C   C4        1.0  0.3972373726565765  0.4095666229994068  0.5052579662201593  1.0000
  C   C5        1.0  0.3575020531951821  0.3848309433755308  0.612324553281111  1.0000
  C   C6        1.0  0.2813808674622955  0.3887460728980525  0.5993659267027682  1.0000
  C   C7        1.0  0.240807563488568  0.4464171781028756  0.6931353699529845  1.0000
  C   C8        1.0  0.1691435681461942  0.4500537145228065  0.6825921035485811  1.0000
  C   C9        1.0  0.1370581891361907  0.3956231708147162  0.5785658887322431  1.0000
  C   C10       1.0  0.0632649389952775  0.39932093248798184  0.5678673500465101  1.0000
  N   N2        1.0  0.0039401709817264  0.402293738854796  0.5592664342462237  1.0000
  C   C11       1.0  0.1769067240539924  0.3372450259665014  0.48517962917443747  1.0000
  C   C12       1.0  0.2485871588644624  0.3335542381638832  0.4954711263843967  1.0000
  C   C13       1.0  0.3856413974893838  0.34438523551979605  0.7434115277170072  1.0000
  C   C14       1.0  0.4442972674257796  0.3875118581007424  0.7906540977108476  1.0000
  C   C15       1.0  0.48848790557333294  0.4853606253370364  0.7162946896765068  1.0000
  H   H1        1.0  0.4952483510593791  0.37000106670190536  0.4096252683142787  1.0000
  H   H2        1.0  0.3725354104522722  0.432050661698582  0.4121047506561226  1.0000
  H   H3        1.0  0.264670116166245  0.48971654003521503  0.7739823241914419  1.0000
  H   H4        1.0  0.1387905345867882  0.4953758976085745  0.7555120347081183  1.0000
  H   H5        1.0  0.15257225327661833  0.29414135637718264  0.40466715304071066  1.0000
  H   H6        1.0  0.2782749647238528  0.2859887699171342  0.42324738788216676  1.0000
  H   H7        1.0  0.3546868639506198  0.2801760734302561  0.8076525018978624  1.0000
  H   H8        1.0  0.4594527303116099  0.3534559211920174  0.8885826238645058  1.0000
  H   H9        1.0  0.4583631795824956  0.5760709973831346  0.6910483306222603  1.0000
  H   H10       1.0  0.5317682647872775  0.510953322115463  0.779378197218294  1.0000
  C   C16       1.0  0.8257837619953627  0.024220830624135825  0.5607434979748105  1.0000
  C   C17       1.0  0.8299084576375285  0.012622684263799089  0.697216095479638  1.0000
  C   C18       1.0  0.831932253656949  0.8896084154521505  0.7663737548074889  1.0000
  C   C19       1.0  0.8297769410805889  0.7773373426576914  0.6972323765454964  1.0000
  C   C20       1.0  0.8256540824119224  0.7869435073424983  0.5607590144513741  1.0000
  C   C21       1.0  0.8236801846705574  0.9108239033322695  0.49327851812409973  1.0000
  C   C22       1.0  0.8362881365752125  0.8784029314520082  0.9107464275484192  1.0000
  C   C23       1.0  0.7969199186007496  0.785691613526931  0.9851120224082501  1.0000
  C   C24       1.0  0.8010399708945859  0.7753800149119112  0.12098010068570952  1.0000
  C   C25       1.0  0.8443566456040547  0.8575048641450331  0.18429058707875812  1.0000
  C   C26       1.0  0.8838889139643142  0.9496397644717588  0.11129662446198829  1.0000
  C   C27       1.0  0.8798697155483172  0.9602993850926258  0.9754172946829243  1.0000
  S   S1        1.0  0.8497190853380999  0.843811725191312  0.3586273949204386  1.0000
  C   C28       1.0  0.780603693721494  0.9611564569791635  0.3787287226148386  1.0000
  H   H11       1.0  0.8242391245815361  0.35609323280000615  0.5087410187472716  1.0000
  H   H12       1.0  0.8306082480326251  0.09945628852421562  0.7501658785490077  1.0000
  H   H13       1.0  0.8322700950365425  0.6822929417650376  0.7499711493618879  1.0000
  H   H14       1.0  0.8204986276169076  0.9190028831239009  0.3879957080397787  1.0000
  H   H15       1.0  0.8240487477214011  0.4631507583746532  0.5087617045037047  1.0000
  H   H16       1.0  0.7622995657031528  0.7223535472849418  0.9382876639394846  1.0000
  H   H17       1.0  0.7702860277902844  0.7039023185644292  0.17695395663366187  1.0000
  H   H18       1.0  0.9177771561550775  0.013047699275702707  0.15971591138299213  1.0000
  H   H19       1.0  0.911491647695239  0.031392503443113506  0.920849204444278  1.0000
  H   H20       1.0  0.7943753610955392  0.05721739683450222  0.3297392962158764  1.0000
  H   H21       1.0  0.7726275397760592  0.9720139897718234  0.484068749883629  1.0000
  H   H22       1.0  0.7322086056815468  0.9265059637150498  0.33701046939152857  1.0000
  C   C29       1.0  0.8257421289530835  0.4054682684447506  0.17939961793552683  1.0000
  C   C30       1.0  0.7583537402870916  0.35759148551768205  0.18276462695536488  1.0000
  C   C31       1.0  0.7241885796339701  0.33343487860145515  0.06732299484499293  1.0000
  C   C32       1.0  0.7583069422512354  0.35781881435647467  0.947460127999177  1.0000
  C   C33       1.0  0.8256957159380621  0.4056960975905317  0.942102853958509  1.0000
  C   C34       1.0  0.8590366591751908  0.42924983874237177  0.05859540775974237  1.0000
  C   C35       1.0  0.6528974521224424  0.2827768229439329  0.07193766416801783  1.0000
  C   C36       1.0  0.6036512844148182  0.3323533605949578  0.9811989837178681  1.0000
  C   C37       1.0  0.5366487113641493  0.284662090240136  0.9858054128014877  1.0000
  C   C38       1.0  0.5179183012132976  0.18707549523344813  0.08064571653370711  1.0000
  C   C39       1.0  0.566486168273383  0.13610691235727623  0.17225258233376595  1.0000
  C   C40       1.0  0.6335821267527418  0.1844359953150574  0.1671940145561377  1.0000
  O   O1        1.0  0.5503137488783234  0.037834087011070716  0.2692066000289628  1.0000
  C   C41       1.0  0.48439611945883065  0.9797793655412456  0.2857897723776486  1.0000
  H   H23       1.0  0.8514291533678939  0.4236528965538182  0.5055748864313345  1.0000
  H   H24       1.0  0.7319330598268123  0.3406511025425727  0.2752606008097893  1.0000
  H   H25       1.0  0.732527879542115  0.3377009988617796  0.8583421650804599  1.0000
  H   H26       1.0  0.9110242580364307  0.4661839185952339  0.0552310509733116  1.0000
  H   H27       1.0  0.8513598699804736  0.4240009417352615  0.6126042451110831  1.0000
  H   H28       1.0  0.6167184940499363  0.4091770562189627  0.9077732825757856  1.0000
  H   H29       1.0  0.4990375516217258  0.32375204771174904  0.9157804172897293  1.0000
  H   H30       1.0  0.4656726789657654  0.1520071938598233  0.08190710408748192  1.0000
  H   H31       1.0  0.6708904018254838  0.14360163655757652  0.23704772454348255  1.0000
  H   H32       1.0  0.4702281936181984  0.9315860253442423  0.19704591218561984  1.0000
  H   H33       1.0  0.486176125828329  0.9052715495346558  0.3694454826642948  1.0000
  H   H34       1.0  0.4452100752288655  0.05476093711398655  0.3063934623609623  1.0000
  Zn  Zn1       1.0  0.7503545841838474  0.40697638216280496  0.561378614917831  1.0000
  Zn  Zn2       1.0  0.901076652228662  0.40418746065608535  0.5601233330405453  1.0000
  C   C42       1.0  0.8257038146168009  0.4004794014091604  0.7979355332513036  1.0000
  C   C43       1.0  0.8257290673895965  0.41068604960135713  0.3235665284933942  1.0000
  C   C44       1.0  0.8256753510813883  0.642771211951644  0.5555811558885004  1.0000
  C   C45       1.0  0.8257574797552168  0.16839267973919791  0.5659209754883323  1.0000
  O   O2        1.0  0.8829229241013812  0.4113731377422494  0.37147388761203604  1.0000
  O   O3        1.0  0.882904520269134  0.3976746065483907  0.7490750703840559  1.0000
  O   O4        1.0  0.8828807644624805  0.5933283224304131  0.5533722024154237  1.0000
  O   O5        1.0  0.8829466284811512  0.21571943207297317  0.567176658638946  1.0000
  O   O6        1.0  0.7684845564973135  0.5954444116990507  0.5543252897409654  1.0000
  O   O7        1.0  0.768508312039715  0.3997922560898379  0.7500280884989987  1.0000
  O   O8        1.0  0.7685267160204619  0.4134907415608431  0.372425344395771  1.0000
  O   O9        1.0  0.768550420393071  0.21783702663195492  0.5681282127859388  1.0000
