data_image0
_chemical_formula_structural       NC10NC3NH7C12SCH12C12IH9Zn2C4O8
_chemical_formula_sum              "N3 C42 H28 S1 I1 Zn2 O8"
_cell_length_a       19.210446455230148
_cell_length_b       10.299776766347529
_cell_length_c       10.29977335064465
_cell_angle_alpha    85.54589617011163
_cell_angle_beta     89.99988081382295
_cell_angle_gamma    89.9285037425463

_space_group_name_H-M_alt    "P 1"
_space_group_IT_number       1

loop_
  _space_group_symop_operation_xyz
  'x, y, z'

loop_
  _atom_site_type_symbol
  _atom_site_label
  _atom_site_symmetry_multiplicity
  _atom_site_fract_x
  _atom_site_fract_y
  _atom_site_fract_z
  _atom_site_occupancy
  N   N1        1.0  0.6550957519731212  0.4205829459160919  0.567418337279415  1.0000
  C   C1        1.0  0.5948666636770488  0.422790334304207  0.5676496311795112  1.0000
  C   C2        1.0  0.5200615558831174  0.4255270917556919  0.5679361755993673  1.0000
  C   C3        1.0  0.4844225441276548  0.5417500138989375  0.5830556186250986  1.0000
  C   C4        1.0  0.4117570199484268  0.5419015631223809  0.5830030315266679  1.0000
  C   C5        1.0  0.3748946289128832  0.42623601405826794  0.5680227054906815  1.0000
  C   C6        1.0  0.2975728327427596  0.4248796189556838  0.5678720240189385  1.0000
  C   C7        1.0  0.2597851433531645  0.528466744362829  0.5045173846591988  1.0000
  C   C8        1.0  0.1870071373202686  0.5270645826951106  0.5044082177265361  1.0000
  C   C9        1.0  0.1510153378406044  0.4223328142315279  0.5676027106505148  1.0000
  C   C10       1.0  0.0760861384016086  0.42103080758305467  0.5674657960223473  1.0000
  N   N2        1.0  0.0158485438738349  0.41998395001946554  0.5673557515341117  1.0000
  C   C11       1.0  0.1880793346710593  0.31887138569043927  0.6309323499975872  1.0000
  C   C12       1.0  0.2608592656932572  0.31999927115344096  0.6310917443618154  1.0000
  C   C13       1.0  0.4131430649185004  0.3118332132845385  0.5531915466817814  1.0000
  N   N3        1.0  0.48391239986549917  0.3142780745324836  0.5533572710547499  1.0000
  H   H1        1.0  0.5125017521328749  0.6311776404010023  0.5951099299543934  1.0000
  H   H2        1.0  0.3844664126821216  0.6319106142543351  0.5964520987747746  1.0000
  H   H3        1.0  0.2864857215198921  0.6097335510505002  0.45353237096874954  1.0000
  H   H4        1.0  0.1588343844429708  0.607503299887856  0.4547535367343385  1.0000
  H   H5        1.0  0.1607389937673504  0.2374693269213639  0.680487482838414  1.0000
  H   H6        1.0  0.28838727466010156  0.23967929798477838  0.6821841532408508  1.0000
  H   H7        1.0  0.3868996961934105  0.22096127778529917  0.5396961753456677  1.0000
  C   C14       1.0  0.8355411068415235  0.0389182132094803  0.567385439468435  1.0000
  C   C15       1.0  0.8397359002161633  0.027310734298499284  0.7038978992064249  1.0000
  C   C16       1.0  0.8417944165847714  0.9042906210896472  0.7730752193270249  1.0000
  C   C17       1.0  0.8396027980163839  0.7920231745932029  0.7039131125478106  1.0000
  C   C18       1.0  0.8354098636830292  0.8016387031196226  0.5673999031090953  1.0000
  C   C19       1.0  0.8334020974905855  0.9255248155201161  0.49990022943936285  1.0000
  C   C20       1.0  0.8462243634794725  0.8930751369726891  0.9174900002361674  1.0000
  C   C21       1.0  0.806391831260752  0.7996598272531721  0.9915392164253174  1.0000
  C   C22       1.0  0.8105818353331405  0.7893391662891054  0.12744709107553187  1.0000
  C   C23       1.0  0.8544309728778556  0.8721550217989328  0.1911124425658165  1.0000
  C   C24       1.0  0.8944297403391452  0.9649958790082056  0.11843625525753532  1.0000
  C   C25       1.0  0.8903418062831402  0.9756662622237713  0.9825179479509443  1.0000
  S   S1        1.0  0.8598840861129733  0.858451528740391  0.3655009307950218  1.0000
  C   C26       1.0  0.7899371143440427  0.9746239417155381  0.3850416786964326  1.0000
  H   H8        1.0  0.8339700857122364  0.37079462607339275  0.5153679907448887  1.0000
  H   H9        1.0  0.8404520136448496  0.1141255936837191  0.7568558320572176  1.0000
  H   H10       1.0  0.8421338985127987  0.6969902685548556  0.7566745951792269  1.0000
  H   H11       1.0  0.8301664686946041  0.9337110028775429  0.39458667115739465  1.0000
  H   H12       1.0  0.8337774131254784  0.4778489424972937  0.515387130782075  1.0000
  H   H13       1.0  0.7713464750035722  0.7357673074639458  0.944431411857896  1.0000
  H   H14       1.0  0.7794648607824307  0.7173127414613651  0.18317369744199186  1.0000
  H   H15       1.0  0.9287343827943937  0.028945053483521832  0.16713311461083002  1.0000
  H   H16       1.0  0.9223374598743976  0.047321876604099256  0.9282042245413438  1.0000
  H   H17       1.0  0.8038677905347472  0.07094438267930614  0.33616185756021566  1.0000
  H   H18       1.0  0.7818803111836226  0.9852868486081291  0.4903218080406423  1.0000
  H   H19       1.0  0.7409514521109895  0.9391847176212005  0.34292830670986973  1.0000
  C   C27       1.0  0.8354422693841245  0.42038459333776346  0.1860234721539309  1.0000
  C   C28       1.0  0.8985308754424243  0.48928268345171766  0.17967661741894325  1.0000
  C   C29       1.0  0.9305318551257312  0.5240860029507393  0.05933057243087703  1.0000
  C   C30       1.0  0.8985978706479018  0.48906841779098675  0.9444069883796793  1.0000
  C   C31       1.0  0.8355086812770457  0.42017233357222783  0.9487618850519284  1.0000
  C   C32       1.0  0.804284423855612  0.38621515357536174  0.07003825015741416  1.0000
  C   C33       1.0  0.9972740642468461  0.5969721140241329  0.053670147436677196  1.0000
  C   C34       1.0  0.00820639909916232  0.6999720654149222  0.13348081999532213  1.0000
  C   C35       1.0  0.07106061629416738  0.7684592790905536  0.12795138574647624  1.0000
  C   C36       1.0  0.12368106589488526  0.7350126276109994  0.04295227789370859  1.0000
  C   C37       1.0  0.11342004182351917  0.6328977504880311  0.9632842462205007  1.0000
  C   C38       1.0  0.050636479647499844  0.5641844497788631  0.9684077222948395  1.0000
  I   I1        1.0  0.21844248286401613  0.8384930938433426  0.03491955514722056  1.0000
  H   H20       1.0  0.8113824023161186  0.3941963303789837  0.5158904057743157  1.0000
  H   H21       1.0  0.9234181922130154  0.5144881035168689  0.2686496438153556  1.0000
  H   H22       1.0  0.9225658993956714  0.5172160606641185  0.851290562092597  1.0000
  H   H23       1.0  0.7556140455151595  0.3330645503487306  0.07416620027631615  1.0000
  H   H24       1.0  0.8114796596197384  0.39388403039688313  0.6229705433475963  1.0000
  H   H25       1.0  0.9678378067368786  0.7286167254281661  0.19887906391086063  1.0000
  H   H26       1.0  0.07875080155207592  0.8477226888983933  0.18953741524830625  1.0000
  H   H27       1.0  0.1541301226678522  0.6064887302280113  0.8975948446374211  1.0000
  H   H28       1.0  0.04415605373089471  0.4843781499815536  0.9069823826642982  1.0000
  Zn  Zn1       1.0  0.759201215435956  0.4204066225323295  0.5674077753922468  1.0000
  Zn  Zn2       1.0  0.9117430672182917  0.42014968799783325  0.5673769490057559  1.0000
  C   C39       1.0  0.8354954619787102  0.4150388265453624  0.8045878649473586  1.0000
  C   C40       1.0  0.8354504861569062  0.42551911974740486  0.3301969866115888  1.0000
  C   C41       1.0  0.8354306192805119  0.6574697471959403  0.5622219763445755  1.0000
  C   C42       1.0  0.8355152770777897  0.18308663887768684  0.5725629444340277  1.0000
  O   O1        1.0  0.8933420825288457  0.4271391427113189  0.3785712365446028  1.0000
  O   O2        1.0  0.8933796016674367  0.41322281660580185  0.7561898446354189  1.0000
  O   O3        1.0  0.893326460116944  0.6089888519272122  0.5604776749930702  1.0000
  O   O4        1.0  0.8933951720170605  0.23137311679481432  0.5742833088229093  1.0000
  O   O5        1.0  0.777549058582139  0.6091831938244436  0.560501415578782  1.0000
  O   O6        1.0  0.7776021998548975  0.41341871881126835  0.7562135160051635  1.0000
  O   O7        1.0  0.7775646806344465  0.4273350000957006  0.37859334651167686  1.0000
  O   O8        1.0  0.7776177701298906  0.23156896486338563  0.5743055161577142  1.0000
