data_image0
_chemical_formula_structural       NC11NC3H8C12ClH9C13OH12Zn2C4O8
_chemical_formula_sum              "N2 C43 H29 Cl1 O9 Zn2"
_cell_length_a       17.807433833752565
_cell_length_b       10.299768534541528
_cell_length_c       10.299153481560891
_cell_angle_alpha    85.58394017871095
_cell_angle_beta     88.54091418840825
_cell_angle_gamma    90.7030232555817

_space_group_name_H-M_alt    "P 1"
_space_group_IT_number       1

loop_
  _space_group_symop_operation_xyz
  'x, y, z'

loop_
  _atom_site_type_symbol
  _atom_site_label
  _atom_site_symmetry_multiplicity
  _atom_site_fract_x
  _atom_site_fract_y
  _atom_site_fract_z
  _atom_site_occupancy
  N   N1        1.0  0.7074303902281402  0.4378969731101825  0.5346983599475286  1.0000
  C   C1        1.0  0.6566158163781104  0.4031963501513227  0.6012594948016994  1.0000
  C   C2        1.0  0.593397359966667  0.3600316343428662  0.6840530523880448  1.0000
  C   C3        1.0  0.6051336046482219  0.29652954155131006  0.8067692440984358  1.0000
  C   C4        1.0  0.5438224640425817  0.2550437015388205  0.8872789267202319  1.0000
  C   C5        1.0  0.47062078222944903  0.2767469368959745  0.8457132021242157  1.0000
  C   C6        1.0  0.45790769443832424  0.34040340128159796  0.7225368195834325  1.0000
  C   C7        1.0  0.3801375664025998  0.3634356663873961  0.678190492116278  1.0000
  C   C8        1.0  0.3613287428636973  0.34651322883370317  0.5486103579612334  1.0000
  C   C9        1.0  0.2880971038053363  0.3681777193747331  0.5070005610813542  1.0000
  C   C10       1.0  0.23273113381211044  0.40708285396516675  0.5941506365074705  1.0000
  C   C11       1.0  0.1573626636235888  0.42940527583734567  0.5511795689887431  1.0000
  N   N2        1.0  0.0967717872590609  0.4473508446243992  0.516633958128607  1.0000
  C   C12       1.0  0.2508483424322936  0.42421566057980065  0.7231996446506843  1.0000
  C   C13       1.0  0.3240272568463934  0.40251633953697086  0.7650648686612112  1.0000
  C   C14       1.0  0.5200761488802705  0.3818846827746398  0.6420435525902777  1.0000
  H   H1        1.0  0.661601846491196  0.27912816271358176  0.8401341717582382  1.0000
  H   H2        1.0  0.5530275192956869  0.2056286162959413  0.982013328351633  1.0000
  H   H3        1.0  0.4239859107489475  0.24221582666655017  0.9091510732974917  1.0000
  H   H4        1.0  0.4029894847294489  0.31484497308222825  0.47989339001518005  1.0000
  H   H5        1.0  0.2746359736508708  0.35425825146122913  0.4069661942577074  1.0000
  H   H6        1.0  0.20847050172952203  0.45466070040331386  0.7914018156218285  1.0000
  H   H7        1.0  0.3369602109088128  0.41798113203697507  0.8649165213669532  1.0000
  H   H8        1.0  0.5115698645253888  0.43266219959362173  0.5475435004535529  1.0000
  C   C15       1.0  0.9020338221595944  0.061256878871940534  0.5256671343607346  1.0000
  C   C16       1.0  0.9069587164898895  0.07089060413766646  0.3889687250815763  1.0000
  C   C17       1.0  0.9095264244270365  0.9586344786645135  0.31970659180443506  1.0000
  C   C18       1.0  0.9071022031825049  0.8356063766374638  0.388977557729445  1.0000
  C   C19       1.0  0.9021755415150798  0.8239810793968395  0.5256759869584198  1.0000
  C   C20       1.0  0.8996694938386749  0.9373638393735532  0.5932552374625242  1.0000
  C   C21       1.0  0.9147375509531209  0.9698798489521923  0.175091024177761  1.0000
  C   C22       1.0  0.8719857942660697  0.06235371015099789  0.10261025923518341  1.0000
  C   C23       1.0  0.8769575929044495  0.07274400661475688  0.9664988562455474  1.0000
  C   C24       1.0  0.9246083137126248  0.9911801689363937  0.9011797275583886  1.0000
  C   C25       1.0  0.9673475038730069  0.8990176760945557  0.9721498441816783  1.0000
  C   C26       1.0  0.9625091200787842  0.8882383734598747  0.10826970042899164  1.0000
  Cl  Cl1       1.0  0.9307624659936306  0.004460349709517475  0.7304079681200575  1.0000
  H   H9        1.0  0.9001186475861078  0.38503876838960016  0.5777544928110068  1.0000
  H   H10       1.0  0.9098462234472362  0.1659531638864391  0.33610178371193555  1.0000
  H   H11       1.0  0.9080291192737088  0.7487750937553821  0.33598802599706157  1.0000
  H   H12       1.0  0.8958694037272396  0.9291636566076615  0.6987118029085913  1.0000
  H   H13       1.0  0.9003281657484437  0.492098279285507  0.5777680007537294  1.0000
  H   H14       1.0  0.8340091050559434  0.12542515175681346  0.15111608387308895  1.0000
  H   H15       1.0  0.8435926803220677  0.1440265698019254  0.9119347412379151  1.0000
  H   H16       1.0  0.0044860801555264285  0.8358786303211334  0.9219934157560159  1.0000
  H   H17       1.0  0.9968270912914244  0.8172716966644856  0.16129528004002558  1.0000
  C   C27       1.0  0.9020401298719651  0.4424700029681683  0.14430202505105494  1.0000
  C   C28       1.0  0.8243644381500455  0.4162039574961689  0.14857696711733825  1.0000
  C   C29       1.0  0.7851175250195543  0.4030525945840766  0.03357057455493351  1.0000
  C   C30       1.0  0.824541743808137  0.4165255581981322  0.9132607794169827  1.0000
  C   C31       1.0  0.9021692423936012  0.44276799950283774  0.9070411255592221  1.0000
  C   C32       1.0  0.9404651635893887  0.4555833845084192  0.02311624656269684  1.0000
  C   C33       1.0  0.7029951651783571  0.3752959982123585  0.03906331549409381  1.0000
  C   C34       1.0  0.6554935826123136  0.4393786169468523  0.9486009634604051  1.0000
  C   C35       1.0  0.5782116023144317  0.4133019638561495  0.9538479122955699  1.0000
  C   C36       1.0  0.547130279945033  0.3218360277974386  0.04874817350854621  1.0000
  C   C37       1.0  0.5941280828769949  0.2588374440623009  0.14015245216778838  1.0000
  C   C38       1.0  0.6714136215873706  0.28488453649919143  0.135083487289978  1.0000
  C   C39       1.0  0.46387299390487746  0.29652798037060935  0.056527031305761755  1.0000
  O   O1        1.0  0.4301463174770191  0.3832961172047058  0.13760081669894464  1.0000
  H   H18       1.0  0.0485614588543648  0.49287577529596915  0.3434656715878013  1.0000
  H   H19       1.0  0.7940750405330526  0.40770486066862177  0.24145774177184176  1.0000
  H   H20       1.0  0.7947328801729738  0.40474960272630645  0.8244644922677717  1.0000
  H   H21       1.0  0.00034117027186519877  0.47582860045234887  0.019034681057421787  1.0000
  H   H22       1.0  0.9320175856808418  0.452947439491187  0.5771672381209672  1.0000
  H   H23       1.0  0.6779638188748462  0.5111796422029535  0.8750021799730949  1.0000
  H   H24       1.0  0.5425771868708227  0.46471642285627346  0.8840214850826897  1.0000
  H   H25       1.0  0.5709655189505171  0.18922597956614462  0.2152232831184986  1.0000
  H   H26       1.0  0.7065964954152175  0.23325861529480418  0.205454074293151  1.0000
  H   H27       1.0  0.4519306316660237  0.19445172492364327  0.0958979499602024  1.0000
  H   H28       1.0  0.4400963093093107  0.3093157727939053  0.957499619112089  1.0000
  H   H29       1.0  0.37553059605654304  0.3626165713160905  0.13943107295653312  1.0000
  Zn  Zn1       1.0  0.8197859075941827  0.4406216845160591  0.529492848286091  1.0000
  Zn  Zn2       1.0  0.9844162549510834  0.44461551781267095  0.5218500556975754  1.0000
  C   C40       1.0  0.902142185793923  0.43753797631392266  0.7628671340808144  1.0000
  C   C41       1.0  0.9020617748356398  0.4477009082889858  0.288475813929578  1.0000
  C   C42       1.0  0.9021440044361666  0.6798078893288639  0.5204993499151092  1.0000
  C   C43       1.0  0.9020598997383867  0.2054294336430702  0.530843669923778  1.0000
  O   O2        1.0  0.9645453968741845  0.4509664211069344  0.3339614544983416  1.0000
  O   O3        1.0  0.9646091878670267  0.4373027106931573  0.7115804169214539  1.0000
  O   O4        1.0  0.9646098144609943  0.6329387094699968  0.5158667555304621  1.0000
  O   O5        1.0  0.9645447140882765  0.25533043021940505  0.5296750211225767  1.0000
  O   O6        1.0  0.8396573922767309  0.629906770747837  0.5216678854623689  1.0000
  O   O7        1.0  0.8396567659575139  0.4342723322404838  0.7173814776261451  1.0000
  O   O8        1.0  0.8395929747419564  0.44793599678969387  0.33976095379686333  1.0000
  O   O9        1.0  0.8395922919677301  0.2522999966513666  0.5354746177891339  1.0000
