data_image0
_chemical_formula_structural       NC9NC5H8C12SCH12C12IH9Zn2C4O8
_chemical_formula_sum              "N2 C43 H29 S1 I1 Zn2 O8"
_cell_length_a       17.807436237873137
_cell_length_b       10.299776766347529
_cell_length_c       10.29977335064465
_cell_angle_alpha    85.54589617011163
_cell_angle_beta     89.4010069247268
_cell_angle_gamma    88.3716268350294

_space_group_name_H-M_alt    "P 1"
_space_group_IT_number       1

loop_
  _space_group_symop_operation_xyz
  'x, y, z'

loop_
  _atom_site_type_symbol
  _atom_site_label
  _atom_site_symmetry_multiplicity
  _atom_site_fract_x
  _atom_site_fract_y
  _atom_site_fract_z
  _atom_site_occupancy
  N   N1        1.0  0.7070185264197085  0.3881685470409688  0.5571592302347308  1.0000
  C   C1        1.0  0.6464365104754215  0.3529821032609417  0.5461345269551843  1.0000
  C   C2        1.0  0.5710791411645365  0.30921404213740566  0.532420993126179  1.0000
  C   C3        1.0  0.5529912036126374  0.23782952301183702  0.42741649525431313  1.0000
  C   C4        1.0  0.47982309924561023  0.1952226363982219  0.41401890683816456  1.0000
  C   C5        1.0  0.4236942810944369  0.22362274967272344  0.5055933562773196  1.0000
  C   C6        1.0  0.3459354338684449  0.17845749502006525  0.49143726634511986  1.0000
  C   C7        1.0  0.2837463014472915  0.26020594115113327  0.5173780043039213  1.0000
  C   C8        1.0  0.2104359312483226  0.2173960130521524  0.5039940925299913  1.0000
  C   C9        1.0  0.1471962426601862  0.30183569863956183  0.5302987931376644  1.0000
  N   N2        1.0  0.0963645223466938  0.36971936366135316  0.5514470458091016  1.0000
  C   C10       1.0  0.1987311942185284  0.09257966690445185  0.4646440873248474  1.0000
  C   C11       1.0  0.2600629586099589  0.0108173709391437  0.43869495935580494  1.0000
  C   C12       1.0  0.3332539512681101  0.053232817617505646  0.45187632387278054  1.0000
  C   C13       1.0  0.4424735516722123  0.2955015704625297  0.6108170948769891  1.0000
  C   C14       1.0  0.5156945482503666  0.33791810818906276  0.6240590282037524  1.0000
  H   H1        1.0  0.5953836117124566  0.21536508337419402  0.3557031877075212  1.0000
  H   H2        1.0  0.4669127891315842  0.14156447452204768  0.3310972016434013  1.0000
  H   H3        1.0  0.2922283390315494  0.35766219619582995  0.5462572045825154  1.0000
  H   H4        1.0  0.1422715092410316  0.05854677969963795  0.45404844926047083  1.0000
  H   H5        1.0  0.250882311819022  0.9141815597798978  0.40861536488624206  1.0000
  H   H6        1.0  0.3799052317300139  0.987493482678496  0.43282646597493146  1.0000
  H   H7        1.0  0.4007982449562214  0.31742658837461923  0.6838248899608848  1.0000
  H   H8        1.0  0.5291328837133394  0.3927971530645491  0.7059391326372362  1.0000
  C   C15       1.0  0.9017659484783603  0.9975753062647342  0.5543004734470514  1.0000
  C   C16       1.0  0.9062932204404209  0.9857602673058756  0.6907472407513306  1.0000
  C   C17       1.0  0.908514894455495  0.8626382978867485  0.7598923235391204  1.0000
  C   C18       1.0  0.9061495685836232  0.7504792935504675  0.6907645385356564  1.0000
  C   C19       1.0  0.9016243030101339  0.7603022901386618  0.5543169924171927  1.0000
  C   C20       1.0  0.899457401621289  0.8842877476104885  0.48684876130868426  1.0000
  C   C21       1.0  0.9132959581643889  0.8512036182320268  0.904237729400023  1.0000
  C   C22       1.0  0.8703063064256599  0.7597592380806758  0.9789107417451726  1.0000
  C   C23       1.0  0.8748284094862125  0.7492312540453151  0.11475299896439828  1.0000
  C   C24       1.0  0.9221530219848623  0.8298774367547563  0.17773165237347355  1.0000
  C   C25       1.0  0.9653220847423414  0.9207391390098129  0.10442906558724596  1.0000
  C   C26       1.0  0.9609101417497751  0.9316117948315853  0.9685747772472655  1.0000
  S   S1        1.0  0.9280383480189273  0.8159041214801768  0.352034742289169  1.0000
  C   C27       1.0  0.8525473915310589  0.9355375384935828  0.37267089260872654  1.0000
  H   H9        1.0  0.9000704084898054  0.3295294538802045  0.5023076276519876  1.0000
  H   H10       1.0  0.907066092893912  0.07253969311325936  0.7436939589296134  1.0000
  H   H11       1.0  0.9088812836616179  0.6553211476508681  0.7434863829449418  1.0000
  H   H12       1.0  0.8959653174542256  0.8926340351701969  0.38158587449279513  1.0000
  H   H13       1.0  0.8998624647076012  0.43659330382048167  0.5023297850323423  1.0000
  H   H14       1.0  0.8324832613758706  0.6976007764852625  0.9323517639106047  1.0000
  H   H15       1.0  0.8412451089882035  0.6787445095190205  0.17096691176180523  1.0000
  H   H16       1.0  0.002345707144123965  0.9829909061054235  0.15258869813359233  1.0000
  H   H17       1.0  0.9954417652350311  0.001684251521371527  0.9137599868804016  1.0000
  H   H18       1.0  0.8675822106742397  0.031168684047808703  0.3235729105428824  1.0000
  H   H19       1.0  0.8438520075647044  0.9465990992173329  0.47807719527311376  1.0000
  H   H20       1.0  0.7996791342978354  0.9025221444882074  0.33132465909160114  1.0000
  C   C28       1.0  0.9016592771814166  0.37904657690979815  0.1729400539735353  1.0000
  C   C29       1.0  0.9697482750948738  0.4448230176540382  0.16560520204744567  1.0000
  C   C30       1.0  0.0042856468173011475  0.4780429159253612  0.044758006693013774  1.0000
  C   C31       1.0  0.9698205803285918  0.4446054370438417  0.9303345238318097  1.0000
  C   C32       1.0  0.901730952869327  0.3788310310573344  0.9356774268301087  1.0000
  C   C33       1.0  0.8680318662790701  0.34641883976111143  0.05744277846666623  1.0000
  C   C34       1.0  0.07631783173176343  0.5476265958934656  0.038052367368374806  1.0000
  C   C35       1.0  0.08811666152776043  0.6500856109990294  0.11769183443047915  1.0000
  C   C36       1.0  0.15595269295771264  0.7154627729593108  0.11117807363017662  1.0000
  C   C37       1.0  0.21274383016809173  0.6794124406633135  0.02535490483125402  1.0000
  C   C38       1.0  0.20166951912784525  0.5778052831005998  0.9458475656125751  1.0000
  C   C39       1.0  0.1339097428212963  0.5121985380682852  0.9519542617476007  1.0000
  I   I1        1.0  0.3150160204321304  0.7782040742198872  0.015838173804352262  1.0000
  H   H21       1.0  0.8756924292679018  0.3540488057618354  0.5031837764083607  1.0000
  H   H22       1.0  0.996608156229328  0.46879700336733565  0.25418848137858463  1.0000
  H   H23       1.0  0.9956883108327096  0.471567132302841  0.8368427469614992  1.0000
  H   H24       1.0  0.8155038822844977  0.29567646625079114  0.062332929561221606  1.0000
  H   H25       1.0  0.875797395168355  0.35373169344959243  0.6102623908866045  1.0000
  H   H26       1.0  0.044548461612474055  0.680727725049973  0.18372226945554693  1.0000
  H   H27       1.0  0.16425240095087967  0.7943456693359112  0.172643671220311  1.0000
  H   H28       1.0  0.24560627384239697  0.5493819118166996  0.8795206250500085  1.0000
  H   H29       1.0  0.1269156794827231  0.43271289232789556  0.890630408629487  1.0000
  Zn  Zn1       1.0  0.8193753706642952  0.38284104383715767  0.5555183279120084  1.0000
  Zn  Zn2       1.0  0.9840076628744663  0.37503627768578696  0.5530986245078973  1.0000
  C   C40       1.0  0.901716685811723  0.37369817812661865  0.791503613745957  1.0000
  C   C41       1.0  0.901668145214168  0.38418069675024813  0.31711343975267314  1.0000
  C   C42       1.0  0.9016467036926342  0.6161323072197449  0.5491387406102717  1.0000
  C   C43       1.0  0.9017380714520816  0.14174500999994422  0.5594783829188714  1.0000
  O   O1        1.0  0.9641482193646911  0.3829362204548308  0.364581080106281  1.0000
  O   O2        1.0  0.9641887122636289  0.3690180378873851  0.7421991006297712  1.0000
  O   O3        1.0  0.9641313587231611  0.5647867026738906  0.546487763209053  1.0000
  O   O4        1.0  0.964205516716434  0.18716756764929232  0.5602923209782757  1.0000
  O   O5        1.0  0.839177460641405  0.5707097565384509  0.5483246322605251  1.0000
  O   O6        1.0  0.8392348138821254  0.37494265207392163  0.7440359004696249  1.0000
  O   O7        1.0  0.8391943208948395  0.38886078982433414  0.3664163185447462  1.0000
  O   O8        1.0  0.8392516182543848  0.19309212770262718  0.5621276567843592  1.0000
