data_image0
_chemical_formula_structural       NC9NC5H8C12OCH12C15H12Zn2C4O8
_chemical_formula_sum              "N2 C46 H32 O9 Zn2"
_cell_length_a       17.807436237873137
_cell_length_b       10.29979075500242
_cell_length_c       10.299157797200024
_cell_angle_alpha    85.53980185155037
_cell_angle_beta     89.41431720980768
_cell_angle_gamma    88.37243818242351

_space_group_name_H-M_alt    "P 1"
_space_group_IT_number       1

loop_
  _space_group_symop_operation_xyz
  'x, y, z'

loop_
  _atom_site_type_symbol
  _atom_site_label
  _atom_site_symmetry_multiplicity
  _atom_site_fract_x
  _atom_site_fract_y
  _atom_site_fract_z
  _atom_site_occupancy
  N   N1        1.0  0.706836549461685  0.388187401255939  0.5569279273701839  1.0000
  C   C1        1.0  0.6462527452001612  0.35300080446736426  0.5459063314176202  1.0000
  C   C2        1.0  0.57089315141728  0.3092325530181621  0.5321966627601964  1.0000
  C   C3        1.0  0.5527904724319613  0.23784828756384369  0.4271936845962374  1.0000
  C   C4        1.0  0.4796201961699456  0.19524121600074462  0.4137998560361602  1.0000
  C   C5        1.0  0.423503939912146  0.22364088842702423  0.5053765839311328  1.0000
  C   C6        1.0  0.3457427965597754  0.1784754374056472  0.4912244822801912  1.0000
  C   C7        1.0  0.2835578629159732  0.2602242367876486  0.5171580199435553  1.0000
  C   C8        1.0  0.2102453208973332  0.2174141223286472  0.5037778904312542  1.0000
  C   C9        1.0  0.1470099034136942  0.3018541761413154  0.5300751253325611  1.0000
  N   N2        1.0  0.0961816169197455  0.36973813718327486  0.5512173761559129  1.0000
  C   C10       1.0  0.1985342076194806  0.0925972350695421  0.46443889377633707  1.0000
  C   C11       1.0  0.2598617719849276  0.010834585820723275  0.4384969670913117  1.0000
  C   C12       1.0  0.333054905796569  0.05325021768259397  0.45167457961283897  1.0000
  C   C13       1.0  0.4422979857017046  0.29551945725570095  0.6105987628973115  1.0000
  C   C14       1.0  0.5155211315882745  0.33793617975937806  0.6238369476190786  1.0000
  H   H1        1.0  0.5951730411819621  0.21538419170854084  0.3554786165900683  1.0000
  H   H2        1.0  0.466698268372524  0.1415832720540271  0.3308790620490927  1.0000
  H   H3        1.0  0.2920446309132663  0.3576809269257708  0.5460285179516056  1.0000
  H   H4        1.0  0.1420728020482096  0.05856419941078861  0.453846265083363  1.0000
  H   H5        1.0  0.2506762404766363  0.9141983530843584  0.40842591805998985  1.0000
  H   H6        1.0  0.3797030532655353  0.9875105863105808  0.43263061678450954  1.0000
  H   H7        1.0  0.4006326877351825  0.3174441190499233  0.6836084508055671  1.0000
  H   H8        1.0  0.5289709552641376  0.3928150217355386  0.705715950579086  1.0000
  C   C15       1.0  0.9015801937325808  0.9975916461191074  0.5541105837101918  1.0000
  C   C16       1.0  0.8798633840734065  0.9874158263163515  0.6858753216818798  1.0000
  C   C17       1.0  0.8687996864911661  0.8651262108780475  0.7526092376742466  1.0000
  C   C18       1.0  0.8797283989208159  0.7521399488254544  0.6858115123373072  1.0000
  C   C19       1.0  0.9014451750174998  0.7603235557253265  0.5540458422853036  1.0000
  C   C20       1.0  0.912251219630664  0.8834960124056636  0.48893382231160465  1.0000
  C   C21       1.0  0.8458291093431161  0.8554146561303715  0.8920101210258802  1.0000
  C   C22       1.0  0.7910235623326978  0.7671321066729898  0.9378823020790386  1.0000
  C   C23       1.0  0.7694718865647517  0.7582623584750648  0.06894555261391133  1.0000
  C   C24       1.0  0.8022401315683039  0.8370291316922109  0.1558185278038835  1.0000
  C   C25       1.0  0.8572461085880201  0.9259107160638249  0.11181522883618888  1.0000
  C   C26       1.0  0.8785647643517317  0.9344304738862715  0.9802286636507695  1.0000
  O   O1        1.0  0.8919914259929453  0.006939454377725474  0.1951792491994584  1.0000
  C   C27       1.0  0.8759159310369701  0.008638240779116346  0.3307595201565088  1.0000
  H   H9        1.0  0.9098881113137101  0.3289189831564059  0.5039233734678688  1.0000
  H   H10       1.0  0.870506226835894  0.07487042972383606  0.7364444501583165  1.0000
  H   H11       1.0  0.8722507845687982  0.6575787430626984  0.737292244998351  1.0000
  H   H12       1.0  0.9290053989329847  0.890577803586735  0.3872828855225703  1.0000
  H   H13       1.0  0.9096828730655278  0.4359921957261966  0.5038220245204499  1.0000
  H   H14       1.0  0.7641375414563017  0.7061969746770103  0.8720630063261205  1.0000
  H   H15       1.0  0.7270501004713368  0.6902923691558712  0.1032486373557785  1.0000
  H   H16       1.0  0.78445933606434  0.8280919483393681  0.2567521464821698  1.0000
  H   H17       1.0  0.9215930593164158  0.0019450591011447305  0.9474296346378372  1.0000
  H   H18       1.0  0.8889050130310012  0.9114784955367095  0.3811947275018269  1.0000
  H   H19       1.0  0.9113770584661223  0.0815842363312671  0.3724563435624091  1.0000
  H   H20       1.0  0.8159459967701975  0.03638625904793469  0.3460754777172206  1.0000
  C   C28       1.0  0.90142555020948  0.3790679946265254  0.17268747800847595  1.0000
  C   C29       1.0  0.8231784340229682  0.3647964530414203  0.1740118578844474  1.0000
  C   C30       1.0  0.7836657151618656  0.3574437532876036  0.057538685588136795  1.0000
  C   C31       1.0  0.8234016873933961  0.36457714305102695  0.938741307053232  1.0000
  C   C32       1.0  0.9015997688088763  0.3788472134586274  0.9354689634728559  1.0000
  C   C33       1.0  0.9401550746133744  0.38600354923468716  0.05297904338753012  1.0000
  C   C34       1.0  0.7009409893979329  0.3423608938715008  0.059985149690537254  1.0000
  C   C35       1.0  0.6671523488060801  0.25698326506509295  0.9793812871889078  1.0000
  C   C36       1.0  0.5893048995154182  0.24288271174043352  0.981715763632073  1.0000
  C   C37       1.0  0.5438596672518821  0.31321640792289274  0.06520643064361797  1.0000
  C   C38       1.0  0.5772461019971306  0.3994586394550781  0.144839403054134  1.0000
  C   C39       1.0  0.6550927930689449  0.41356342704949345  0.14265288809203458  1.0000
  C   C40       1.0  0.4599955355764784  0.30037523730271  0.06537497424106054  1.0000
  C   C41       1.0  0.4261918803550953  0.3957441330108864  0.9684516692092093  1.0000
  C   C42       1.0  0.3984103072885181  0.4741651935524276  0.8887537004463608  1.0000
  H   H21       1.0  0.049172790250844534  0.4052072396142654  0.3775416321988643  1.0000
  H   H22       1.0  0.7929620964391719  0.35760343546856466  0.2659935272463554  1.0000
  H   H23       1.0  0.7930766388830581  0.3607760914408724  0.8485542366195742  1.0000
  H   H24       1.0  0.00047162213381879425  0.3970067051613335  0.05117071987849697  1.0000
  H   H25       1.0  0.9316804641186517  0.38429437762114205  0.6067379043509371  1.0000
  H   H26       1.0  0.7010203973799914  0.2000130165133569  0.9155172923686483  1.0000
  H   H27       1.0  0.5644438706974279  0.17690530104662838  0.9185271380707953  1.0000
  H   H28       1.0  0.5429393819019208  0.45614049712069593  0.20836485960439055  1.0000
  H   H29       1.0  0.679340691937556  0.48167711129328294  0.20420908131479476  1.0000
  H   H30       1.0  0.4450195549389998  0.20084504267967107  0.042158134485558385  1.0000
  H   H31       1.0  0.4360784393543385  0.31695343546141164  0.16294573276784896  1.0000
  H   H32       1.0  0.3740415182439593  0.5430151513237003  0.8187858513863486  1.0000
  Zn  Zn1       1.0  0.819193126750132  0.38285987469209526  0.5552874971609134  1.0000
  Zn  Zn2       1.0  0.9838250257474485  0.3750550744261698  0.5528684844865768  1.0000
  C   C43       1.0  0.9015660983650146  0.373715338835128  0.7912874184760841  1.0000
  C   C44       1.0  0.9014538516467843  0.3842011636464462  0.3168686640906282  1.0000
  C   C45       1.0  0.9014656285868363  0.6161526950395408  0.5488827066719373  1.0000
  C   C46       1.0  0.9015542655396724  0.14176224977427343  0.5592734460951547  1.0000
  O   O2        1.0  0.9639402985539341  0.38295635526392413  0.36433918502864393  1.0000
  O   O3        1.0  0.964031453562046  0.36903550478703906  0.7419805491060416  1.0000
  O   O4        1.0  0.9639494810349056  0.5648067754976756  0.5462370415313984  1.0000
  O   O5        1.0  0.9640222148794697  0.1871850965349917  0.5600825960476987  1.0000
  O   O6        1.0  0.8389958814373217  0.5707298552480844  0.5480733864184502  1.0000
  O   O7        1.0  0.8390778536689629  0.37496014487001905  0.7438168246113721  1.0000
  O   O8        1.0  0.838986698362132  0.3888809505402382  0.36617389904695963  1.0000
  O   O9        1.0  0.8390686147084834  0.1931096824944123  0.5619174074402615  1.0000
