data_image0
_chemical_formula_structural       NC10NC3NH7C12NH11C13NH9Zn2C4O8
_chemical_formula_sum              "N5 C42 H27 Zn2 O8"
_cell_length_a       19.210446455230148
_cell_length_b       10.299770795358612
_cell_length_c       10.298528502251457
_cell_angle_alpha    85.53666946162151
_cell_angle_beta     89.98780616926321
_cell_angle_gamma    89.96457025778629

_space_group_name_H-M_alt    "P 1"
_space_group_IT_number       1

loop_
  _space_group_symop_operation_xyz
  'x, y, z'

loop_
  _atom_site_type_symbol
  _atom_site_label
  _atom_site_symmetry_multiplicity
  _atom_site_fract_x
  _atom_site_fract_y
  _atom_site_fract_z
  _atom_site_occupancy
  N   N1        1.0  0.655737053754612  0.42067122133000545  0.5670856755190581  1.0000
  C   C1        1.0  0.5955086843400317  0.42287861592407117  0.5673167597866473  1.0000
  C   C2        1.0  0.5207044678521217  0.4256153810813992  0.5676030442733575  1.0000
  C   C3        1.0  0.4851029741843921  0.5418384732183665  0.5827118175847954  1.0000
  C   C4        1.0  0.4124375070951976  0.5419900265167739  0.5826592075325021  1.0000
  C   C5        1.0  0.3755377703733606  0.4263243047243317  0.5676895083708715  1.0000
  C   C6        1.0  0.2982155334318455  0.42496790626430925  0.5675389546441241  1.0000
  C   C7        1.0  0.2604699629223869  0.5285592778083381  0.5041651983035882  1.0000
  C   C8        1.0  0.1876914959814769  0.5271571101864452  0.5040561692531667  1.0000
  C   C9        1.0  0.1516572093876101  0.42242109451078225  0.5672698828351221  1.0000
  C   C10       1.0  0.0767275859784825  0.4211190842278052  0.5671330917956148  1.0000
  N   N2        1.0  0.016489650559859  0.42007222373984554  0.5670231466818012  1.0000
  C   C11       1.0  0.1886791325859768  0.3189554222204869  0.6306186224526602  1.0000
  C   C12       1.0  0.2614594262713807  0.32008330865807433  0.6307779148566761  1.0000
  C   C13       1.0  0.4137492700285846  0.3119213338741784  0.5528688586224906  1.0000
  N   N3        1.0  0.4845194114137027  0.31436620681631955  0.5530343394998383  1.0000
  H   H1        1.0  0.5132110029252631  0.6312662081026477  0.5947579717144591  1.0000
  H   H2        1.0  0.3851757592298957  0.6319991165797318  0.5961002291537516  1.0000
  H   H3        1.0  0.2872037292426942  0.6098294840057872  0.45316502657840707  1.0000
  H   H4        1.0  0.1595515014787381  0.6075991490372643  0.4543865860708409  1.0000
  H   H5        1.0  0.1613057194183782  0.23755003901074812  0.6801887491448975  1.0000
  H   H6        1.0  0.288954554515867  0.23975993820542318  0.6818853928744404  1.0000
  H   H7        1.0  0.3874767559031275  0.2210493546671457  0.5393816203759312  1.0000
  C   C14       1.0  0.8360535973890889  0.039003286025168116  0.5670940205003221  1.0000
  C   C15       1.0  0.8158532729536482  0.048257226900292105  0.435670693951411  1.0000
  C   C16       1.0  0.805681457938907  0.9358100200404904  0.36904234763086174  1.0000
  C   C17       1.0  0.8159806842510983  0.8129754254798162  0.43560211045348285  1.0000
  C   C18       1.0  0.8361797489760207  0.8017301946938219  0.567025987836894  1.0000
  C   C19       1.0  0.8461034289976845  0.9152993298343436  0.632035861578232  1.0000
  C   C20       1.0  0.7843109918783017  0.9466535570449638  0.23000409604009686  1.0000
  C   C21       1.0  0.7336258558508878  0.03793112641421903  0.1848200728094782  1.0000
  C   C22       1.0  0.7135418205249597  0.048007788951039077  0.053956204230197535  1.0000
  C   C23       1.0  0.7437628428453931  0.9672276716235415  0.9661960259344617  1.0000
  C   C24       1.0  0.794280963835787  0.8761487670465912  0.010489407994689337  1.0000
  C   C25       1.0  0.8144207623187574  0.8658159964473516  0.14132329014714373  1.0000
  N   N4        1.0  0.7231898186020778  0.9776662260247034  0.832347363626174  1.0000
  H   H8        1.0  0.8437212515019226  0.36292940769283977  0.6171895404840424  1.0000
  H   H9        1.0  0.8089055546935996  0.1431917078017757  0.3843132381958929  1.0000
  H   H10       1.0  0.8072856156057291  0.725978237695017  0.38518517826677856  1.0000
  H   H11       1.0  0.8616865351665154  0.9073922982937299  0.733423137795544  1.0000
  H   H12       1.0  0.8439067934073327  0.46999275448093963  0.617089872155745  1.0000
  H   H13       1.0  0.7088622749165282  0.10036059305372746  0.2510358690069858  1.0000
  H   H14       1.0  0.67429741312952  0.11856541729828263  0.021047322720694872  1.0000
  H   H15       1.0  0.8181836932088792  0.8133754116709986  0.9435844017536326  1.0000
  H   H16       1.0  0.8541988442749544  0.7957682481371853  0.172792356647141  1.0000
  H   H17       1.0  0.7454217596315589  0.9178567214800697  0.7661956259789577  1.0000
  H   H18       1.0  0.6855747301699936  0.045281481404907176  0.7984149039560431  1.0000
  C   C26       1.0  0.8361265916588974  0.42049319330016166  0.18564314012118  1.0000
  C   C27       1.0  0.7637630083935409  0.4404752511984711  0.18316381771672474  1.0000
  C   C28       1.0  0.7271029551114462  0.4504600775356782  0.06476104568316332  1.0000
  C   C29       1.0  0.7637421852096916  0.44021042686211787  0.9479041413085141  1.0000
  C   C30       1.0  0.8361067611391054  0.4202402469384545  0.9484768855399701  1.0000
  C   C31       1.0  0.8718355908522739  0.41050674709413126  0.06781328752294757  1.0000
  C   C32       1.0  0.6506000918666831  0.4715794088126626  0.06314757547320626  1.0000
  C   C33       1.0  0.6198807320619042  0.5595612985788505  0.14406111384579212  1.0000
  C   C34       1.0  0.5478686575919572  0.5793938832291614  0.14242288003416603  1.0000
  C   C35       1.0  0.5056177603929252  0.5116056108464522  0.06008719626626213  1.0000
  C   C36       1.0  0.53565013057759  0.4238611956241818  0.979277763174653  1.0000
  C   C37       1.0  0.6076547590179326  0.4039342588855024  0.9806793964517531  1.0000
  C   C38       1.0  0.43148126287446276  0.5320739720266672  0.05852129261020811  1.0000
  N   N5        1.0  0.3718805180234526  0.5485292771885732  0.05726244667758218  1.0000
  H   H19       1.0  0.9728075885367381  0.38192669011994407  0.3977155029540451  1.0000
  H   H20       1.0  0.7356516429132902  0.4465297388963567  0.27368377799960464  1.0000
  H   H21       1.0  0.7358932110613869  0.44960386244344175  0.8562041710403152  1.0000
  H   H22       1.0  0.9276076040341227  0.39511090160505025  0.06898926973615804  1.0000
  H   H23       1.0  0.9729166531156014  0.38331630922444226  0.742171139261377  1.0000
  H   H24       1.0  0.6516414784261535  0.6142767438350771  0.2073537514182422  1.0000
  H   H25       1.0  0.5251870914211331  0.6478217239968853  0.20512776128476284  1.0000
  H   H26       1.0  0.5034085064014435  0.37059670750290863  0.9154133510351956  1.0000
  H   H27       1.0  0.6296526813419854  0.33437736747524616  0.91852151445736  1.0000
  Zn  Zn1       1.0  0.7598424589000825  0.4204948970287705  0.5670751313666256  1.0000
  Zn  Zn2       1.0  0.9123842274474825  0.42023796197999674  0.5670443288926175  1.0000
  C   C39       1.0  0.8361080987491596  0.4151144156026578  0.8042854593260482  1.0000
  C   C40       1.0  0.8361202536174914  0.4256200791756706  0.32983412793326194  1.0000
  C   C41       1.0  0.8361524593335716  0.6575602883828782  0.5618630641988809  1.0000
  C   C42       1.0  0.8360758407213583  0.183172646159522  0.5722565924573553  1.0000
  O   O1        1.0  0.8940069317614023  0.4272375376638051  0.3782142517705882  1.0000
  O   O2        1.0  0.8939970932041351  0.413300969760253  0.7558815833179351  1.0000
  O   O3        1.0  0.8940321345331561  0.6090790790434759  0.5601237841113007  1.0000
  O   O4        1.0  0.8939718383842771  0.23145943779075528  0.5739719535999885  1.0000
  O   O5        1.0  0.7782547959082691  0.6092734213071083  0.5601475066629344  1.0000
  O   O6        1.0  0.7782197548359503  0.41349687234890786  0.7559052364763219  1.0000
  O   O7        1.0  0.7782295934726268  0.42743339551421355  0.3782363433359015  1.0000
  O   O8        1.0  0.7781945000885869  0.23165528632008603  0.5739941425462154  1.0000
