data_image0
_chemical_formula_structural       NC10NC3NH7C12NH11C12NH11Zn2C4O8
_chemical_formula_sum              "N5 C41 H29 Zn2 O8"
_cell_length_a       19.210446455230148
_cell_length_b       10.299770795358612
_cell_length_c       10.299774167527174
_cell_angle_alpha    85.57276865105108
_cell_angle_beta     89.98397518987284
_cell_angle_gamma    89.96457025778629

_space_group_name_H-M_alt    "P 1"
_space_group_IT_number       1

loop_
  _space_group_symop_operation_xyz
  'x, y, z'

loop_
  _atom_site_type_symbol
  _atom_site_label
  _atom_site_symmetry_multiplicity
  _atom_site_fract_x
  _atom_site_fract_y
  _atom_site_fract_z
  _atom_site_occupancy
  N   N1        1.0  0.6557887058062902  0.4197657633805434  0.5673291292153755  1.0000
  C   C1        1.0  0.5955603280618494  0.4219733039966589  0.5675601742214973  1.0000
  C   C2        1.0  0.5207561012542845  0.4247102500570319  0.5678464100681628  1.0000
  C   C3        1.0  0.4851540629628279  0.5409428894214001  0.5829526163826446  1.0000
  C   C4        1.0  0.4124885977700604  0.5410944094755377  0.5829000152688559  1.0000
  C   C5        1.0  0.3755894006587648  0.4254192283365905  0.567932859475333  1.0000
  C   C6        1.0  0.2982671691442378  0.4240627347417327  0.5677823313278267  1.0000
  C   C7        1.0  0.2605238830592432  0.5276140604362043  0.5044193422571599  1.0000
  C   C8        1.0  0.1877454200484872  0.5262118239189013  0.5043103317308923  1.0000
  C   C9        1.0  0.1517088547991943  0.4215157529618443  0.5675133052344172  1.0000
  C   C10       1.0  0.0767792363209531  0.420213656240668  0.5673765374358553  1.0000
  N   N2        1.0  0.016541304865505  0.4191667262784382  0.5672666110018354  1.0000
  C   C11       1.0  0.1887284944748712  0.31809011071304916  0.6308512818324543  1.0000
  C   C12       1.0  0.2615087824182853  0.3192180978074388  0.6310105471725187  1.0000
  C   C13       1.0  0.4138014345517683  0.3110068923241933  0.5531147277714026  1.0000
  N   N3        1.0  0.4845715699718215  0.31345186983362994  0.5532801805333698  1.0000
  H   H1        1.0  0.5132616574777547  0.6303782362653285  0.5949967238576692  1.0000
  H   H2        1.0  0.3852263653982311  0.6311119929143159  0.596338753245969  1.0000
  H   H3        1.0  0.2872594877752316  0.6088520396469292  0.4534278355164145  1.0000
  H   H4        1.0  0.1596072159779003  0.6066224765813277  0.45464918746456706  1.0000
  H   H5        1.0  0.1613532944602142  0.23671605084518976  0.6804129865064568  1.0000
  H   H6        1.0  0.2890020683990364  0.2389270221483124  0.6821093419743915  1.0000
  H   H7        1.0  0.3875294065988023  0.22012639053707495  0.5396297810212354  1.0000
  C   C14       1.0  0.8361052491399568  0.03809783334889616  0.5673374727788181  1.0000
  C   C15       1.0  0.815909662101818  0.047268727880121375  0.43593647519548706  1.0000
  C   C16       1.0  0.8057402488292665  0.934779418596745  0.3693194491031706  1.0000
  C   C17       1.0  0.8160370758714874  0.8119868831217625  0.4358679033499695  1.0000
  C   C18       1.0  0.8362314031792519  0.800824699027739  0.5672694516742129  1.0000
  C   C19       1.0  0.846152739799569  0.9144349138797039  0.6322682801675632  1.0000
  C   C20       1.0  0.784374794660045  0.9455350973894388  0.2303048202620015  1.0000
  C   C21       1.0  0.7336912873744638  0.036784114993718475  0.18512847384588738  1.0000
  C   C22       1.0  0.7136119692791385  0.046778084707891576  0.05428683917967159  1.0000
  C   C23       1.0  0.7438361550777973  0.9659425117612221  0.9665415714333188  1.0000
  C   C24       1.0  0.7943526794311697  0.8748915961534726  0.01082742799994052  1.0000
  C   C25       1.0  0.8144877617644535  0.8646414994284696  0.14163908133405667  1.0000
  N   N4        1.0  0.7232679556575049  0.9762964872498553  0.8327156501577835  1.0000
  H   H8        1.0  0.8437710974669573  0.36205561035424316  0.6174244814794139  1.0000
  H   H9        1.0  0.8089637951164154  0.14217075602725404  0.3845877451273487  1.0000
  H   H10       1.0  0.8073438245978494  0.7249578368990539  0.3854595370546714  1.0000
  H   H11       1.0  0.8617321912761817  0.9065919489156169  0.7336383305767911  1.0000
  H   H12       1.0  0.8439566429650971  0.4691188941619693  0.6173248300848735  1.0000
  H   H13       1.0  0.708925319569048  0.09925542336655502  0.25133301990787515  1.0000
  H   H14       1.0  0.6743687481453052  0.1173149179469688  0.021383548924795104  1.0000
  H   H15       1.0  0.8182578205191712  0.8120759635330197  0.943933788991937  1.0000
  H   H16       1.0  0.854264709359844  0.7946136364079799  0.17310280120555865  1.0000
  H   H17       1.0  0.7455022812489331  0.9164451814504638  0.7665751517624702  1.0000
  H   H18       1.0  0.6856540903837985  0.04389030072329003  0.7987889556493175  1.0000
  C   C26       1.0  0.8361919935134872  0.4193467019755437  0.18595140131756116  1.0000
  C   C27       1.0  0.7680098363968457  0.37015806645496907  0.1887883740525118  1.0000
  C   C28       1.0  0.7334370444482841  0.3453496535258165  0.073078065204774  1.0000
  C   C29       1.0  0.7679620522896576  0.370389446742476  0.953483650688828  1.0000
  C   C30       1.0  0.8361446518264994  0.41957585503220907  0.9486555337137244  1.0000
  C   C31       1.0  0.8698777066206411  0.4437795470817174  0.06540869535487559  1.0000
  C   C32       1.0  0.6613042739343221  0.2933114947276214  0.07713276653408685  1.0000
  C   C33       1.0  0.6417248552061395  0.19489018380288092  0.17244367093706803  1.0000
  C   C34       1.0  0.573830267720975  0.14596739813766102  0.17612624700176527  1.0000
  C   C35       1.0  0.5244410812626162  0.1945750614922086  0.08482588215647935  1.0000
  C   C36       1.0  0.5435610886597451  0.2926069747294602  0.9896744568168541  1.0000
  C   C37       1.0  0.6114347908441933  0.3416310568777652  0.9857255952473731  1.0000
  N   N5        1.0  0.4550006653560878  0.14447879158718768  0.08872903106271068  1.0000
  H   H19       1.0  0.862184346604733  0.4380361384391833  0.5123279882017611  1.0000
  H   H20       1.0  0.7412821350181139  0.35269931299045565  0.28108024900463446  1.0000
  H   H21       1.0  0.7418893547696298  0.3497572004348388  0.8641595959249075  1.0000
  H   H22       1.0  0.9224772526552222  0.4817254276650442  0.062452114438029005  1.0000
  H   H23       1.0  0.8621148737604233  0.43837320358989307  0.6193581926415539  1.0000
  H   H24       1.0  0.6791625774736141  0.1545598556658876  0.2430905899013307  1.0000
  H   H25       1.0  0.5597756346729386  0.06994412442081588  0.24995380600229788  1.0000
  H   H26       1.0  0.5058324980916498  0.3312724763479187  0.9187576835084079  1.0000
  H   H27       1.0  0.6246758098126043  0.4185221759156941  0.9122301178878889  1.0000
  H   H28       1.0  0.4178205672741219  0.18009693177712838  0.021067765789993587  1.0000
  H   H29       1.0  0.4402572864498784  0.07140193082236168  0.15930931207253884  1.0000
  Zn  Zn1       1.0  0.7598941113318443  0.41958943241646307  0.5673185868544062  1.0000
  Zn  Zn2       1.0  0.9124358809895765  0.4193324779036194  0.5672877896137716  1.0000
  C   C38       1.0  0.8361512004951552  0.4143588440952455  0.8044886125220867  1.0000
  C   C39       1.0  0.8361804578407737  0.4245647020746488  0.3301178909245803  1.0000
  C   C40       1.0  0.8362042996439513  0.6566515302675542  0.5621074052225201  1.0000
  C   C41       1.0  0.836127306377755  0.18227045571026435  0.5724991676092821  1.0000
  O   O1        1.0  0.8940653920334839  0.426212731942367  0.37848979492644585  1.0000
  O   O2        1.0  0.8940419397575223  0.4125148118642701  0.756092960384954  1.0000
  O   O3        1.0  0.894084037539109  0.6081692218778076  0.5603684206405115  1.0000
  O   O4        1.0  0.8940232422073034  0.23055833127747039  0.5742142373101986  1.0000
  O   O5        1.0  0.7783066980590987  0.6083635791317099  0.560392139161658  1.0000
  O   O6        1.0  0.7782646005367158  0.41271072939934617  0.7561166095246432  1.0000
  O   O7        1.0  0.7782880529483769  0.4264086037524262  0.37851188273837844  1.0000
  O   O8        1.0  0.7782459031117713  0.2307541938279869  0.5742364224864995  1.0000
