data_image0
_chemical_formula_structural       NC12NC2H8C12NH11C13NH9Zn2C4O8
_chemical_formula_sum              "N4 C43 H28 Zn2 O8"
_cell_length_a       17.80743265337812
_cell_length_b       10.299770795358612
_cell_length_c       10.298528502251457
_cell_angle_alpha    85.53666946162151
_cell_angle_beta     91.53111058914057
_cell_angle_gamma    89.45311437677636

_space_group_name_H-M_alt    "P 1"
_space_group_IT_number       1

loop_
  _space_group_symop_operation_xyz
  'x, y, z'

loop_
  _atom_site_type_symbol
  _atom_site_label
  _atom_site_symmetry_multiplicity
  _atom_site_fract_x
  _atom_site_fract_y
  _atom_site_fract_z
  _atom_site_occupancy
  N   N1        1.0  0.7077019840853036  0.4071022432409217  0.6010991423347003  1.0000
  C   C1        1.0  0.6568888704742162  0.4366817600038817  0.5323912427117472  1.0000
  C   C2        1.0  0.5936723417955829  0.473476530638415  0.44692726464536436  1.0000
  C   C3        1.0  0.6054112877088401  0.5275354000916082  0.3202906524710276  1.0000
  C   C4        1.0  0.544101795038222  0.5628258600676128  0.23722300310414135  1.0000
  C   C5        1.0  0.470899114076942  0.544321114158232  0.2801319769285753  1.0000
  C   C6        1.0  0.4581833639753498  0.4901433002788922  0.4072367893975799  1.0000
  C   C7        1.0  0.5203501736629824  0.4548560991965893  0.49028792509138697  1.0000
  C   C8        1.0  0.3804122185651004  0.4705235646175292  0.45300643146506325  1.0000
  C   C9        1.0  0.3616287549866542  0.49767140802386467  0.5800631591342664  1.0000
  C   C10       1.0  0.2883961346221695  0.4792082230000254  0.6230126979962181  1.0000
  C   C11       1.0  0.2330039484848784  0.4333426707093142  0.5397435833116726  1.0000
  C   C12       1.0  0.1576346004687731  0.41432623920454525  0.5840942333008423  1.0000
  N   N2        1.0  0.09704298199941722  0.3990383072406958  0.6197491048653041  1.0000
  C   C13       1.0  0.2510958795462386  0.4060257515583612  0.41322989387176  1.0000
  C   C14       1.0  0.3242756519235415  0.4245037992169225  0.3700244392084546  1.0000
  H   H1        1.0  0.6618801679249633  0.542369496840359  0.2858490710741872  1.0000
  H   H2        1.0  0.553308969491016  0.6049522529253473  0.13943091090935322  1.0000
  H   H3        1.0  0.424266111195333  0.573976301712912  0.21453235859169628  1.0000
  H   H4        1.0  0.5118411450187239  0.41134444079113286  0.5879556357807443  1.0000
  H   H5        1.0  0.40331045325470627  0.534830754901024  0.6456413510564691  1.0000
  H   H6        1.0  0.2749548451336109  0.5010241325007045  0.721031071679265  1.0000
  H   H7        1.0  0.208697514124098  0.3701335571615709  0.3480646305163537  1.0000
  H   H8        1.0  0.3371882764293848  0.4011522570657928  0.2723095202910417  1.0000
  C   C15       1.0  0.9023080002664136  0.021703069605619074  0.6104606125330085  1.0000
  C   C16       1.0  0.8805068688521166  0.031375009979303314  0.4779894832697078  1.0000
  C   C17       1.0  0.8695289721075858  0.9191382855594843  0.41083351891922115  1.0000
  C   C18       1.0  0.8806443770613661  0.7960905720735266  0.4779275086707473  1.0000
  C   C19       1.0  0.9024441489373722  0.784427367855799  0.6103991234266222  1.0000
  C   C20       1.0  0.9131542468349169  0.8977911551423203  0.6759237442898032  1.0000
  C   C21       1.0  0.8464649693257976  0.9304240354663236  0.27068676867945496  1.0000
  C   C22       1.0  0.7917632087270174  0.022750417764878073  0.22287367761982813  1.0000
  C   C23       1.0  0.7700875819384821  0.03324267346319054  0.09096803831069278  1.0000
  C   C24       1.0  0.8027035174492125  0.9518372012204149  0.004775442224846715  1.0000
  C   C25       1.0  0.8572250276375665  0.8597129397082486  0.051689228945839494  1.0000
  C   C26       1.0  0.8789608366236024  0.8489634220565598  0.18356777429591564  1.0000
  N   N3        1.0  0.7805001510353974  0.9627014672899741  0.8698596450438361  1.0000
  H   H9        1.0  0.910583289878098  0.3454705267139888  0.6609538582472287  1.0000
  H   H10       1.0  0.8730085675599314  0.1264532580147315  0.42627164527998507  1.0000
  H   H11       1.0  0.8712602538112738  0.7092733088411934  0.42705955815720653  1.0000
  H   H12       1.0  0.9299722611453001  0.8895616668715984  0.778119325393233  1.0000
  H   H13       1.0  0.9107835353481961  0.45253003413685156  0.6608638140867387  1.0000
  H   H14       1.0  0.7650371982629793  0.08569231005607336  0.2878049723033149  1.0000
  H   H15       1.0  0.7277331887880869  0.1046123750355461  0.05602352629807772  1.0000
  H   H16       1.0  0.8830219669831988  0.7964449720345165  0.9860240713417934  1.0000
  H   H17       1.0  0.9218911962278397  0.7780925573472222  0.21710015331250743  1.0000
  H   H18       1.0  0.8044938977461316  0.9024319235894324  0.8048610912591516  1.0000
  H   H19       1.0  0.7399041948323616  0.03109508086700563  0.8339760686039179  1.0000
  C   C27       1.0  0.9023867790837377  0.40319146643119974  0.22901351840959117  1.0000
  C   C28       1.0  0.8242886280654498  0.4246709231270198  0.22278065436224126  1.0000
  C   C29       1.0  0.7847233902984833  0.4354143453936181  0.10247630379406658  1.0000
  C   C30       1.0  0.8242661547151325  0.42440652967881554  0.987519897843232  1.0000
  C   C31       1.0  0.9023653770627269  0.4029389304167301  0.9918462352076518  1.0000
  C   C32       1.0  0.9409255949614661  0.39246610418425965  0.1130359126107876  1.0000
  C   C33       1.0  0.7021579354465356  0.45811672839716944  0.09689458505311999  1.0000
  C   C34       1.0  0.6690041709014444  0.546734285032745  0.17621469215728047  1.0000
  C   C35       1.0  0.5912853845545752  0.568056994810251  0.17084114967080577  1.0000
  C   C36       1.0  0.5456862475133909  0.5011430080806936  0.08631388700465026  1.0000
  C   C37       1.0  0.5780985808484917  0.4127771416674837  0.007062250625644806  1.0000
  C   C38       1.0  0.6558093310932459  0.3913602338801567  0.012198806347656577  1.0000
  C   C39       1.0  0.46567468481987084  0.523145454462697  0.08090247960020558  1.0000
  N   N4        1.0  0.4013507837340462  0.54083406068079  0.07655210796292433  1.0000
  H   H20       1.0  0.0498992798999609  0.36179666272837085  0.4481756049739647  1.0000
  H   H21       1.0  0.7939495325212692  0.4313071112184874  0.31184246157686  1.0000
  H   H22       1.0  0.7942102441231549  0.4343762360654235  0.8943753848995519  1.0000
  H   H23       1.0  0.0011173504208066287  0.37591618448126085  0.1171048219641384  1.0000
  H   H24       1.0  0.05001698747560135  0.36318402499093483  0.7926368985251755  1.0000
  H   H25       1.0  0.7032818483474723  0.600792514307289  0.2411547783317498  1.0000
  H   H26       1.0  0.5668063814399193  0.6369541786975006  0.23236952473822936  1.0000
  H   H27       1.0  0.5433019176601853  0.36017982019402717  0.9415254464691141  1.0000
  H   H28       1.0  0.6795505139124073  0.32134814579569837  0.9511819695278461  1.0000
  Zn  Zn1       1.0  0.820057388364508  0.4047716957593952  0.6064886068030548  1.0000
  Zn  Zn2       1.0  0.9846875730380042  0.40135825780562606  0.6143702356195744  1.0000
  C   C40       1.0  0.9023668206738261  0.3978130714021535  0.84765487837635  1.0000
  C   C41       1.0  0.9023799387741159  0.40831848345797495  0.37320417746373646  1.0000
  C   C42       1.0  0.9024146966836137  0.6402580262415711  0.6052347842587982  1.0000
  C   C43       1.0  0.9023320063070813  0.1658719694651014  0.6156243382647746  1.0000
  O   O1        1.0  0.9648539391985049  0.40873810957887136  0.4245869173570591  1.0000
  O   O2        1.0  0.9648433209690502  0.3948017452617527  0.8022537385726518  1.0000
  O   O3        1.0  0.9648811392041665  0.5905791294448413  0.6064977569803724  1.0000
  O   O4        1.0  0.9648160647906494  0.21296073588297237  0.6203427988723391  1.0000
  O   O5        1.0  0.839928840431661  0.5931692188483038  0.6005160408538448  1.0000
  O   O6        1.0  0.8398910224735899  0.397393394984926  0.7962719530661935  1.0000
  O   O7        1.0  0.8399016407887467  0.4113297145621553  0.4186035702616464  1.0000
  O   O8        1.0  0.8398637663734286  0.2155523315453216  0.6143595491574811  1.0000
