data_image0
_chemical_formula_structural       NC10NC3NH7C12NCOCH13C12NH11Zn2C4O8
_chemical_formula_sum              "N5 C43 H31 O9 Zn2"
_cell_length_a       19.210446455230148
_cell_length_b       10.299155265289647
_cell_length_c       10.299774167527174
_cell_angle_alpha    85.56091470143106
_cell_angle_beta     89.98397518987284
_cell_angle_gamma    89.9251083167036

_space_group_name_H-M_alt    "P 1"
_space_group_IT_number       1

loop_
  _space_group_symop_operation_xyz
  'x, y, z'

loop_
  _atom_site_type_symbol
  _atom_site_label
  _atom_site_symmetry_multiplicity
  _atom_site_fract_x
  _atom_site_fract_y
  _atom_site_fract_z
  _atom_site_occupancy
  N   N1        1.0  0.6552644544189905  0.4198743159477407  0.5670347113539411  1.0000
  C   C1        1.0  0.5950352615357005  0.42208202534817785  0.5672652985807558  1.0000
  C   C2        1.0  0.5202300241052525  0.4248191806701973  0.5675509668649215  1.0000
  C   C3        1.0  0.48458506667600026  0.5410607069592404  0.5826330699322386  1.0000
  C   C4        1.0  0.4119195455341454  0.5412122385983105  0.5825804373976264  1.0000
  C   C5        1.0  0.3750630617180654  0.4255282131568754  0.567637269250749  1.0000
  C   C6        1.0  0.2977413310915492  0.42417161584711893  0.5674870224003083  1.0000
  C   C7        1.0  0.259959808469548  0.5277308588773448  0.5041025598157378  1.0000
  C   C8        1.0  0.1871818632374697  0.5263285151477266  0.5039938400722797  1.0000
  C   C9        1.0  0.1511839572246929  0.4216244393298889  0.5672185244763672  1.0000
  C   C10       1.0  0.0762548195483065  0.42032224305289456  0.5670820266945518  1.0000
  N   N2        1.0  0.01601727467387  0.4192752330444076  0.5669723173631618  1.0000
  C   C11       1.0  0.18824178702850908  0.3181908893548546  0.6305779485252405  1.0000
  C   C12       1.0  0.2610216584604012  0.3193189626929742  0.6307369799537983  1.0000
  C   C13       1.0  0.4133173425981605  0.31110712939670604  0.5528428633163502  1.0000
  N   N3        1.0  0.4840865752053101  0.3135522938444337  0.5530078090615489  1.0000
  H   H1        1.0  0.5126596370077372  0.6305028918582543  0.5946586311341855  1.0000
  H   H2        1.0  0.3846240739870828  0.6312367046088672  0.5960005083628335  1.0000
  H   H3        1.0  0.2866654158969687  0.6089750493881478  0.4530942066960175  1.0000
  H   H4        1.0  0.1590139673703207  0.6067453158544307  0.4543160209902877  1.0000
  H   H5        1.0  0.1608966345504784  0.23681060778245122  0.6801565277973629  1.0000
  H   H6        1.0  0.2885445920836631  0.23902174813219834  0.681852424774567  1.0000
  H   H7        1.0  0.3870788724547778  0.22021967906072715  0.5393767625220944  1.0000
  C   C14       1.0  0.8357219294098135  0.038177204318191604  0.5671222016742896  1.0000
  C   C15       1.0  0.8238395343500889  0.0478692111231791  0.432205709327971  1.0000
  C   C16       1.0  0.8177475005895342  0.935645667209095  0.3636824991449976  1.0000
  C   C17       1.0  0.8236731139549867  0.8126096544488913  0.43189796844060013  1.0000
  C   C18       1.0  0.8355664738425347  0.8009624124442437  0.566896045441625  1.0000
  C   C19       1.0  0.8415207584834495  0.9142633698024696  0.6336770569320491  1.0000
  C   C20       1.0  0.8051782206969226  0.9468723080074427  0.22095714117346477  1.0000
  C   C21       1.0  0.8404853826644876  0.04090779915663556  0.1395374442098567  1.0000
  C   C22       1.0  0.8286625898508948  0.05134192099352952  0.005223370861277665  1.0000
  C   C23       1.0  0.7817290748860076  0.9670660362035152  0.9494836702274578  1.0000
  C   C24       1.0  0.7455716399953293  0.8748482284927361  0.0308353581466021  1.0000
  C   C25       1.0  0.7574197880360929  0.8641580374325246  0.1651120934815582  1.0000
  N   N4        1.0  0.767666379498718  0.977302016354516  0.8119318154628052  1.0000
  C   C26       1.0  0.8184992821693925  0.014133862066917802  0.713710128984685  1.0000
  O   O1        1.0  0.8823565591749566  0.016567883196564104  0.741556129945963  1.0000
  C   C27       1.0  0.7963010702248043  0.0405888924854374  0.5751808967455427  1.0000
  H   H8        1.0  0.8403140138949625  0.3619253937622662  0.6190111578612698  1.0000
  H   H9        1.0  0.8183353861317634  0.14291275708089635  0.38039957307622174  1.0000
  H   H10       1.0  0.8199318762855856  0.7258059255186369  0.37927275650505954  1.0000
  H   H11       1.0  0.8506882414912642  0.906072853327766  0.7377405210713293  1.0000
  H   H12       1.0  0.8584313957856775  0.5716948161378793  0.8215669701341657  1.0000
  H   H13       1.0  0.8776532336460876  0.10590271799666828  0.17962136254033134  1.0000
  H   H14       1.0  0.8553707148436641  0.12674091121009345  0.9456412496099764  1.0000
  H   H15       1.0  0.7083370401144882  0.8105572918797617  0.9898844580968671  1.0000
  H   H16       1.0  0.7284748646466109  0.7923792815859584  0.22552750802161503  1.0000
  H   H17       1.0  0.7186401326287148  0.9485084370186935  0.7808683805893097  1.0000
  H   H18       1.0  0.746053531504454  0.09411708128638319  0.5707361664214141  1.0000
  H   H19       1.0  0.789862551442183  0.9469806185497829  0.5299601674688041  1.0000
  H   H20       1.0  0.8359317465370973  0.10060292385288871  0.5197814797525857  1.0000
  C   C28       1.0  0.8356678968654612  0.41945522250210954  0.1856570703571958  1.0000
  C   C29       1.0  0.7675039027522363  0.3702628261128056  0.18850424337535565  1.0000
  C   C30       1.0  0.7329402713604583  0.3454525163799824  0.07279907906629313  1.0000
  C   C31       1.0  0.7674560332074079  0.3704942240912059  0.9531994720301724  1.0000
  C   C32       1.0  0.8356204705632426  0.41968439307937855  0.9483611552337226  1.0000
  C   C33       1.0  0.8693445880950119  0.44388993569675916  0.06510929773760754  1.0000
  C   C34       1.0  0.6608267160421617  0.29341037884397325  0.07686457158653481  1.0000
  C   C35       1.0  0.6412836395826288  0.19498154281456892  0.1721958856885164  1.0000
  C   C36       1.0  0.5734071169352825  0.1460550166069896  0.17588860690694452  1.0000
  C   C37       1.0  0.5239999819986577  0.19466639641024885  0.08457816225507098  1.0000
  C   C38       1.0  0.5430837909130227  0.2927058049795641  0.9894064079661278  1.0000
  C   C39       1.0  0.6109393908557207  0.34173363541516344  0.9854473802369896  1.0000
  N   N5        1.0  0.4545780642413828  0.14456629624051476  0.08849169966131498  1.0000
  H   H21       1.0  0.8616533488443923  0.43814608792421583  0.5120297815993302  1.0000
  H   H22       1.0  0.7407826480536263  0.35280273778548743  0.2807997387619121  1.0000
  H   H23       1.0  0.7413909541861697  0.34986040028158794  0.8638796957902106  1.0000
  H   H24       1.0  0.9219301225362365  0.4818387175493357  0.062144847955839744  1.0000
  H   H25       1.0  0.8615837515380922  0.4384831788462804  0.6190599161416781  1.0000
  H   H26       1.0  0.6787362539055546  0.15464813109803877  0.2428511679823273  1.0000
  H   H27       1.0  0.5593805556352351  0.07002593029644655  0.24973193090917256  1.0000
  H   H28       1.0  0.5053409230300442  0.3313742628881171  0.9184816165644207  1.0000
  H   H29       1.0  0.6241520176224978  0.41863063340057893  0.9119359579100936  1.0000
  H   H30       1.0  0.4173848140889211  0.18018715972513966  0.02082304822890002  1.0000
  H   H31       1.0  0.4398616691142048  0.07148384815907383  0.1590871346730367  1.0000
  Zn  Zn1       1.0  0.7593699250551107  0.41969797150173327  0.5670242055588519  1.0000
  Zn  Zn2       1.0  0.9119117895938182  0.4194409973426405  0.5669934616030623  1.0000
  C   C40       1.0  0.8356289456237666  0.4144669832597645  0.804195315897446  1.0000
  C   C41       1.0  0.8356544344356295  0.4246736215594946  0.3298224779037304  1.0000
  C   C42       1.0  0.8355925777068431  0.6567781946661471  0.5617638641869047  1.0000
  C   C43       1.0  0.835690750614434  0.1823608498417464  0.5722539993229454  1.0000
  O   O2        1.0  0.8935387600899688  0.4263217774324153  0.3781940401524404  1.0000
  O   O3        1.0  0.8935203657987745  0.41262281003762213  0.7558000461586216  1.0000
  O   O4        1.0  0.8934902177926923  0.6082921794120895  0.5600349334165329  1.0000
  O   O5        1.0  0.8935688560480053  0.2306524174073037  0.5739590555319012  1.0000
  O   O6        1.0  0.7777128065458716  0.6084865515261746  0.5600586116336734  1.0000
  O   O7        1.0  0.7777429542350207  0.41281874255217677  0.7558236546707491  1.0000
  O   O8        1.0  0.7777613486787988  0.4265176642184576  0.37821608734629275  1.0000
  O   O9        1.0  0.7777914446298293  0.23084829493309522  0.5739812000920421  1.0000
