data_image0
_chemical_formula_structural       NC10NC5H10C16H10C13OH12Zn2C4O8
_chemical_formula_sum              "N2 C48 H32 O9 Zn2"
_cell_length_a       19.4436361288709
_cell_length_b       10.29914801576943
_cell_length_c       10.299153481560891
_cell_angle_alpha    85.55882765748771
_cell_angle_beta     89.72153825952512
_cell_angle_gamma    89.43179634642199

_space_group_name_H-M_alt    "P 1"
_space_group_IT_number       1

loop_
  _space_group_symop_operation_xyz
  'x, y, z'

loop_
  _atom_site_type_symbol
  _atom_site_label
  _atom_site_symmetry_multiplicity
  _atom_site_fract_x
  _atom_site_fract_y
  _atom_site_fract_z
  _atom_site_occupancy
  N   N1        1.0  0.6476013050120633  0.40888427793724014  0.5615268675019889  1.0000
  C   C1        1.0  0.5887696947364667  0.4187897771227267  0.5759071078353704  1.0000
  C   C2        1.0  0.5154458162754691  0.43114327299146815  0.5938947681479412  1.0000
  C   C3        1.0  0.4732377559188691  0.3991252596882424  0.4992326055492582  1.0000
  C   C4        1.0  0.3973355196065312  0.40956540823142906  0.5045566475515475  1.0000
  C   C5        1.0  0.3576159173515144  0.3848366258482039  0.6116398704924875  1.0000
  C   C6        1.0  0.2814931042291634  0.3887510028806731  0.5986788243555301  1.0000
  C   C7        1.0  0.24095723931611623  0.44643523633135795  0.6924278701771074  1.0000
  C   C8        1.0  0.1692920545384104  0.4500712008226688  0.6818824363498384  1.0000
  C   C9        1.0  0.13716799067977153  0.3956269459337127  0.5778746414093767  1.0000
  C   C10       1.0  0.0633735358751259  0.3993241279406514  0.5671739000004701  1.0000
  N   N2        1.0  0.0040477994070623  0.402296468298738  0.5585712133342504  1.0000
  C   C11       1.0  0.17697895822067533  0.33723564226769254  0.4845091114315334  1.0000
  C   C12       1.0  0.24866051196115474  0.33354540013151013  0.4948027864935216  1.0000
  C   C13       1.0  0.3857714730431315  0.3443984549029142  0.7427516913979755  1.0000
  C   C14       1.0  0.4444504042335279  0.3875329487813288  0.7899777829740526  1.0000
  C   C15       1.0  0.4886541986773487  0.485384132626546  0.7155712655641224  1.0000
  H   H1        1.0  0.4953140597518256  0.36998818271373146  0.4089362671769008  1.0000
  H   H2        1.0  0.3726201699538532  0.43204353200333867  0.41138853360182903  1.0000
  H   H3        1.0  0.2648501545733633  0.48974534338025366  0.7732600694017246  1.0000
  H   H4        1.0  0.1389682770090579  0.49540363546773714  0.7547862964281857  1.0000
  H   H5        1.0  0.1526142554192394  0.2941212734952723  0.4040113219707371  1.0000
  H   H6        1.0  0.2783185425797334  0.28596953913289913  0.42259614509419907  1.0000
  H   H7        1.0  0.3548116384810702  0.2801890208269875  0.8070244062666245  1.0000
  H   H8        1.0  0.45961683168063217  0.3534822991769604  0.8879265636116267  1.0000
  H   H9        1.0  0.45855109445703  0.5761004611044163  0.6902835734608646  1.0000
  H   H10       1.0  0.5319558044497309  0.5109844816853184  0.7786468711548695  1.0000
  C   C16       1.0  0.8257788903660859  0.024189909419838118  0.5602149938425263  1.0000
  C   C17       1.0  0.8100542318572651  0.03402900594987157  0.4268703756126222  1.0000
  C   C18       1.0  0.8021320132028142  0.9218868804877856  0.35909679970290553  1.0000
  C   C19       1.0  0.8101459820681003  0.7987753425677929  0.4264650214212804  1.0000
  C   C20       1.0  0.8258767843984756  0.7869807222995524  0.5598943422528015  1.0000
  C   C21       1.0  0.8335976102432942  0.9002056412047189  0.6259477491033083  1.0000
  C   C22       1.0  0.7854973906708159  0.933341060538513  0.218034273610052  1.0000
  C   C23       1.0  0.8180248509921312  0.8517226577368792  0.1325462139180229  1.0000
  C   C24       1.0  0.8023448893809333  0.8626285581481136  0.9997838017261849  1.0000
  C   C25       1.0  0.7539763950371683  0.9550554670344155  0.9507065157176702  1.0000
  C   C26       1.0  0.7213233240986917  0.03665602261567735  0.03491166621353026  1.0000
  C   C27       1.0  0.7369542508038966  0.025992302063154504  0.16769543173532275  1.0000
  C   C28       1.0  0.7378592395469789  0.9661589236449998  0.8140149530581824  1.0000
  C   C29       1.0  0.7243612956484641  0.9754579622334169  0.6995377472917976  1.0000
  C   C30       1.0  0.7085553627135198  0.9863470112758579  0.5654861065034531  1.0000
  C   C31       1.0  0.6950596840512365  0.9956446377996234  0.45102738985968926  1.0000
  H   H11       1.0  0.8317918983108379  0.34788063025060323  0.611519433274003  1.0000
  H   H12       1.0  0.8048576457456579  0.1291607959860539  0.37500298510084673  1.0000
  H   H13       1.0  0.8031741984665935  0.7119915447999045  0.3751069359518553  1.0000
  H   H14       1.0  0.8457244314086642  0.8919006402768077  0.7288007482488037  1.0000
  H   H15       1.0  0.8551419481836918  0.55742037004817  0.8119169612661254  1.0000
  H   H16       1.0  0.8562374133383186  0.7806252630373111  0.16807932943745718  1.0000
  H   H17       1.0  0.8280669742985847  0.7992060423076464  0.9353951715264213  1.0000
  H   H18       1.0  0.6836576057391478  0.10830714583563328  0.9980041131510289  1.0000
  H   H19       1.0  0.7104302681560437  0.08903952850685792  0.23128791765916334  1.0000
  H   H20       1.0  0.683209391611  0.003808738300629333  0.3505229850187219  1.0000
  C   C32       1.0  0.8257687525507983  0.40543897004643337  0.1786826556823824  1.0000
  C   C33       1.0  0.754656786557343  0.382371008634961  0.1799540132032853  1.0000
  C   C34       1.0  0.7187262981503589  0.37083554137136  0.06342995773298754  1.0000
  C   C35       1.0  0.7548190986695092  0.3826853341049603  0.9446445666606262  1.0000
  C   C36       1.0  0.825886944232095  0.40573167487579465  0.9414266370134605  1.0000
  C   C37       1.0  0.8609468017128228  0.41697031735629486  0.058982654038955085  1.0000
  C   C38       1.0  0.643543414376626  0.346460109695393  0.06574716341670284  1.0000
  C   C39       1.0  0.6000524494756729  0.4125060859594569  0.9734127981613421  1.0000
  C   C40       1.0  0.5293009232847683  0.38961131228053025  0.9756713618749  1.0000
  C   C41       1.0  0.5008494038428313  0.2994173778171345  0.06940532746553485  1.0000
  C   C42       1.0  0.5438791069697904  0.23447629740533027  0.16266158798502928  1.0000
  C   C43       1.0  0.6146338921655363  0.25734136100149163  0.16058115934161843  1.0000
  C   C44       1.0  0.4246273788032179  0.27753749149782414  0.07396352008529727  1.0000
  O   O1        1.0  0.39374656495159305  0.36570355351984585  0.15369002421848688  1.0000
  H   H21       1.0  0.9599087485512257  0.4498122092000145  0.3835116507659575  1.0000
  H   H22       1.0  0.7269268208780245  0.3751191603969275  0.2716627834335186  1.0000
  H   H23       1.0  0.7275292046131527  0.37213651598219055  0.8546963674725343  1.0000
  H   H24       1.0  0.9157631858695826  0.43475030238847445  0.05721639088786867  1.0000
  H   H25       1.0  0.8532130490430004  0.41468219919065663  0.6127068954664141  1.0000
  H   H26       1.0  0.6206212332808492  0.48338805681289365  0.9006546944236464  1.0000
  H   H27       1.0  0.4966750263575422  0.4424989468003764  0.9044391325302139  1.0000
  H   H28       1.0  0.5226763971760566  0.16581262213815684  0.2368639033118387  1.0000
  H   H29       1.0  0.6468464059512711  0.2042608496872771  0.23234011396409193  1.0000
  H   H30       1.0  0.4136982584279131  0.17594362137086073  0.11291571807371259  1.0000
  H   H31       1.0  0.4028589943835014  0.29130620146953  0.9740075545965605  1.0000
  H   H32       1.0  0.3437460555425785  0.34727245055625655  0.15340935650004983  1.0000
  Zn  Zn1       1.0  0.7504640656116749  0.40697970960681573  0.560681443214303  1.0000
  Zn  Zn2       1.0  0.9011850306159628  0.40419043216915385  0.5594273233479989  1.0000
  C   C45       1.0  0.8258623918901025  0.4005022699429317  0.7972538929258473  1.0000
  C   C46       1.0  0.8257883504358632  0.41066948017801663  0.3228549867200503  1.0000
  C   C47       1.0  0.8258539440450385  0.642795111708703  0.5547797458785144  1.0000
  C   C48       1.0  0.825796746660849  0.16837507895918624  0.5653292040905249  1.0000
  O   O2        1.0  0.8829927476681012  0.4113607046990815  0.3707646084755247  1.0000
  O   O3        1.0  0.8830517194667061  0.3976930684393041  0.7483920497730592  1.0000
  O   O4        1.0  0.8830441268802219  0.5933476171638881  0.5525924663356636  1.0000
  O   O5        1.0  0.8830002888098353  0.21570616617991045  0.5665640949615052  1.0000
  O   O6        1.0  0.7686487559841331  0.5954639765493142  0.5535446720219341  1.0000
  O   O7        1.0  0.7686563487570264  0.39981098823104455  0.7493441855573257  1.0000
  O   O8        1.0  0.7685973767564371  0.4134785786310764  0.3717151828651255  1.0000
  O   O9        1.0  0.7686049179092523  0.21782403085974766  0.5675147667236595  1.0000
