data_image0
_chemical_formula_structural       NC8NC6H8C12OCH12C12NCOCH13Zn2C4O8
_chemical_formula_sum              "N3 C45 H33 O10 Zn2"
_cell_length_a       17.457602349358154
_cell_length_b       10.29979075500242
_cell_length_c       10.299158637457994
_cell_angle_alpha    85.5763692806703
_cell_angle_beta     92.85709877509845
_cell_angle_gamma    91.67079993281202

_space_group_name_H-M_alt    "P 1"
_space_group_IT_number       1

loop_
  _space_group_symop_operation_xyz
  'x, y, z'

loop_
  _atom_site_type_symbol
  _atom_site_label
  _atom_site_symmetry_multiplicity
  _atom_site_fract_x
  _atom_site_fract_y
  _atom_site_fract_z
  _atom_site_occupancy
  N   N1        1.0  0.7224214447278754  0.4523251413848648  0.6263621528016134  1.0000
  C   C1        1.0  0.661353816610131  0.4063969742604898  0.6157511579122177  1.0000
  C   C2        1.0  0.5853831013654736  0.3492680519938216  0.6025606216128796  1.0000
  C   C3        1.0  0.5268330832750411  0.3894555427647639  0.6774539377684663  1.0000
  C   C4        1.0  0.45229995193434214  0.3344450631664071  0.6648776209575193  1.0000
  C   C5        1.0  0.3901577978567774  0.37687721842405186  0.744192496282309  1.0000
  C   C6        1.0  0.3156183148977388  0.3953257128691563  0.6884272920407561  1.0000
  C   C7        1.0  0.2570683068493683  0.4353293192224179  0.7634285802991008  1.0000
  C   C8        1.0  0.18109097697752102  0.454382877983065  0.7054478608380588  1.0000
  N   N2        1.0  0.12001812139267219  0.46969555969091026  0.658831514090535  1.0000
  C   C9        1.0  0.2725654791734863  0.45712774716165017  0.8947035637971761  1.0000
  C   C10       1.0  0.3463201146838371  0.43906836898924495  0.9508563250688387  1.0000
  C   C11       1.0  0.40485839891649084  0.3992449747276965  0.8763127381420814  1.0000
  C   C12       1.0  0.4376058772926102  0.23856918137384642  0.5759751424667008  1.0000
  C   C13       1.0  0.49614405139906753  0.19866050641472133  0.5014817997712278  1.0000
  C   C14       1.0  0.569892293021373  0.2537835529446355  0.5146080529983958  1.0000
  H   H1        1.0  0.5391509604084983  0.4646720136522069  0.7440767355674605  1.0000
  H   H2        1.0  0.30329526642306964  0.38031984394381313  0.5864046940788028  1.0000
  H   H3        1.0  0.2276878253596772  0.48803066593558286  0.9535360409799369  1.0000
  H   H4        1.0  0.3581292409565043  0.4556317408031436  0.052505504630255384  1.0000
  H   H5        1.0  0.46133802572958177  0.38426961809358207  0.9224205632019731  1.0000
  H   H6        1.0  0.381131427413873  0.19323065971276998  0.5653279705606589  1.0000
  H   H7        1.0  0.48434000828559176  0.12456005714668872  0.43366057080696097  1.0000
  H   H8        1.0  0.6147700515458696  0.22201113053804855  0.4562867878709951  1.0000
  C   C15       1.0  0.9212923864200908  0.0796457638298591  0.6426417141926157  1.0000
  C   C16       1.0  0.8990598587254833  0.0675537507083026  0.7722658007359691  1.0000
  C   C17       1.0  0.8877335932148113  0.9442876794462638  0.8379091882292811  1.0000
  C   C18       1.0  0.8989220405135394  0.8322654137120704  0.7721887600438821  1.0000
  C   C19       1.0  0.9211545343278287  0.8423652102630387  0.6425637382074998  1.0000
  C   C20       1.0  0.9322170035485626  0.9664914250811577  0.5785168446445415  1.0000
  C   C21       1.0  0.8642175120503555  0.9325493226441541  0.9750458323761246  1.0000
  C   C22       1.0  0.8082314238884534  0.8392527082462885  0.015539891033705677  1.0000
  C   C23       1.0  0.7861678248197359  0.8284815242469998  0.1444787422963706  1.0000
  C   C24       1.0  0.8195936888756074  0.910317290689504  0.23455767828787444  1.0000
  C   C25       1.0  0.875783665095623  0.00423254358273617  0.19595199870790003  1.0000
  C   C26       1.0  0.8976095278780272  0.014631971865949778  0.0664670267678229  1.0000
  O   O1        1.0  0.9112299710847722  0.08851000097261497  0.282716147981695  1.0000
  C   C27       1.0  0.8947566729123928  0.0888140175467762  0.41670863679356496  1.0000
  H   H9        1.0  0.9297975025896001  0.41170629104941403  0.5932734066001797  1.0000
  H   H10       1.0  0.8894831111112337  0.15417886216278487  0.8219131054077129  1.0000
  H   H11       1.0  0.8912642737508045  0.7370482174138868  0.8229319011804499  1.0000
  H   H12       1.0  0.9493690497799596  0.9750515316413808  0.47851738668784294  1.0000
  H   H13       1.0  0.9295879586417521  0.5187605568647673  0.593151940407693  1.0000
  H   H14       1.0  0.780803529713089  0.7758028926895404  0.9470896767210877  1.0000
  H   H15       1.0  0.7428327584525259  0.7566296902024013  0.17461903663804101  1.0000
  H   H16       1.0  0.8013935777878449  0.8998068881298344  0.3337392079583168  1.0000
  H   H17       1.0  0.9415633188462921  0.08608514133242262  0.0378901361653986  1.0000
  H   H18       1.0  0.9079996794239121  0.9928807477988022  0.4684133160087016  1.0000
  H   H19       1.0  0.9309515357465028  0.16504868021266117  0.4618792885145122  1.0000
  H   H20       1.0  0.8335096702443259  0.11105379889988654  0.426142620919542  1.0000
  C   C28       1.0  0.9212954005972355  0.46087067714264984  0.26123554437440966  1.0000
  C   C29       1.0  0.923053210463605  0.5976503110358873  0.2500536005767724  1.0000
  C   C30       1.0  0.9238842058501554  0.6671367029929083  0.12722163650714013  1.0000
  C   C31       1.0  0.9229062812209331  0.5980037605670119  0.01473009169633821  1.0000
  C   C32       1.0  0.9211514981287091  0.4611403502793474  0.023969983855722354  1.0000
  C   C33       1.0  0.9203602171232343  0.39341549685928623  0.147611683292042  1.0000
  C   C34       1.0  0.9257446723799959  0.8118328116710154  0.11636612573088123  1.0000
  C   C35       1.0  0.972820399050239  0.8817231709210542  0.2027719736943796  1.0000
  C   C36       1.0  0.9745774485691698  0.017890113626963355  0.1924260188661624  1.0000
  C   C37       1.0  0.929780133720249  0.08691813676810778  0.09461192688174092  1.0000
  C   C38       1.0  0.8817907073203257  0.01734824630200693  0.009914510357712958  1.0000
  C   C39       1.0  0.8800651499356942  0.8812105888010391  0.020002047664728684  1.0000
  N   N3        1.0  0.9294618398059299  0.2269497722957543  0.08333831348095577  1.0000
  C   C40       1.0  0.9951779484505877  0.30880845303106863  0.11192961942938195  1.0000
  O   O2        1.0  0.061332922917085586  0.26228614634628533  0.12585255631045045  1.0000
  C   C41       1.0  0.9861527223699758  0.45222886000729234  0.11578257107559331  1.0000
  H   H21       1.0  0.9206433077677592  0.4082585675602053  0.5930143346497294  1.0000
  H   H22       1.0  0.9227082924578616  0.6504523262101967  0.33697167119873184  1.0000
  H   H23       1.0  0.9245599376653383  0.6510894449704951  0.9198888933812253  1.0000
  H   H24       1.0  0.91900700357277  0.2879142843346969  0.15552189512354242  1.0000
  H   H25       1.0  0.9183051885553702  0.20282279366181477  0.8341556171586899  1.0000
  H   H26       1.0  0.008736573889569055  0.8310654117911402  0.27790213993410195  1.0000
  H   H27       1.0  0.009970186249040225  0.06877579445908033  0.26234353728292814  1.0000
  H   H28       1.0  0.8458962184401069  0.06888195747681536  0.9353553291645897  1.0000
  H   H29       1.0  0.8421590229774119  0.8301683220319385  0.9535635216383085  1.0000
  H   H30       1.0  0.8797217684524391  0.2722315563994049  0.04432545525021703  1.0000
  H   H31       1.0  0.932203296542036  0.4715865066654219  0.1627927456298044  1.0000
  H   H32       1.0  0.9840816262962957  0.498805573952545  0.014890562271723251  1.0000
  H   H33       1.0  0.03509051638946592  0.4951343912186772  0.17243022721716583  1.0000
  Zn  Zn1       1.0  0.8371592562995256  0.4573343888729544  0.6357396078835233  1.0000
  Zn  Zn2       1.0  0.00528029548985276  0.46467566825867723  0.6494646925763279  1.0000
  C   C42       1.0  0.9211779201744642  0.45591565967258507  0.8797972061163903  1.0000
  C   C43       1.0  0.9212634671711786  0.46609611627224967  0.40540737151941353  1.0000
  C   C44       1.0  0.9211775997412551  0.6981930205370741  0.6374030428083113  1.0000
  C   C45       1.0  0.9212637305054149  0.22381719264171873  0.6478015995418227  1.0000
  O   O3        1.0  0.9850538092484237  0.47063013296737166  0.4590013524261136  1.0000
  O   O4        1.0  0.9849875570342642  0.456952524321671  0.8366198731704313  1.0000
  O   O5        1.0  0.9849864379568406  0.6525945201562557  0.6408848009668549  1.0000
  O   O6        1.0  0.9850548709742168  0.274988143883401  0.6547363225710687  1.0000
  O   O7        1.0  0.857384623443703  0.6470219107444231  0.6304679731982539  1.0000
  O   O8        1.0  0.8573857422486406  0.45138147517207305  0.826202975996972  1.0000
  O   O9        1.0  0.8574519948165917  0.46505903801253523  0.44858289386776073  1.0000
  O   O10       1.0  0.8574530565225568  0.26941703967414354  0.6443179613808088  1.0000
