data_image0
_chemical_formula_structural       NC10NC5H10C16H10C12NCOH11Zn2C4O8
_chemical_formula_sum              "N3 C48 H31 O9 Zn2"
_cell_length_a       19.4436361288709
_cell_length_b       10.29914801576943
_cell_length_c       10.299148425239203
_cell_angle_alpha    85.5134079146002
_cell_angle_beta     89.68967150439464
_cell_angle_gamma    89.43179634642199

_space_group_name_H-M_alt    "P 1"
_space_group_IT_number       1

loop_
  _space_group_symop_operation_xyz
  'x, y, z'

loop_
  _atom_site_type_symbol
  _atom_site_label
  _atom_site_symmetry_multiplicity
  _atom_site_fract_x
  _atom_site_fract_y
  _atom_site_fract_z
  _atom_site_occupancy
  N   N1        1.0  0.6480193766491356  0.41002053985085096  0.5614336698838613  1.0000
  C   C1        1.0  0.5891835869624108  0.41991467996467313  0.5758148419024562  1.0000
  C   C2        1.0  0.5158544806452761  0.43225396723064935  0.5938036676223324  1.0000
  C   C3        1.0  0.4736739324919922  0.40031072835844417  0.49913537193163515  1.0000
  C   C4        1.0  0.3977701488230125  0.41074667139649  0.5044597588746971  1.0000
  C   C5        1.0  0.3580194243611874  0.38593330308317975  0.6115499196590308  1.0000
  C   C6        1.0  0.2819003781814746  0.3898579181539923  0.5985880337854097  1.0000
  C   C7        1.0  0.2413372664494391  0.44746809845220725  0.6923431535388358  1.0000
  C   C8        1.0  0.1696751465512116  0.4511123928695695  0.6817970364806514  1.0000
  C   C9        1.0  0.1375813110702299  0.39675029460449496  0.5777825029515182  1.0000
  C   C10       1.0  0.0637899662829894  0.40045592921623707  0.5670810682494316  1.0000
  N   N2        1.0  0.0044667300627347  0.40343506490820435  0.5584778242214594  1.0000
  C   C11       1.0  0.1774194139667287  0.33843274114858346  0.48441092388953666  1.0000
  C   C12       1.0  0.2490979759978133  0.33473436795269595  0.49470526587117414  1.0000
  C   C13       1.0  0.3861368742777523  0.34539156581805175  0.7426702352031327  1.0000
  C   C14       1.0  0.4448020798802516  0.3884887554132137  0.7898993865230095  1.0000
  C   C15       1.0  0.4890274995138932  0.48639871358653397  0.7154880483694461  1.0000
  H   H1        1.0  0.4957764796639116  0.37124497721401895  0.4088331833258103  1.0000
  H   H2        1.0  0.3730818771497851  0.4332983894379432  0.4112856086312797  1.0000
  H   H3        1.0  0.2652066889843721  0.49071435547339126  0.7731805898222937  1.0000
  H   H4        1.0  0.1393301805578946  0.4963872401480818  0.7547056199465672  1.0000
  H   H5        1.0  0.153078106696193  0.2953819582508157  0.4039079190360624  1.0000
  H   H6        1.0  0.2787769924437218  0.28721554358179713  0.42249394625656933  1.0000
  H   H7        1.0  0.3551583597706041  0.2811313621890905  0.806947114253789  1.0000
  H   H8        1.0  0.4599400399155251  0.3543607352508493  0.8878545131901676  1.0000
  H   H9        1.0  0.45893174479951704  0.5771350170231093  0.6901987178951827  1.0000
  H   H10       1.0  0.5323107732638743  0.5119492386988653  0.7785677405823697  1.0000
  C   C16       1.0  0.8261973432804693  0.025327207593384138  0.5601217112290675  1.0000
  C   C17       1.0  0.8105114394773008  0.035271634148467346  0.42676845369925  1.0000
  C   C18       1.0  0.802608918243115  0.9231830435987242  0.35899048678930945  1.0000
  C   C19       1.0  0.8106033074985325  0.8000182909590424  0.42636307324530764  1.0000
  C   C20       1.0  0.8262953305056565  0.7881182737584612  0.5598010388645613  1.0000
  C   C21       1.0  0.8339969588727384  0.9012910165271585  0.6258587252668015  1.0000
  C   C22       1.0  0.786015293516276  0.9347486501142328  0.2179188213589589  1.0000
  C   C23       1.0  0.8185675997191432  0.8531977750432893  0.13242522295830716  1.0000
  C   C24       1.0  0.8029262236037416  0.864208545590173  0.9996542091872569  1.0000
  C   C25       1.0  0.7545719928710521  0.9566742210336352  0.9505737434974151  1.0000
  C   C26       1.0  0.7218944489102279  0.03820826226487073  0.03478434958315213  1.0000
  C   C27       1.0  0.737486783913597  0.027439654709525918  0.1675767180676233  1.0000
  C   C28       1.0  0.7384945648280313  0.9678856514485632  0.813873324691941  1.0000
  C   C29       1.0  0.7250298920916544  0.9772751165357101  0.6993887020314435  1.0000
  C   C30       1.0  0.7092629193483538  0.9882700540862115  0.5653283761357133  1.0000
  C   C31       1.0  0.6958005064746096  0.997658092503995  0.45086224379573414  1.0000
  H   H11       1.0  0.8321954403238654  0.3489774026199419  0.6114294746375073  1.0000
  H   H12       1.0  0.8053299278807277  0.1304443946686058  0.37489770273732437  1.0000
  H   H13       1.0  0.8036464503898357  0.7132750613708134  0.37500166032323246  1.0000
  H   H14       1.0  0.8460938872853282  0.892904771158187  0.7287183881825972  1.0000
  H   H15       1.0  0.8554872475221083  0.5583588467403111  0.8118399862383365  1.0000
  H   H16       1.0  0.8567698348736439  0.7820723124396882  0.16796064064220806  1.0000
  H   H17       1.0  0.8286670221556124  0.8008368908652264  0.9352614072954175  1.0000
  H   H18       1.0  0.6842394572029799  0.1098885390685278  0.9978744053073858  1.0000
  H   H19       1.0  0.7109443190194685  0.09043664891870584  0.23117332410193714  1.0000
  H   H20       1.0  0.6839794242018176  0.005901582271850003  0.3503513273481671  1.0000
  C   C32       1.0  0.8262980923810422  0.40687764379305635  0.17856465386885523  1.0000
  C   C33       1.0  0.8960849673701935  0.44115024344011045  0.17400160978200852  1.0000
  C   C34       1.0  0.9313590956259523  0.4583149658534189  0.05455690987138029  1.0000
  C   C35       1.0  0.8959399313191726  0.44081274361428147  0.9387458001421329  1.0000
  C   C36       1.0  0.8261945798726797  0.40656785290427067  0.9413580318038579  1.0000
  C   C37       1.0  0.7917828349501206  0.38979210062667846  0.06176979588185927  1.0000
  C   C38       1.0  0.005143671636466118  0.49454776433709546  0.05082277385547118  1.0000
  C   C39       1.0  0.05135283519050082  0.4363182082996624  0.9668656097350019  1.0000
  C   C40       1.0  0.12075082227177192  0.47055243825795645  0.9635011244586336  1.0000
  C   C41       1.0  0.1455643527342263  0.5623748182698782  0.04476564808920802  1.0000
  C   C42       1.0  0.09928716899484114  0.6224520036619381  0.12715420529983712  1.0000
  C   C43       1.0  0.02985811329144883  0.58832502534004  0.130615744714891  1.0000
  N   N3        1.0  0.21699828182212721  0.5972651071261688  0.03762270630012088  1.0000
  C   C44       1.0  0.2565650016387373  0.6332102565250635  0.1460093215580145  1.0000
  O   O1        1.0  0.2332912116226058  0.6194764970299269  0.26056843247298356  1.0000
  H   H21       1.0  0.6946881334943449  0.3414238312596023  0.3945294586749881  1.0000
  H   H22       1.0  0.9233747336811707  0.45284251158231736  0.2636966021782494  1.0000
  H   H23       1.0  0.9226276946867479  0.455712670176309  0.846285142233314  1.0000
  H   H24       1.0  0.737987305940419  0.3633746099202775  0.06449976584470862  1.0000
  H   H25       1.0  0.799370657168673  0.3933600105286481  0.6148896269455202  1.0000
  H   H26       1.0  0.034002898056032294  0.36312272544469737  0.9048674675024468  1.0000
  H   H27       1.0  0.15549735039553614  0.42436867016090796  0.8982771781977874  1.0000
  H   H28       1.0  0.1162470826805988  0.6978194142203142  0.18674806530830823  1.0000
  H   H29       1.0  0.9951930847992326  0.6371737678149552  0.1939453228708048  1.0000
  H   H30       1.0  0.24344989221845892  0.5878363282140628  0.95022403444597  1.0000
  H   H31       1.0  0.3082128544372227  0.6692989682480435  0.1297416318575073  1.0000
  Zn  Zn1       1.0  0.7508823829592218  0.4081166393281159  0.5605881908217567  1.0000
  Zn  Zn2       1.0  0.9016037124555073  0.4053283525301872  0.5593339897019471  1.0000
  C   C45       1.0  0.8262119528395612  0.40145232911493656  0.7971759678886259  1.0000
  C   C46       1.0  0.8262757886406298  0.4119942709990192  0.3227463257259999  1.0000
  C   C47       1.0  0.8262739766364863  0.6439367032299055  0.5546861111193311  1.0000
  C   C48       1.0  0.8262137132031885  0.16950833737544246  0.5652362528229931  1.0000
  O   O2        1.0  0.8834662616267026  0.41264765131064673  0.37065905151069267  1.0000
  O   O3        1.0  0.8834154814118567  0.3986817239883629  0.7483109590128947  1.0000
  O   O4        1.0  0.883464795173177  0.5944909364354272  0.5524986898642441  1.0000
  O   O5        1.0  0.8834168964488094  0.21683844914557793  0.5664712237016465  1.0000
  O   O6        1.0  0.769069147532128  0.5966065436656471  0.5534509572432218  1.0000
  O   O7        1.0  0.7690198339775325  0.40079889168011307  0.7492631564853391  1.0000
  O   O8        1.0  0.7690706144441912  0.4147647743760108  0.37160968748731005  1.0000
  O   O9        1.0  0.7690212492490793  0.21895556288186868  0.5674219570571262  1.0000
