data_image0
_chemical_formula_structural       NC8NC6H8C13OH12C13OH12Zn2C4O8
_chemical_formula_sum              "N2 C44 H32 O10 Zn2"
_cell_length_a       17.457602349358154
_cell_length_b       10.299150109392551
_cell_length_c       10.299153481560891
_cell_angle_alpha    85.56204594622189
_cell_angle_beta     92.89209155736368
_cell_angle_gamma    91.67070309183428

_space_group_name_H-M_alt    "P 1"
_space_group_IT_number       1

loop_
  _space_group_symop_operation_xyz
  'x, y, z'

loop_
  _atom_site_type_symbol
  _atom_site_label
  _atom_site_symmetry_multiplicity
  _atom_site_fract_x
  _atom_site_fract_y
  _atom_site_fract_z
  _atom_site_occupancy
  N   N1        1.0  0.7219121703121848  0.45239008493757593  0.6259220029537695  1.0000
  C   C1        1.0  0.660841114936401  0.40645766921080884  0.6153234097178804  1.0000
  C   C2        1.0  0.5848661395800259  0.3493234625454804  0.6021482997624175  1.0000
  C   C3        1.0  0.526342829558518  0.3895173350388854  0.6770326064864873  1.0000
  C   C4        1.0  0.4518056412831236  0.33450177207637877  0.6644711474951832  1.0000
  C   C5        1.0  0.3896917732025705  0.376940675187349  0.7437765168622337  1.0000
  C   C6        1.0  0.3151319746027788  0.39538843868804063  0.6880046457015798  1.0000
  C   C7        1.0  0.2566087152721575  0.4353984158630124  0.7629969784057786  1.0000
  C   C8        1.0  0.1806102637663946  0.45445120400923855  0.7050093625139862  1.0000
  N   N2        1.0  0.11952042649926858  0.4697632656189583  0.6583874728044012  1.0000
  C   C9        1.0  0.27215313355215404  0.45720398644196525  0.8942696202666018  1.0000
  C   C10       1.0  0.3459282213054532  0.4391453872962816  0.9504289517444937  1.0000
  C   C11       1.0  0.40443992062329  0.3993156557787716  0.8758942833924883  1.0000
  C   C12       1.0  0.4370802898572855  0.23861431066321193  0.5755926834742306  1.0000
  C   C13       1.0  0.4955918979620736  0.19869929339953463  0.5011082843451631  1.0000
  C   C14       1.0  0.5693443942531375  0.2538274549818089  0.5142196640675394  1.0000
  H   H1        1.0  0.538684115396128  0.46474276354961197  0.7436364767900852  1.0000
  H   H2        1.0  0.3027721909656172  0.3803771795952575  0.5859833324948598  1.0000
  H   H3        1.0  0.22729646618272303  0.48811186298856457  0.9530952043475862  1.0000
  H   H4        1.0  0.35777393398598245  0.45571426357976996  0.05207640540156255  1.0000
  H   H5        1.0  0.4609363423613233  0.38434092663301955  0.9220075438629254  1.0000
  H   H6        1.0  0.3806023944183914  0.19327158794426258  0.5649577491632911  1.0000
  H   H7        1.0  0.4837640031672111  0.12458993061155588  0.43330564063692845  1.0000
  H   H8        1.0  0.6142013587819415  0.22205002328487566  0.455905546821469  1.0000
  C   C15       1.0  0.9207922997564418  0.07968038992865778  0.6423050708696252  1.0000
  C   C16       1.0  0.9194027178696635  0.06786675978384005  0.7790031133042334  1.0000
  C   C17       1.0  0.9186313690110909  0.9447393809235237  0.8480427719903498  1.0000
  C   C18       1.0  0.9192547353384073  0.8326048128877289  0.7786276332039523  1.0000
  C   C19       1.0  0.9206476333282074  0.842463214116024  0.6420162609962377  1.0000
  C   C20       1.0  0.9214103856412971  0.9664614536599256  0.5746534984023288  1.0000
  C   C21       1.0  0.9171546440633753  0.9332233233740688  0.9925631311067447  1.0000
  C   C22       1.0  0.8699903770799104  0.8383077700387437  0.056733875598934946  1.0000
  C   C23       1.0  0.8685753623972224  0.8275514700786626  0.19272531366626044  1.0000
  C   C24       1.0  0.9148022410204373  0.9105738768592251  0.26704551805335797  1.0000
  C   C25       1.0  0.9612326113809598  0.006411238593181379  0.20345742475377016  1.0000
  C   C26       1.0  0.9626654350863459  0.01734411362652888  0.0674671521119844  1.0000
  C   C27       1.0  0.9116685076998943  0.9012992397435617  0.4128767417478174  1.0000
  O   O1        1.0  0.8543328457404561  0.9819844957296578  0.44843606100202693  1.0000
  H   H9        1.0  0.9229167597025204  0.30925022744087083  0.38424041128729614  1.0000
  H   H10       1.0  0.9178534786874606  0.15459098009941918  0.8318854928533654  1.0000
  H   H11       1.0  0.9197015870617081  0.7375202105833121  0.8314979337107162  1.0000
  H   H12       1.0  0.9224825986046464  0.9747816472248149  0.46928088202144136  1.0000
  H   H13       1.0  0.921131752074366  0.5187773766763226  0.5894665196246547  1.0000
  H   H14       1.0  0.8332907365430189  0.7736775232034299  0.001628291354791922  1.0000
  H   H15       1.0  0.8312630544843127  0.7546089679525052  0.2400545400958054  1.0000
  H   H16       1.0  0.9965191856047786  0.07253297136340175  0.2591938394366209  1.0000
  H   H17       1.0  3.587847654307197e-06  0.09073345743292349  0.020946683798101162  1.0000
  H   H18       1.0  0.9681091729560402  0.9316084619642442  0.4576554626479006  1.0000
  H   H19       1.0  0.8992070680029609  0.7987465461502501  0.44967203785900833  1.0000
  H   H20       1.0  0.8546336883806166  0.9723538611129842  0.5450878537857253  1.0000
  C   C28       1.0  0.9206541034498337  0.460921504367378  0.26078277985906784  1.0000
  C   C29       1.0  0.8413383790504202  0.43307373803762483  0.2549868372158002  1.0000
  C   C30       1.0  0.8012627670729159  0.41912319357276595  0.13489191577886572  1.0000
  C   C31       1.0  0.8415193290410931  0.43339896836229297  0.019693529278723476  1.0000
  C   C32       1.0  0.9207858455341705  0.4612221486271466  0.023538514775660158  1.0000
  C   C33       1.0  0.9598903919422027  0.4748173489526939  0.14457887168604233  1.0000
  C   C34       1.0  0.7174064833167635  0.3896943291818973  0.1297372428213548  1.0000
  C   C35       1.0  0.6688715512701036  0.45281552426610205  0.03308295156789898  1.0000
  C   C36       1.0  0.5899578297120905  0.42516517162968315  0.02831003823446676  1.0000
  C   C37       1.0  0.5582509768997541  0.3330604054177795  0.11921406698811432  1.0000
  C   C38       1.0  0.6062710166523909  0.2710130784790916  0.21674444843462104  1.0000
  C   C39       1.0  0.6851883834269744  0.29863394067367377  0.22169581983482844  1.0000
  C   C40       1.0  0.4732347296598342  0.3060571863211259  0.11619719042172116  1.0000
  O   O2        1.0  0.43875870509579534  0.39214571741834137  0.19285752236689224  1.0000
  H   H21       1.0  0.0702687352354372  0.5143109736137663  0.47894299670084495  1.0000
  H   H22       1.0  0.810408794301956  0.42395798142722096  0.3439397787559133  1.0000
  H   H23       1.0  0.8110817291372135  0.42101588691272673  0.9270331371755014  1.0000
  H   H24       1.0  0.021030612181134112  0.4962818281689405  0.14826040949918085  1.0000
  H   H25       1.0  0.9512643694647257  0.4720094008612188  0.6975345181825814  1.0000
  H   H26       1.0  0.6917918611879975  0.5250788064913774  0.9623708911879567  1.0000
  H   H27       1.0  0.5535469553794704  0.4758586405636829  0.9538371991017747  1.0000
  H   H28       1.0  0.58264284179262  0.2009254361907229  0.2888377894022247  1.0000
  H   H29       1.0  0.7211382046626974  0.24771981043539504  0.29665429940250854  1.0000
  H   H30       1.0  0.4610774152852791  0.2037305815154664  0.15406037978198772  1.0000
  H   H31       1.0  0.4489481253691141  0.31836233309165807  0.014078427798503768  1.0000
  H   H32       1.0  0.3829906746595645  0.37035386242354185  0.1876076042087873  1.0000
  Zn  Zn1       1.0  0.8366533262245565  0.4574001296027477  0.6352983362234512  1.0000
  Zn  Zn2       1.0  0.004779260192799395  0.46474257655667395  0.6490217763441368  1.0000
  C   C41       1.0  0.9207601985439138  0.4559911928984124  0.879363179210426  1.0000
  C   C42       1.0  0.9206742235146287  0.4661532322283424  0.4049572100656289  1.0000
  C   C43       1.0  0.9206701349593701  0.698278849892503  0.6368952181198031  1.0000
  C   C44       1.0  0.9207642300374436  0.223864012340935  0.6474252363045185  1.0000
  O   O3        1.0  0.9844838928120778  0.47068980209427735  0.4585514420436494  1.0000
  O   O4        1.0  0.9845542230803179  0.45702639043731086  0.836184347261403  1.0000
  O   O5        1.0  0.9844806357361787  0.652676700575662  0.6403896824613176  1.0000
  O   O6        1.0  0.9845574227676456  0.2750394987029574  0.6543460047803806  1.0000
  O   O7        1.0  0.8568751062765789  0.6471032049522587  0.6299741030972388  1.0000
  O   O8        1.0  0.8569486933093153  0.4514544552030184  0.8257686980590893  1.0000
  O   O9        1.0  0.8568783628310304  0.4651178209875366  0.4481342314252683  1.0000
  O   O10       1.0  0.8569518928020382  0.26946750834498  0.6439288915353858  1.0000
