data_image0
_chemical_formula_structural       NC10NC3NCH9C13OH12C15H12Zn2C4O8
_chemical_formula_sum              "N3 C46 H33 O9 Zn2"
_cell_length_a       19.437513618241372
_cell_length_b       10.299150109392551
_cell_length_c       10.299157797200024
_cell_angle_alpha    85.5240492146119
_cell_angle_beta     90.36969697792763
_cell_angle_gamma    89.50394211810362

_space_group_name_H-M_alt    "P 1"
_space_group_IT_number       1

loop_
  _space_group_symop_operation_xyz
  'x, y, z'

loop_
  _atom_site_type_symbol
  _atom_site_label
  _atom_site_symmetry_multiplicity
  _atom_site_fract_x
  _atom_site_fract_y
  _atom_site_fract_z
  _atom_site_occupancy
  N   N1        1.0  0.6473068146567116  0.41100770559472255  0.5751483757563391  1.0000
  C   C1        1.0  0.5883698602867106  0.4280200625890649  0.5721674821145595  1.0000
  C   C2        1.0  0.5149248731408556  0.44927543654986546  0.5684673733751917  1.0000
  C   C3        1.0  0.4731766535203705  0.34808193978682  0.5568352471614508  1.0000
  C   C4        1.0  0.397283185386363  0.3581499922161606  0.5496106618085275  1.0000
  C   C5        1.0  0.35771172256530576  0.4389815106358308  0.6153350812647524  1.0000
  C   C6        1.0  0.2815288311069059  0.4303755744238247  0.6068928126186497  1.0000
  C   C7        1.0  0.24841467115488103  0.3090201603152751  0.6115699519014308  1.0000
  C   C8        1.0  0.1766792577884767  0.30265045247484434  0.6044031923663946  1.0000
  C   C9        1.0  0.1370875495874939  0.4171633099956169  0.5929216788004894  1.0000
  C   C10       1.0  0.0632376774966168  0.4104554563360818  0.5855869103962419  1.0000
  N   N2        1.0  0.0038674783813134  0.40506293194102017  0.5796902148714342  1.0000
  C   C11       1.0  0.1694853550965796  0.5382078641830932  0.5889899489391097  1.0000
  C   C12       1.0  0.2412051462726143  0.5448315601484948  0.596218663825316  1.0000
  C   C13       1.0  0.386403035080265  0.5312410596840025  0.7052353246659269  1.0000
  N   N3        1.0  0.4433724341510114  0.5944656568556148  0.6848123937464239  1.0000
  C   C14       1.0  0.48718547662196127  0.5852447562112721  0.5717001672934403  1.0000
  H   H1        1.0  0.4955731948595857  0.2530230403844542  0.5447394800044638  1.0000
  H   H2        1.0  0.3725653891619451  0.288653753632629  0.4913079728293974  1.0000
  H   H3        1.0  0.2778826707252046  0.2190976626035246  0.6226162942569884  1.0000
  H   H4        1.0  0.1521022254413507  0.20841581026251732  0.6083165934390549  1.0000
  H   H5        1.0  0.1393327787316429  0.6274745658727567  0.5802560825006686  1.0000
  H   H6        1.0  0.2653005848446869  0.6394790381253748  0.5922896881528428  1.0000
  H   H7        1.0  0.3564182766254921  0.5515975036167249  0.7896017391206258  1.0000
  H   H8        1.0  0.5299279876462009  0.6555603039501454  0.5774445476872969  1.0000
  H   H9        1.0  0.45749031014335206  0.6133885282955076  0.4810410595512542  1.0000
  C   C15       1.0  0.8256553191095922  0.026634468975641035  0.577564316484827  1.0000
  C   C16       1.0  0.8244166268778068  0.014811195829926627  0.7143670624393841  1.0000
  C   C17       1.0  0.8237286642661342  0.8916830210277923  0.7834644857051543  1.0000
  C   C18       1.0  0.8242839017563656  0.7795581695329441  0.714001956092974  1.0000
  C   C19       1.0  0.8255255724442642  0.7894259617329676  0.577285651972099  1.0000
  C   C20       1.0  0.826205917147663  0.9134243838500156  0.50986581576579  1.0000
  C   C21       1.0  0.822412250752772  0.8801572155224521  0.928096075462788  1.0000
  C   C22       1.0  0.7801207407902105  0.787962327012408  0.9955826523916389  1.0000
  C   C23       1.0  0.7788592030634937  0.7771983448885673  0.13168054345842406  1.0000
  C   C24       1.0  0.8203176269922693  0.8574627549453526  0.20275795318799117  1.0000
  C   C25       1.0  0.8619510399633887  0.95062206361953  0.1359056016277822  1.0000
  C   C26       1.0  0.8632285481609266  0.9615615765880438  0.999807625263273  1.0000
  C   C27       1.0  0.817515346973128  0.8482745827836725  0.34881685262107276  1.0000
  O   O1        1.0  0.7661009887629877  0.9322955172400199  0.3884048855837393  1.0000
  H   H10       1.0  0.8275464249240141  0.25625173947713353  0.31933702906890393  1.0000
  H   H11       1.0  0.8230302058480852  0.10159096078206886  0.7673610000230184  1.0000
  H   H12       1.0  0.8246874932388879  0.684412166522661  0.7668436222420267  1.0000
  H   H13       1.0  0.827161708087099  0.9217519482681961  0.40441241472286804  1.0000
  H   H14       1.0  0.8259568548476232  0.46574676477155613  0.5246991766342146  1.0000
  H   H15       1.0  0.7472070007682277  0.7255190647952274  0.9430517340363294  1.0000
  H   H16       1.0  0.7454016142576777  0.7064104881889446  0.1816327923252411  1.0000
  H   H17       1.0  0.8935976338470515  0.014639184819351225  0.1891666273341679  1.0000
  H   H18       1.0  0.8967093575247297  0.032794221939221435  0.9506623614052283  1.0000
  H   H19       1.0  0.8681314741769275  0.8752470489445726  0.38963389612790844  1.0000
  H   H20       1.0  0.8063424339929429  0.7464275091789994  0.3864892684611765  1.0000
  H   H21       1.0  0.7663760243659709  0.9225828720815578  0.48504057548626256  1.0000
  C   C28       1.0  0.8255106579791496  0.40813782847760605  0.19603189088173933  1.0000
  C   C29       1.0  0.7538523989336441  0.39135175486479024  0.19530079810615897  1.0000
  C   C30       1.0  0.7176668793803513  0.3827292708781129  0.07778970689175191  1.0000
  C   C31       1.0  0.7540568551581462  0.39113959749773874  0.9600361836577296  1.0000
  C   C32       1.0  0.8256702083827815  0.4079226247888734  0.958818022573416  1.0000
  C   C33       1.0  0.860978934737627  0.4163179757609843  0.07734087713123672  1.0000
  C   C34       1.0  0.6419080511895531  0.3649879884117837  0.07806307458708717  1.0000
  C   C35       1.0  0.6109652395485182  0.27851789493176504  0.9965934741368363  1.0000
  C   C36       1.0  0.539672992366444  0.26191566140927924  0.9968829497099159  1.0000
  C   C37       1.0  0.49805388359876634  0.33079553038271103  0.07915812436649183  1.0000
  C   C38       1.0  0.5286283499655331  0.41811738001731613  0.15964601039991155  1.0000
  C   C39       1.0  0.5999199027403103  0.4347238238101456  0.15950447518386013  1.0000
  C   C40       1.0  0.4212515745109346  0.3152595263518376  0.07712296469363178  1.0000
  C   C41       1.0  0.3902935725128033  0.4095506266439384  0.9792836583516236  1.0000
  C   C42       1.0  0.3648507024979678  0.4870859033012993  0.8988328612602543  1.0000
  H   H22       1.0  0.9608167372333322  0.43902497833696086  0.40476743878545896  1.0000
  H   H23       1.0  0.7261804641320786  0.3831875707627259  0.2864891788436561  1.0000
  H   H24       1.0  0.7262853363331235  0.38636417185032323  0.8690520275554232  1.0000
  H   H25       1.0  0.9162164820922457  0.42925945109075836  0.07711700781186903  1.0000
  H   H26       1.0  0.8532179364820731  0.4143364522337687  0.6308771637477983  1.0000
  H   H27       1.0  0.641981906776682  0.22263072900587666  0.9336365811817662  1.0000
  H   H28       1.0  0.5169058946595264  0.19513417157513624  0.9330582022470866  1.0000
  H   H29       1.0  0.4972099515409268  0.4737020405379646  0.222252899120172  1.0000
  H   H30       1.0  0.6221254816545374  0.5036220722386628  0.2216800637498566  1.0000
  H   H31       1.0  0.4075374287662553  0.21523995252846007  0.0535394279481447  1.0000
  H   H32       1.0  0.3993482684908893  0.3310708853801192  0.17405966778114723  1.0000
  H   H33       1.0  0.3425333216784016  0.5551588951600797  0.8282046466747808  1.0000
  Zn  Zn1       1.0  0.7502025277465382  0.40928868070678903  0.5764665631209105  1.0000
  Zn  Zn2       1.0  0.9009717755485265  0.4067712833789383  0.5783827019539634  1.0000
  C   C43       1.0  0.8256394140210953  0.40278923846185677  0.8146370072842353  1.0000
  C   C44       1.0  0.82553653541739  0.4132723368544313  0.34021240559062127  1.0000
  C   C45       1.0  0.8255454727096668  0.6452436904526655  0.5721627624221217  1.0000
  C   C46       1.0  0.8256304255617204  0.17081632527022417  0.5826867196120149  1.0000
  O   O2        1.0  0.8827613648861697  0.4140345193890618  0.38932787020345194  1.0000
  O   O3        1.0  0.8828449551595473  0.40011542990514704  0.766975474197505  1.0000
  O   O4        1.0  0.8827683253440501  0.5959004786402358  0.5711757956297714  1.0000
  O   O5        1.0  0.882837943232383  0.21824948083145856  0.5851274507331039  1.0000
  O   O6        1.0  0.7683363086125353  0.5978104841147489  0.5697218136810538  1.0000
  O   O7        1.0  0.768412938144984  0.40202699583353874  0.7655214224287912  1.0000
  O   O8        1.0  0.768329347598398  0.41594604049743644  0.3878722569522235  1.0000
  O   O9        1.0  0.7684059259637485  0.22016099262282718  0.5836719348592412  1.0000
