data_image0
_chemical_formula_structural       NC10NC5H10C12ClH9C12OCH12Zn2C4O8
_chemical_formula_sum              "N2 C44 H31 Cl1 O9 Zn2"
_cell_length_a       19.4436361288709
_cell_length_b       10.299768534541528
_cell_length_c       10.299794127170987
_cell_angle_alpha    85.578860457747
_cell_angle_beta     89.69815743819767
_cell_angle_gamma    89.43641405984484

_space_group_name_H-M_alt    "P 1"
_space_group_IT_number       1

loop_
  _space_group_symop_operation_xyz
  'x, y, z'

loop_
  _atom_site_type_symbol
  _atom_site_label
  _atom_site_symmetry_multiplicity
  _atom_site_fract_x
  _atom_site_fract_y
  _atom_site_fract_z
  _atom_site_occupancy
  N   N1        1.0  0.6479702989502314  0.4088728017838792  0.5622228043820023  1.0000
  C   C1        1.0  0.5891359989073873  0.418776137154262  0.5766066251622146  1.0000
  C   C2        1.0  0.5158087543891591  0.4311269298982727  0.5945987479058581  1.0000
  C   C3        1.0  0.47361978226793944  0.3991200083958495  0.4999275938087051  1.0000
  C   C4        1.0  0.3977168321563725  0.4095587125487452  0.5052559363824207  1.0000
  C   C5        1.0  0.3579730989340489  0.38482317174085034  0.6123225590638359  1.0000
  C   C6        1.0  0.2818532449197287  0.38873827929176863  0.5993639268475353  1.0000
  C   C7        1.0  0.2412995575847632  0.4464090608478728  0.6931332870488314  1.0000
  C   C8        1.0  0.1696367991984185  0.4500455768596572  0.6825900154076565  1.0000
  C   C9        1.0  0.1375329058161008  0.3956153386143406  0.5785638789736878  1.0000
  C   C10       1.0  0.0637409134567876  0.3993130795358657  0.5678653349630156  1.0000
  N   N2        1.0  0.004417156633648  0.4022858692193685  0.5592644148817576  1.0000
  C   C11       1.0  0.1773615835979069  0.3372375213827328  0.4851777034829703  1.0000
  C   C12       1.0  0.2490407629989163  0.3335467542927184  0.4954692060078254  1.0000
  C   C13       1.0  0.386098685752342  0.34437769086535996  0.743409591743325  1.0000
  C   C14       1.0  0.444769225069066  0.38750407142083954  0.7906520996329376  1.0000
  C   C15       1.0  0.48899314615637485  0.48535228953243603  0.7162925506920819  1.0000
  H   H1        1.0  0.4957143524639548  0.36999337829210144  0.4096232954526762  1.0000
  H   H2        1.0  0.3730225178246638  0.43204262506808955  0.4121026884403831  1.0000
  H   H3        1.0  0.2651768383994964  0.4897081797853362  0.773980178934309  1.0000
  H   H4        1.0  0.1392991818321016  0.4953675055985305  0.7555098813012624  1.0000
  H   H5        1.0  0.1530124512475901  0.29413409369006915  0.4046652894204168  1.0000
  H   H6        1.0  0.2787123896190704  0.285981552982121  0.42324553600195514  1.0000
  H   H7        1.0  0.355122311676043  0.28016888911594195  0.8076506583881884  1.0000
  H   H8        1.0  0.45991310393878176  0.35344832563313267  0.8885806748286385  1.0000
  H   H9        1.0  0.4588992750033989  0.5760621525143219  0.691046061010923  1.0000
  H   H10       1.0  0.5322822106428446  0.510944842685324  0.7793760213792638  1.0000
  C   C16       1.0  0.8261321473778761  0.024215082723884507  0.5607420230519082  1.0000
  C   C17       1.0  0.8306703898282193  0.03365750966219028  0.4242420081675471  1.0000
  C   C18       1.0  0.8330360744850672  0.9213014755279705  0.3550832047721333  1.0000
  C   C19       1.0  0.8308017503276602  0.7983673692196973  0.4242564071444299  1.0000
  C   C20       1.0  0.8262618898717095  0.7869334431257294  0.5607563734107868  1.0000
  C   C21       1.0  0.8239530183788658  0.9004137142536348  0.6282347764220977  1.0000
  C   C22       1.0  0.8378380711617002  0.9323444269788176  0.2106775606320168  1.0000
  C   C23       1.0  0.7987143736129027  0.026585985549331115  0.13654205484959658  1.0000
  C   C24       1.0  0.8032954304322283  0.0367830011285617  0.0006308345296899276  1.0000
  C   C25       1.0  0.8469338688882331  0.9532613298514362  0.9371638940953431  1.0000
  C   C26       1.0  0.8860463876460742  0.8593317859025968  0.009788344967844642  1.0000
  C   C27       1.0  0.8815874706070583  0.8487402662404365  0.14571319414084138  1.0000
  Cl  Cl1       1.0  0.8526048505673254  0.9663024600954829  0.7666400459649658  1.0000
  H   H11       1.0  0.8243675636845467  0.34807145474351375  0.6127522880402463  1.0000
  H   H12       1.0  0.8333253142885183  0.12860558946124123  0.37148992526855307  1.0000
  H   H13       1.0  0.8316617756805013  0.7115024005273526  0.37130567610337994  1.0000
  H   H14       1.0  0.820451276675912  0.8923611406879104  0.7335382602052078  1.0000
  H   H15       1.0  0.8245593751413761  0.45512233155474663  0.6127739238609635  1.0000
  H   H16       1.0  0.7639361610139189  0.09121808421393895  0.18357191215175983  1.0000
  H   H17       1.0  0.7727615455835659  0.10944496466268627  0.9447751966752067  1.0000
  H   H18       1.0  0.9200576619731036  0.794666756852843  0.9610754563559718  1.0000
  H   H19       1.0  0.9129942147855282  0.7763550503483014  0.2000673545191034  1.0000
  C   C28       1.0  0.8262201944109145  0.4054603809939472  0.17939759399959843  1.0000
  C   C29       1.0  0.7588155206130107  0.35758386675011966  0.18276267196410356  1.0000
  C   C30       1.0  0.7246421431686574  0.3334273954001328  0.06732107464030457  1.0000
  C   C31       1.0  0.7587687999023193  0.3578111943131488  0.9474581726805522  1.0000
  C   C32       1.0  0.8261738588912358  0.40568820886115686  0.9421008296944966  1.0000
  C   C33       1.0  0.8595228138567684  0.42924181783002413  0.05859334957731055  1.0000
  C   C34       1.0  0.6533337844843494  0.2827696240342812  0.07193581691315099  1.0000
  C   C35       1.0  0.6041044800746748  0.3323458834630859  0.9811970650706132  1.0000
  C   C36       1.0  0.5370856849935918  0.2846548807504139  0.985803562831753  1.0000
  C   C37       1.0  0.5183220810800155  0.18706883339711977  0.0806440070929475  1.0000
  C   C38       1.0  0.5668726113424978  0.13610053655528898  0.17225094629000082  1.0000
  C   C39       1.0  0.6339850088021519  0.18442934829153312  0.1671923089163745  1.0000
  O   O1        1.0  0.5506667647656963  0.03782826271358375  0.2692051055023743  1.0000
  C   C40       1.0  0.48472938822161754  0.9797738670453222  0.28578836145240505  1.0000
  H   H20       1.0  0.8519134042677996  0.42364490705136193  0.5055728363087448  1.0000
  H   H21       1.0  0.7323890779365901  0.3406435788439921  0.2752586702134223  1.0000
  H   H22       1.0  0.7329828941837261  0.3376934917191028  0.8583402387323709  1.0000
  H   H23       1.0  0.9115229757250795  0.4661756904098051  0.05522893960418518  1.0000
  H   H24       1.0  0.8518442392668155  0.4239929502795847  0.6126021944872928  1.0000
  H   H25       1.0  0.6171978210398595  0.40916914795454007  0.9077712532990403  1.0000
  H   H26       1.0  0.4994878215729957  0.32374461885021777  0.915778511028742  1.0000
  H   H27       1.0  0.4660645304638904  0.152000728825876  0.08190544514661457  1.0000
  H   H28       1.0  0.6712793942006458  0.14359521869539504  0.23704607770698538  1.0000
  H   H29       1.0  0.4705450695731482  0.9315807973080715  0.1970445706608983  1.0000
  H   H30       1.0  0.48648405099996483  0.9052664691746286  0.3694441790335725  1.0000
  H   H31       1.0  0.44556884872921754  0.05475501782346415  0.3063919434589677  1.0000
  Zn  Zn1       1.0  0.7508331626216519  0.40696848624850657  0.561376588810153  1.0000
  Zn  Zn2       1.0  0.9015542820238917  0.40417958039314117  0.5601213109490366  1.0000
  C   C41       1.0  0.8261801831277445  0.40047154195574675  0.7979335164995627  1.0000
  C   C42       1.0  0.8262089076587082  0.41067813286850363  0.32356449704363266  1.0000
  C   C43       1.0  0.826234134363221  0.6427619927629888  0.5555787902259293  1.0000
  C   C44       1.0  0.826154904723042  0.16838612275033693  0.5659192929516461  1.0000
  O   O2        1.0  0.883402998081288  0.41136521715347496  0.37147185517283776  1.0000
  O   O3        1.0  0.8833799347382333  0.3976667628354116  0.7490730576713431  1.0000
  O   O4        1.0  0.8834227299063397  0.5933193807139476  0.5533699079527818  1.0000
  O   O5        1.0  0.8833601514897718  0.21571260948762783  0.567174907949662  1.0000
  O   O6        1.0  0.7690272417220515  0.5954354581071484  0.554322992231062  1.0000
  O   O7        1.0  0.7689844468204144  0.3997844004926656  0.7500260727367773  1.0000
  O   O8        1.0  0.7690075102964165  0.4134828090881324  0.37242330890713005  1.0000
  O   O9        1.0  0.7689646636945896  0.2178301921627248  0.5681264590472255  1.0000
