data_image0
_chemical_formula_structural       NC10NC3NH7C12NH11C13OH12Zn2C4O8
_chemical_formula_sum              "N4 C42 H30 O9 Zn2"
_cell_length_a       19.210446455230148
_cell_length_b       10.299770795358612
_cell_length_c       10.299153481560891
_cell_angle_alpha    85.5776922204699
_cell_angle_beta     90.00736926035154
_cell_angle_gamma    89.96457025778629

_space_group_name_H-M_alt    "P 1"
_space_group_IT_number       1

loop_
  _space_group_symop_operation_xyz
  'x, y, z'

loop_
  _atom_site_type_symbol
  _atom_site_label
  _atom_site_symmetry_multiplicity
  _atom_site_fract_x
  _atom_site_fract_y
  _atom_site_fract_z
  _atom_site_occupancy
  N   N1        1.0  0.6554751156699262  0.4196426431406193  0.567252331749392  1.0000
  C   C1        1.0  0.5952467884977671  0.42185020361217895  0.5674833891405431  1.0000
  C   C2        1.0  0.5204426243429301  0.4245871742709624  0.5677696403307106  1.0000
  C   C3        1.0  0.4848438925731561  0.5408211118258526  0.5828766564043555  1.0000
  C   C4        1.0  0.4121784158667947  0.5409726273595787  0.5828240524709156  1.0000
  C   C5        1.0  0.3752759426698873  0.425296159979772  0.5678560943719497  1.0000
  C   C6        1.0  0.2979536782070096  0.4239396534488926  0.5677055581554717  1.0000
  C   C7        1.0  0.2601965229153547  0.527485533882645  0.504339172549636  1.0000
  C   C8        1.0  0.1874180360438318  0.5260832879972428  0.5042301561799245  1.0000
  C   C9        1.0  0.1513953049761947  0.42139264854955805  0.5674365176410794  1.0000
  C   C10       1.0  0.0764656565615366  0.4200905400748909  0.567299742511161  1.0000
  N   N2        1.0  0.016227701044843  0.4190436006658511  0.5671898101846007  1.0000
  C   C11       1.0  0.1884288083836773  0.31797244941197156  0.6307778894335063  1.0000
  C   C12       1.0  0.2612091311878824  0.31910045019323574  0.6309371633108938  1.0000
  C   C13       1.0  0.4134847330964139  0.31088255053328195  0.5530371683509234  1.0000
  N   N3        1.0  0.4842549047315918  0.31332754226132553  0.5532026299818871  1.0000
  H   H1        1.0  0.5129541233623188  0.6302574937109984  0.5949214094965649  1.0000
  H   H2        1.0  0.3849191250328725  0.6309913656907176  0.5962635108235479  1.0000
  H   H3        1.0  0.2869209663563578  0.6087191310076641  0.4533449324396406  1.0000
  H   H4        1.0  0.1592689618946244  0.6064896729020697  0.454566349857634  1.0000
  H   H5        1.0  0.1610644566818074  0.23660264875611614  0.6803422508330736  1.0000
  H   H6        1.0  0.2887136019273639  0.2388137658398899  0.6820386972331298  1.0000
  H   H7        1.0  0.3872097534911345  0.2200008898827337  0.5395514987482428  1.0000
  C   C14       1.0  0.8357916608298737  0.0379747138259976  0.5672606757600867  1.0000
  C   C15       1.0  0.8155673120868723  0.04713431607601648  0.43585263450479417  1.0000
  C   C16       1.0  0.8053833173478288  0.9346392818879167  0.36923203744659894  1.0000
  C   C17       1.0  0.8156947108471946  0.8118524654247604  0.4357840589835238  1.0000
  C   C18       1.0  0.8359177999803705  0.8007015736592725  0.5671926510092504  1.0000
  C   C19       1.0  0.8458533638680289  0.9143173743520067  0.6321949637259641  1.0000
  C   C20       1.0  0.7839874349642115  0.9453830141025059  0.23020995680931433  1.0000
  C   C21       1.0  0.7332940392549022  0.036628149361773055  0.18503118874214408  1.0000
  C   C22       1.0  0.7131860818908559  0.04661087486502469  0.054182540388282296  1.0000
  C   C23       1.0  0.7433910615682493  0.9657677613040824  0.9664325691092803  1.0000
  C   C24       1.0  0.7939172794304957  0.8747206515148193  0.010720799592782715  1.0000
  C   C25       1.0  0.8140809944700373  0.8644817964242153  0.14153946500741355  1.0000
  N   N4        1.0  0.722793569663718  0.976110236119482  0.8325994741751992  1.0000
  H   H8        1.0  0.8434684724508229  0.36193679518669497  0.6173503693448557  1.0000
  H   H9        1.0  0.8086102056356632  0.14203193143854187  0.3845011519186623  1.0000
  H   H10       1.0  0.8069904259392567  0.7248190872300134  0.3853729905778702  1.0000
  H   H11       1.0  0.8614550037262019  0.9064831208827799  0.733570448016174  1.0000
  H   H12       1.0  0.8436539961367691  0.4690000704306234  0.6172507126085618  1.0000
  H   H13       1.0  0.7085425626302948  0.09910514719180541  0.25123928365926496  1.0000
  H   H14       1.0  0.6739356587209597  0.11714488047559835  0.021277486372192067  1.0000
  H   H15       1.0  0.8178077785055924  0.8118992702182036  0.9438235747912307  1.0000
  H   H16       1.0  0.8538648290011546  0.794456637319062  0.17300487147281873  1.0000
  H   H17       1.0  0.7450134180934103  0.9162532463669949  0.7664554303579898  1.0000
  H   H18       1.0  0.685172278346128  0.043701134015548204  0.7986709610465459  1.0000
  C   C26       1.0  0.8357949255203895  0.4191908070639778  0.18585416032635327  1.0000
  C   C27       1.0  0.7638230201165671  0.3949301640952607  0.18654028762972508  1.0000
  C   C28       1.0  0.7274580374601515  0.38279206456924686  0.06972057461201464  1.0000
  C   C29       1.0  0.7639873043119207  0.39524718933445846  0.9512322632831087  1.0000
  C   C30       1.0  0.8359145554881491  0.4194854723085544  0.9485991983419524  1.0000
  C   C31       1.0  0.8713983783830301  0.4313121461705225  0.0664437031266798  1.0000
  C   C32       1.0  0.6513659861389958  0.35715567325401665  0.07141905196560727  1.0000
  C   C33       1.0  0.6073519392587303  0.42246532888073585  0.9787532394139276  1.0000
  C   C34       1.0  0.5357448343628346  0.3983839140584713  0.9804295578028865  1.0000
  C   C35       1.0  0.50694638548104  0.3077197590496652  0.07390263786392093  1.0000
  C   C36       1.0  0.5504936371676191  0.24350715512594645  0.16748696393188434  1.0000
  C   C37       1.0  0.6221040393872126  0.2675589171718571  0.1659887972730134  1.0000
  C   C38       1.0  0.42980272730467045  0.28456124105752956  0.07783448579019647  1.0000
  O   O1        1.0  0.3985519625146365  0.37220092742474575  0.15733927452307395  1.0000
  H   H19       1.0  0.9715570738005624  0.4658137525529318  0.3917873713657458  1.0000
  H   H20       1.0  0.7357577846730823  0.38721308214222994  0.27802142429899357  1.0000
  H   H21       1.0  0.7363673401428698  0.3842408142297835  0.861058916244871  1.0000
  H   H22       1.0  0.9268776434447072  0.45001150533203926  0.06512856181148252  1.0000
  H   H23       1.0  0.8635711111825389  0.4288942994320877  0.6201043709432286  1.0000
  H   H24       1.0  0.6281717341447784  0.4936867533063445  0.9061856154534027  1.0000
  H   H25       1.0  0.502726652203293  0.4507188907352786  0.9089497880165873  1.0000
  H   H26       1.0  0.5290323363730504  0.17449318563448424  0.24149438294906234  1.0000
  H   H27       1.0  0.6547038373799737  0.21502413554363797  0.23799187090581864  1.0000
  H   H28       1.0  0.41873796546290076  0.18279250366611954  0.11666436046721596  1.0000
  H   H29       1.0  0.4077718421567577  0.29796306231791725  0.9777062520277684  1.0000
  H   H30       1.0  0.3479467308633893  0.35293141202150036  0.15664638723779611  1.0000
  Zn  Zn1       1.0  0.7595805188879157  0.4194663112705539  0.5672417888233059  1.0000
  Zn  Zn2       1.0  0.9121222818045946  0.41920935411107085  0.5672109899318034  1.0000
  C   C39       1.0  0.8358895210077942  0.41425610476281394  0.8044245278484992  1.0000
  C   C40       1.0  0.8358149457270179  0.424421196479535  0.330028377891906  1.0000
  C   C41       1.0  0.8358895665506302  0.6565279612854071  0.5620303278491423  1.0000
  C   C42       1.0  0.8358148478851466  0.18214777977082863  0.5724226472801175  1.0000
  O   O2        1.0  0.8937104678030177  0.42607338331068934  0.3784028748407826  1.0000
  O   O3        1.0  0.893769667188762  0.4124079135275458  0.7560262814913505  1.0000
  O   O4        1.0  0.8937689238081808  0.6080455034515677  0.5602912500499042  1.0000
  O   O5        1.0  0.8937111591176939  0.23043580272694109  0.5741378089163207  1.0000
  O   O6        1.0  0.7779915895197983  0.608239862743782  0.5603149698424674  1.0000
  O   O7        1.0  0.7779923331443966  0.41260383309497084  0.7560499318987381  1.0000
  O   O8        1.0  0.7779331335526009  0.4262692570189215  0.378424963836719  1.0000
  O   O9        1.0  0.7779338248781639  0.2306316671839974  0.5741599952818448  1.0000
