data_image0
_chemical_formula_structural       NC12NC2H8C12OCH12C12NH11Zn2C4O8
_chemical_formula_sum              "N3 C43 H31 O9 Zn2"
_cell_length_a       19.240039667572717
_cell_length_b       10.29979075500242
_cell_length_c       10.299774167527174
_cell_angle_alpha    85.5728606880388
_cell_angle_beta     89.99323073403258
_cell_angle_gamma    89.9807799165636

_space_group_name_H-M_alt    "P 1"
_space_group_IT_number       1

loop_
  _space_group_symop_operation_xyz
  'x, y, z'

loop_
  _atom_site_type_symbol
  _atom_site_label
  _atom_site_symmetry_multiplicity
  _atom_site_fract_x
  _atom_site_fract_y
  _atom_site_fract_z
  _atom_site_occupancy
  N   N1        1.0  0.6543125699595738  0.4208516561458726  0.5674450567955351  1.0000
  C   C1        1.0  0.594164201132398  0.4208517401029612  0.5674449748581489  1.0000
  C   C2        1.0  0.5193461639788636  0.42085185734825825  0.567444837553869  1.0000
  C   C3        1.0  0.4828774813793546  0.3564168740582223  0.6708553378697444  1.0000
  C   C4        1.0  0.4102067477130298  0.3563060183754325  0.6709418815812327  1.0000
  C   C5        1.0  0.3730139290393202  0.4208519498468777  0.5674446098778827  1.0000
  C   C6        1.0  0.4101967887069339  0.48539806836050303  0.4639475326975253  1.0000
  C   C7        1.0  0.4828674916388682  0.48528697721475433  0.4640341989153838  1.0000
  C   C8        1.0  0.2958088386198575  0.42085187115828115  0.5674445144703333  1.0000
  C   C9        1.0  0.2586387182736666  0.3076036842152794  0.6093186145377549  1.0000
  C   C10       1.0  0.1859680164731125  0.30771055750287757  0.6092272882387093  1.0000
  C   C11       1.0  0.1494765517160014  0.42085174200358977  0.5674445753838706  1.0000
  C   C12       1.0  0.0746585145657361  0.42085162833336387  0.5674448240387986  1.0000
  N   N2        1.0  0.0145101977077766  0.420851587570479  0.5674450324507012  1.0000
  C   C13       1.0  0.1859325978052339  0.5339930023162702  0.5256618096371364  1.0000
  C   C14       1.0  0.2586032805846404  0.5341000556769202  0.5255703207424653  1.0000
  H   H1        1.0  0.5105961997905564  0.3065301050519267  0.7515952992642365  1.0000
  H   H2        1.0  0.383117079480732  0.30721765498407794  0.7527972629591129  1.0000
  H   H3        1.0  0.3830999261494638  0.5344864587894267  0.3820921004722426  1.0000
  H   H4        1.0  0.5105785446912977  0.5351736460389585  0.38329451330859765  1.0000
  H   H5        1.0  0.2857460303815826  0.21845768378800368  0.6404889484512879  1.0000
  H   H6        1.0  0.1582669845752531  0.21946403332289188  0.6414305011113048  1.0000
  H   H7        1.0  0.15820380625878866  0.6222395019637157  0.49345861131545643  1.0000
  H   H8        1.0  0.2856824472825498  0.6232461352675178  0.4943999420557481  1.0000
  C   C15       1.0  0.8344771780026584  0.03948388767132993  0.5674839767312447  1.0000
  C   C16       1.0  0.8143502109874902  0.028355100995026472  0.6989164278249675  1.0000
  C   C17       1.0  0.8040965715107852  0.9055797654631701  0.765481100494422  1.0000
  C   C18       1.0  0.8142253491670534  0.7930727891250032  0.6988506455712724  1.0000
  C   C19       1.0  0.8343522853872589  0.8022093607682339  0.5674172620026778  1.0000
  C   C20       1.0  0.8443671181118123  0.9258562652620658  0.5024705368876996  1.0000
  C   C21       1.0  0.7828076147916601  0.8948602434063546  0.9045305101478256  1.0000
  C   C22       1.0  0.7320926353772784  0.804006810837654  0.949594147295348  1.0000
  C   C23       1.0  0.7121186310057754  0.7941915160094752  0.08032760617500201  1.0000
  C   C24       1.0  0.7424098772185285  0.8745615836728479  0.16767203557452148  1.0000
  C   C25       1.0  0.7933097701938994  0.9660246320816999  0.12448002408477954  1.0000
  C   C26       1.0  0.8130683430568071  0.9754785899364375  0.9932198880765171  1.0000
  O   O1        1.0  0.8254310312908553  0.04874833439979387  0.20834486056728563  1.0000
  C   C27       1.0  0.8105219894758776  0.049763725216176224  0.34367517633526923  1.0000
  H   H9        1.0  0.8421768299193286  0.3711759163871522  0.5174238620800742  1.0000
  H   H10       1.0  0.8056797680739703  0.1153955064730332  0.7493430333150717  1.0000
  H   H11       1.0  0.807293484820413  0.6981869915684683  0.7502163237513009  1.0000
  H   H12       1.0  0.859894757700643  0.9336732575206419  0.4010759538660327  1.0000
  H   H13       1.0  0.8419869848807406  0.47823934329528744  0.5173195138755333  1.0000
  H   H14       1.0  0.707237475068799  0.7417593516449952  0.8833874561176225  1.0000
  H   H15       1.0  0.6728634444822194  0.7242308587288762  0.11400497023316658  1.0000
  H   H16       1.0  0.725932676858836  0.8648401289024394  0.2683343200277972  1.0000
  H   H17       1.0  0.8528842199724619  0.04501345842795379  0.9610553167964393  1.0000
  H   H18       1.0  0.8225248340832108  0.9532487749814988  0.39429558839272394  1.0000
  H   H19       1.0  0.8433168614407794  0.12441449040050578  0.3858876785564579  1.0000
  H   H20       1.0  0.7550376168229126  0.07467841346364223  0.35811005398581996  1.0000
  C   C28       1.0  0.834438387147065  0.420732118599106  0.18609856186740492  1.0000
  C   C29       1.0  0.7663773294647198  0.37143038131948436  0.188923647277639  1.0000
  C   C30       1.0  0.7318658989249146  0.3465646181625992  0.07320731100700573  1.0000
  C   C31       1.0  0.7663295427822832  0.3716616817967653  0.9536189160303477  1.0000
  C   C32       1.0  0.8343910429366119  0.420961192584661  0.9488026864528107  1.0000
  C   C33       1.0  0.8680642274340846  0.4452208418889345  0.06556172911340608  1.0000
  C   C34       1.0  0.6598612444073321  0.29440680425734467  0.07724943623669  1.0000
  C   C35       1.0  0.6403443279894494  0.1959531874916114  0.1725567851787866  1.0000
  C   C36       1.0  0.5725703099761192  0.14691777697317554  0.17622752415380272  1.0000
  C   C37       1.0  0.5232411364257293  0.19544333995400165  0.08491869023315979  1.0000
  C   C38       1.0  0.5422994765464239  0.2935067970715186  0.9897707401600879  1.0000
  C   C39       1.0  0.6100526080789735  0.34264346918954147  0.9858337122348284  1.0000
  N   N3        1.0  0.45392405473084235  0.14523188106793983  0.08880973244176649  1.0000
  H   H21       1.0  0.8603845952643253  0.4394646717618824  0.5124796803243117  1.0000
  H   H22       1.0  0.7396964998286598  0.3539272877360182  0.281210865415394  1.0000
  H   H23       1.0  0.7403037529079123  0.35098618937797044  0.8642903125140577  1.0000
  H   H24       1.0  0.9205703508900568  0.48325397552456084  0.06261431874492263  1.0000
  H   H25       1.0  0.860315118457606  0.43980162087592656  0.6195098733033215  1.0000
  H   H26       1.0  0.6777377059016726  0.15568509977872735  0.2432101179607482  1.0000
  H   H27       1.0  0.5585623103397038  0.07087132427387055  0.25005252190570304  1.0000
  H   H28       1.0  0.5046162255285237  0.3321095787517565  0.9188474998735527  1.0000
  H   H29       1.0  0.6232479601873605  0.41955641458964044  0.9123406567213665  1.0000
  H   H30       1.0  0.4167894545163912  0.18078821822834246  0.02114209002463663  1.0000
  H   H31       1.0  0.4392273999480966  0.07213069175673414  0.15938733791698878  1.0000
  Zn  Zn1       1.0  0.7582578339053291  0.4208481714136696  0.5674525381685023  1.0000
  Zn  Zn2       1.0  0.9105649536102971  0.4208444820377679  0.567448150435663  1.0000
  C   C40       1.0  0.8343992975259852  0.41574420321749406  0.8046357576155878  1.0000
  C   C41       1.0  0.8344251529023815  0.4259500888464798  0.3302650582582607  1.0000
  C   C42       1.0  0.8343726191854776  0.6580364807483976  0.5622549672479542  1.0000
  C   C43       1.0  0.8344517795223526  0.18365625103984184  0.5726459179993466  1.0000
  O   O2        1.0  0.8922204704696721  0.4276942215053121  0.37864698679772  1.0000
  O   O3        1.0  0.8922015598515584  0.41399629057596554  0.7562501251445299  1.0000
  O   O4        1.0  0.8921792375020191  0.6096503693106139  0.5605259219427767  1.0000
  O   O5        1.0  0.8922427408516295  0.23204015203287587  0.5743710926297889  1.0000
  O   O6        1.0  0.7765799946890518  0.6096525014212324  0.5605295959690424  1.0000
  O   O7        1.0  0.7766023167841826  0.4139999829649885  0.7562537297920093  1.0000
  O   O8        1.0  0.7766212275528273  0.4276978681696382  0.3786490301173895  1.0000
  O   O9        1.0  0.7766434979274216  0.2320437894376599  0.5743732333138087  1.0000
