data_image0
_chemical_formula_structural       NC10NC5H10C12OCH12C13OH12Zn2C4O8
_chemical_formula_sum              "N2 C45 H34 O10 Zn2"
_cell_length_a       19.4436361288709
_cell_length_b       10.29979075500242
_cell_length_c       10.299153481560891
_cell_angle_alpha    85.5777986716743
_cell_angle_beta     89.72153825952512
_cell_angle_gamma    89.4004616021446

_space_group_name_H-M_alt    "P 1"
_space_group_IT_number       1

loop_
  _space_group_symop_operation_xyz
  'x, y, z'

loop_
  _atom_site_type_symbol
  _atom_site_label
  _atom_site_symmetry_multiplicity
  _atom_site_fract_x
  _atom_site_fract_y
  _atom_site_fract_z
  _atom_site_occupancy
  N   N1        1.0  0.6471921377873694  0.40876783429885877  0.5619979172519902  1.0000
  C   C1        1.0  0.5883576507633594  0.4186725147993877  0.5763814694137377  1.0000
  C   C2        1.0  0.515030184608398  0.43102498965737035  0.5943732600237583  1.0000
  C   C3        1.0  0.4728314229016931  0.399009622628236  0.49970039244568265  1.0000
  C   C4        1.0  0.3969261545684353  0.40944890829794156  0.5050279250322862  1.0000
  C   C5        1.0  0.357213734029771  0.38472216973722095  0.6121028800927895  1.0000
  C   C6        1.0  0.2810897840966742  0.38863622324822655  0.5991431426980411  1.0000
  C   C7        1.0  0.2405371665673339  0.4463156891235145  0.6929114748046394  1.0000
  C   C8        1.0  0.1688709258352653  0.44995135310403067  0.6823672566344625  1.0000
  C   C9        1.0  0.136762673640524  0.3955115980077315  0.5783412586711862  1.0000
  C   C10       1.0  0.0629671451027659  0.39920847444427565  0.5676417533869826  1.0000
  N   N2        1.0  0.003640545409614  0.40218056913979705  0.5590400605001706  1.0000
  C   C11       1.0  0.1765905991445774  0.3371251203561365  0.4849562060047694  1.0000
  C   C12       1.0  0.2482732246026968  0.33343518321677146  0.4952486472623474  1.0000
  C   C13       1.0  0.3853810337478042  0.34428734098818414  0.7432011808031744  1.0000
  C   C14       1.0  0.4440474378474912  0.38741826982049443  0.7904416940694334  1.0000
  C   C15       1.0  0.48822281441629284  0.4852613663103156  0.7160678924590966  1.0000
  H   H1        1.0  0.4949161887049536  0.369874953819753  0.4093943123130972  1.0000
  H   H2        1.0  0.3722042768341651  0.4319251742632473  0.4118673264724042  1.0000
  H   H3        1.0  0.2644175037324126  0.4896222166119577  0.7737581544343668  1.0000
  H   H4        1.0  0.1385339828907238  0.49528004104419976  0.7552862732677808  1.0000
  H   H5        1.0  0.1522384175891312  0.29401431496649  0.40444400158246796  1.0000
  H   H6        1.0  0.27794507217083764  0.2858632543412176  0.42302609923550416  1.0000
  H   H7        1.0  0.3544398468464142  0.28008321379248846  0.8074524277355688  1.0000
  H   H8        1.0  0.45922375426135853  0.35337043448667393  0.8883790901311166  1.0000
  H   H9        1.0  0.45809336442085324  0.5759701971253086  0.6908105306707695  1.0000
  H   H10       1.0  0.5315169853525147  0.5108595995119984  0.7791520573319746  1.0000
  C   C16       1.0  0.8254814458212361  0.02410526059429996  0.5605574239543114  1.0000
  C   C17       1.0  0.8055923992721018  0.013355368698020564  0.6921619614394525  1.0000
  C   C18       1.0  0.7954598828082804  0.8907730279153637  0.7588142827539244  1.0000
  C   C19       1.0  0.8054688228959352  0.7780753348577385  0.6920972010734578  1.0000
  C   C20       1.0  0.8253578387690037  0.7868330122073693  0.5604917313179691  1.0000
  C   C21       1.0  0.835254384060689  0.910291422358785  0.4954594023985688  1.0000
  C   C22       1.0  0.7744225886768119  0.8804542777463487  0.898045715360398  1.0000
  C   C23       1.0  0.7242452392537546  0.7905320178642735  0.9435281332149761  1.0000
  C   C24       1.0  0.7045074120275169  0.7810927629406339  0.07443238619735537  1.0000
  C   C25       1.0  0.7345022486853776  0.8609160601859764  0.16153260874997577  1.0000
  C   C26       1.0  0.7848629916601594  0.9514447082953508  0.1179203951822605  1.0000
  C   C27       1.0  0.8043875158830233  0.9605265226589249  0.9864912067722231  1.0000
  O   O1        1.0  0.8166680423852198  0.033587886922631816  0.2015258173057326  1.0000
  C   C28       1.0  0.8019434512714555  0.03488706912906303  0.3369855747552981  1.0000
  H   H11       1.0  0.8330901278614239  0.35565235969158726  0.5104314883654486  1.0000
  H   H12       1.0  0.7970231103158925  0.10055848755830854  0.7426623784847299  1.0000
  H   H13       1.0  0.7986202189534615  0.6833205332531308  0.7435224632218973  1.0000
  H   H14       1.0  0.8505984724943986  0.9178161035207303  0.39393205760425065  1.0000
  H   H15       1.0  0.8329022363287065  0.46271924985328367  0.5103286936564153  1.0000
  H   H16       1.0  0.6996344759733893  0.7287336549476922  0.8775221066097643  1.0000
  H   H17       1.0  0.665668109871315  0.7118527671783976  0.10843383892573466  1.0000
  H   H18       1.0  0.7182183249710509  0.8515042215871313  0.2623354142920229  1.0000
  H   H19       1.0  0.8437819994171819  0.02933060036638735  0.9539980211681764  1.0000
  H   H20       1.0  0.8138323063623955  0.9381567799556676  0.38751005045349596  1.0000
  H   H21       1.0  0.8344060942185518  0.1089415636066784  0.3789309716924133  1.0000
  H   H22       1.0  0.7470397292358134  0.060817630730418015  0.3518768087730504  1.0000
  C   C29       1.0  0.8253605859101053  0.4053228111611664  0.1791525535198777  1.0000
  C   C30       1.0  0.7542553192984927  0.3822567563061081  0.180416198443212  1.0000
  C   C31       1.0  0.7183281810141552  0.37072224244357743  0.06388828617711084  1.0000
  C   C32       1.0  0.7544175401244674  0.3825710557972517  0.9451068569928842  1.0000
  C   C33       1.0  0.8254786925842624  0.4056154917986079  0.9418966327145899  1.0000
  C   C34       1.0  0.8605352861459975  0.4168532054104699  0.0594564072947783  1.0000
  C   C35       1.0  0.6431523763369001  0.34634882538584155  0.06619734212051243  1.0000
  C   C36       1.0  0.5996422304079283  0.4123893429803063  0.9738850588353278  1.0000
  C   C37       1.0  0.5288973533018017  0.38949646154390716  0.976135967855321  1.0000
  C   C38       1.0  0.500472027921667  0.2993099815677627  0.06983977778949257  1.0000
  C   C39       1.0  0.5435205911935341  0.23437426850642296  0.16307432575234082  1.0000
  C   C40       1.0  0.6142687359328844  0.25723744231558143  0.16100154186915527  1.0000
  C   C41       1.0  0.4242563572239268  0.2774319036110058  0.07439065503556375  1.0000
  O   O2        1.0  0.3933499382438506  0.3655906787485024  0.1541466368214779  1.0000
  H   H23       1.0  0.9594876950642535  0.44969238288691504  0.38399638445870155  1.0000
  H   H24       1.0  0.7265274596960637  0.3750055074300003  0.272122544073105  1.0000
  H   H25       1.0  0.7271307096487772  0.37202310952945417  0.8551551308876304  1.0000
  H   H26       1.0  0.9153465066514592  0.4346317209350541  0.05769608874654897  1.0000
  H   H27       1.0  0.8528021979899143  0.4145652763567469  0.6131798837073186  1.0000
  H   H28       1.0  0.620190428718789  0.48326545547141264  0.9011506539458445  1.0000
  H   H29       1.0  0.49625609678331867  0.44237972492505495  0.9049214210892593  1.0000
  H   H30       1.0  0.5223378226582036  0.16571626826046892  0.23725368390120738  1.0000
  H   H31       1.0  0.6464966653250249  0.20416131808124405  0.23274274942611295  1.0000
  H   H32       1.0  0.4133567416720745  0.1758464301707401  0.11330888588567367  1.0000
  H   H33       1.0  0.402483974104718  0.2911994756051577  0.9744392930103563  1.0000
  H   H34       1.0  0.3433547815833661  0.34716109910710635  0.15385980680385192  1.0000
  Zn  Zn1       1.0  0.7500554515104348  0.4068634233801318  0.5611518561863598  1.0000
  Zn  Zn2       1.0  0.9007772265748006  0.40407437647496924  0.5598968037463439  1.0000
  C   C42       1.0  0.8254556589625344  0.40038651907366063  0.7977221402151837  1.0000
  C   C43       1.0  0.8253786647539347  0.4105528889934902  0.3233266333388527  1.0000
  C   C44       1.0  0.8253768445932775  0.6426593354473604  0.555329001937932  1.0000
  C   C45       1.0  0.8254574279560088  0.16827851329561905  0.5657198414178559  1.0000
  O   O3        1.0  0.8825828612412121  0.4112440563851658  0.3712364861999924  1.0000
  O   O4        1.0  0.8826458023855498  0.3975775497492471  0.7488593578272249  1.0000
  O   O5        1.0  0.8825813879365789  0.5932159277152553  0.5531251900011089  1.0000
  O   O6        1.0  0.8826472242424691  0.21560568862372653  0.5669705570781054  1.0000
  O   O7        1.0  0.7681854024088206  0.5953321121845501  0.5540781032760544  1.0000
  O   O8        1.0  0.7682498165910282  0.39969529449588936  0.749812201721876  1.0000
  O   O9        1.0  0.7681868752580249  0.4133617552758533  0.3721877686846451  1.0000
  O   O10       1.0  0.7682512382730496  0.21772337826302102  0.5679219369322177  1.0000
