data_image0
_chemical_formula_structural       NC10NC5H10C12NH11C12NCOCH13Zn2C4O8
_chemical_formula_sum              "N4 C45 H34 O9 Zn2"
_cell_length_a       19.4436361288709
_cell_length_b       10.299770795358612
_cell_length_c       10.299158637457994
_cell_angle_alpha    85.57628442395506
_cell_angle_beta     89.6864852280966
_cell_angle_gamma    89.43566516156574

_space_group_name_H-M_alt    "P 1"
_space_group_IT_number       1

loop_
  _space_group_symop_operation_xyz
  'x, y, z'

loop_
  _atom_site_type_symbol
  _atom_site_label
  _atom_site_symmetry_multiplicity
  _atom_site_fract_x
  _atom_site_fract_y
  _atom_site_fract_z
  _atom_site_occupancy
  N   N1        1.0  0.6481165635705078  0.40878932339692997  0.56198582964912  1.0000
  C   C1        1.0  0.5892806406485838  0.4186936938127268  0.5763693975220856  1.0000
  C   C2        1.0  0.5159513663837416  0.4310457809447674  0.5943612079462994  1.0000
  C   C3        1.0  0.4737728550425417  0.3990323233551192  0.49968809151100446  1.0000
  C   C4        1.0  0.3978692587216833  0.40947146732727546  0.505015600235108  1.0000
  C   C5        1.0  0.3581141003542857  0.38474281079710626  0.6120911038887706  1.0000
  C   C6        1.0  0.2819956230358573  0.38865709279536875  0.5991312960567272  1.0000
  C   C7        1.0  0.24143140183987893  0.446334564506232  0.6928997607939067  1.0000
  C   C8        1.0  0.1697697605462604  0.4499704125983677  0.6823554833372667  1.0000
  C   C9        1.0  0.1376774897390676  0.3955328319528171  0.5783292963707938  1.0000
  C   C10       1.0  0.0638866308730641  0.3992298951820268  0.5676297308933804  1.0000
  N   N2        1.0  0.0045637853030559  0.4022021400462652  0.5590279896149941  1.0000
  C   C11       1.0  0.17751666460588983  0.33714834405248695  0.4849441157489367  1.0000
  C   C12       1.0  0.24919475452832904  0.3334582277571483  0.4952366154958281  1.0000
  C   C13       1.0  0.3862257663753271  0.34430567404778123  0.7431901208165586  1.0000
  C   C14       1.0  0.4448909049741878  0.38743554242543143  0.7904306392123694  1.0000
  C   C15       1.0  0.4891222244621116  0.4852796512880915  0.7160561029137038  1.0000
  H   H1        1.0  0.4958773941607738  0.36989947034652326  0.4093817678448415  1.0000
  H   H2        1.0  0.37318487842661885  0.4319493982052638  0.41185452015096424  1.0000
  H   H3        1.0  0.2652996432054119  0.48963939810650703  0.7737465829412435  1.0000
  H   H4        1.0  0.1394239483552768  0.4952975478948358  0.7552746010320017  1.0000
  H   H5        1.0  0.1531765341968676  0.29403922547748707  0.4044317693260626  1.0000
  H   H6        1.0  0.2788745155325048  0.2858878473063984  0.4230139791048819  1.0000
  H   H7        1.0  0.35524286545094497  0.2801005916917263  0.8074419133537913  1.0000
  H   H8        1.0  0.4600244098587697  0.3533859981214269  0.8883685871643716  1.0000
  H   H9        1.0  0.45903048283503467  0.5759885979976829  0.6907982396346604  1.0000
  H   H10       1.0  0.5324042901124658  0.5108765952460195  0.7791404149117762  1.0000
  C   C16       1.0  0.8262811307577088  0.024128301961993115  0.5605470167392894  1.0000
  C   C17       1.0  0.8063407206208141  0.0336260843062659  0.4293007487396776  1.0000
  C   C18       1.0  0.7962998492650806  0.921301349575907  0.36276161094612003  1.0000
  C   C19       1.0  0.8064666211660371  0.7983421202416717  0.4292311504789976  1.0000
  C   C20       1.0  0.826405786547398  0.7868530692799468  0.5604779793604928  1.0000
  C   C21       1.0  0.836201716211238  0.9003027247120077  0.6254008199779995  1.0000
  C   C22       1.0  0.7752043538096988  0.9324028516434136  0.22391067457808655  1.0000
  C   C23       1.0  0.7251305915610327  0.02449030216086001  0.17913856808053374  1.0000
  C   C24       1.0  0.7053050025106526  0.034809265234230446  0.04845076116593283  1.0000
  C   C25       1.0  0.7351779314897673  0.9534664284198305  0.9604580146321391  1.0000
  C   C26       1.0  0.7850867995729792  0.8615797951408691  0.004340921595347824  1.0000
  C   C27       1.0  0.8049674905763856  0.8510037775175582  0.13499829795602936  1.0000
  N   N3        1.0  0.7148696170918812  0.9641533228282435  0.8267896776994577  1.0000
  H   H11       1.0  0.8338500963473402  0.34796201208669775  0.6105753048663263  1.0000
  H   H12       1.0  0.7994832797138929  0.1286401482052817  0.37800489032425744  1.0000
  H   H13       1.0  0.7978825487143482  0.7114541744633167  0.3788897323478666  1.0000
  H   H14       1.0  0.8515843165677707  0.8922075893986018  0.7266515077761695  1.0000
  H   H15       1.0  0.8340334381997467  0.45502220968116186  0.6104741587727058  1.0000
  H   H16       1.0  0.7006530601459257  0.08737690560466027  0.24554558180105635  1.0000
  H   H17       1.0  0.6665336711019836  0.10599541199336149  0.01586058191856954  1.0000
  H   H18       1.0  0.8087138519740383  0.7983631126559555  0.9372516850592807  1.0000
  H   H19       1.0  0.8442663337909343  0.7803176502222097  0.16614454276285584  1.0000
  H   H20       1.0  0.7368457131019618  0.9039287489999666  0.7604670332966061  1.0000
  H   H21       1.0  0.6777083063467798  0.03236933902366457  0.793162960294703  1.0000
  C   C28       1.0  0.8264079215072718  0.4053515221351982  0.17913890710910452  1.0000
  C   C29       1.0  0.8280283027576217  0.5420246955259069  0.16779973746177967  1.0000
  C   C30       1.0  0.8287958998727581  0.6114607397104279  0.04489342454694101  1.0000
  C   C31       1.0  0.8278966971615106  0.5423869969901405  0.9324893188759806  1.0000
  C   C32       1.0  0.8262790021156982  0.4056298651565662  0.9418861675574997  1.0000
  C   C33       1.0  0.8255475819389123  0.33795295950411286  0.06559866944406778  1.0000
  C   C34       1.0  0.8305108886378368  0.756044170841792  0.033871506194080414  1.0000
  C   C35       1.0  0.8727365711982261  0.8230976688737224  0.11608245679420226  1.0000
  C   C36       1.0  0.8743560713737015  0.9591581993216809  0.10557934655153334  1.0000
  C   C37       1.0  0.8342181808387801  0.03088524542736515  0.011756529481172118  1.0000
  C   C38       1.0  0.7911734796276746  0.9642072705885589  0.9313354223511601  1.0000
  C   C39       1.0  0.7895822213780833  0.828174127646661  0.9415773088989305  1.0000
  N   N4        1.0  0.8339784136714378  0.1709355047883765  0.0005106631597693312  1.0000
  C   C40       1.0  0.8929189139201382  0.24883408630279868  0.023246104332384387  1.0000
  O   O1        1.0  0.9522110651658257  0.19832574521712099  0.031274634958281755  1.0000
  C   C41       1.0  0.884874569391318  0.39279774656922894  0.027902602441215674  1.0000
  H   H22       1.0  0.8258062013755039  0.35277891350929425  0.5109760314909648  1.0000
  H   H23       1.0  0.8277362741407246  0.5948472846452588  0.2547483098540704  1.0000
  H   H24       1.0  0.8293964635275127  0.595372828573626  0.8375005420022728  1.0000
  H   H25       1.0  0.8243000984839822  0.23253370420415886  0.07362991923777251  1.0000
  H   H26       1.0  0.8236432308654569  0.14748483931392764  0.7523265481635226  1.0000
  H   H27       1.0  0.904918585196771  0.7702759538635715  0.18801260427693212  1.0000
  H   H28       1.0  0.9061018813779036  0.007911061772690964  0.17234304090731123  1.0000
  H   H29       1.0  0.7590111920036242  0.01790362746640195  0.8599743237898063  1.0000
  H   H30       1.0  0.7555831312463359  0.7794161260831853  0.8785165582782888  1.0000
  H   H31       1.0  0.7894016603832171  0.21921423560196418  0.9659295986387564  1.0000
  H   H32       1.0  0.8365157322654543  0.41540608061455586  0.07971975068840198  1.0000
  H   H33       1.0  0.8830330125123919  0.4394990713290592  0.9271949304346241  1.0000
  H   H34       1.0  0.928760793754194  0.43275432325461827  0.08018956363143093  1.0000
  Zn  Zn1       1.0  0.7509795315085932  0.4068849359586457  0.5611397734539443  1.0000
  Zn  Zn2       1.0  0.9017008053410333  0.4040959237419124  0.5598847280811119  1.0000
  C   C42       1.0  0.8263009885890872  0.4004036031844864  0.7977110584375748  1.0000
  C   C43       1.0  0.8263809943784352  0.41057886471960603  0.3233135567122323  1.0000
  C   C44       1.0  0.8263795625155803  0.6426800227518208  0.5553158615691702  1.0000
  C   C45       1.0  0.8263023687545857  0.1683008858329691  0.5657088233895102  1.0000
  O   O2        1.0  0.8835698943908931  0.4112691273236273  0.371223603504937  1.0000
  O   O3        1.0  0.8835060478656316  0.3975955649863643  0.7488480874846382  1.0000
  O   O4        1.0  0.8835687260211693  0.5932368525511962  0.5531122573256455  1.0000
  O   O5        1.0  0.883507164822371  0.2156278499651494  0.5669593367154835  1.0000
  O   O6        1.0  0.7691731205934831  0.5953530106885732  0.5540651652410269  1.0000
  O   O7        1.0  0.769110442701529  0.39971328339620804  0.7498009260126004  1.0000
  O   O8        1.0  0.7691742895290515  0.4133867999070968  0.37217488061668247  1.0000
  O   O9        1.0  0.7691115599397413  0.21774551329542913  0.5679107111971295  1.0000
