data_image0
_chemical_formula_structural       NC8NC6H8C12NCOCH13C15H12Zn2C4O8
_chemical_formula_sum              "N3 C47 H33 O9 Zn2"
_cell_length_a       17.457602349358154
_cell_length_b       10.299155265289647
_cell_length_c       10.299157797200024
_cell_angle_alpha    85.52785804654131
_cell_angle_beta     92.8989280324144
_cell_angle_gamma    91.66712233072684

_space_group_name_H-M_alt    "P 1"
_space_group_IT_number       1

loop_
  _space_group_symop_operation_xyz
  'x, y, z'

loop_
  _atom_site_type_symbol
  _atom_site_label
  _atom_site_symmetry_multiplicity
  _atom_site_fract_x
  _atom_site_fract_y
  _atom_site_fract_z
  _atom_site_occupancy
  N   N1        1.0  0.7217779439427989  0.4532900620236058  0.6259374053586646  1.0000
  C   C1        1.0  0.6607078567374021  0.4073649998580402  0.6153352862246471  1.0000
  C   C2        1.0  0.5847340861627842  0.35023993466053227  0.6021557909530149  1.0000
  C   C3        1.0  0.5262139062179916  0.39038390010039725  0.6770468714782161  1.0000
  C   C4        1.0  0.451677885631969  0.33537705673787  0.6644811968189046  1.0000
  C   C5        1.0  0.3895673369103644  0.37776310727636075  0.7437937317400578  1.0000
  C   C6        1.0  0.3150035105153042  0.39624769150478123  0.6880199020353419  1.0000
  C   C7        1.0  0.25648339425841743  0.43620769137513515  0.763019002882741  1.0000
  C   C8        1.0  0.1804807594225282  0.4552987640110109  0.705029342478777  1.0000
  N   N2        1.0  0.1193875589910062  0.4706416062947103  0.658405808583044  1.0000
  C   C9        1.0  0.272035005695564  0.45792612528343213  0.8943004155378205  1.0000
  C   C10       1.0  0.34581413108570785  0.4398304458789428  0.9504617521669285  1.0000
  C   C11       1.0  0.40432270875309434  0.4000503871245773  0.8759203528984312  1.0000
  C   C12       1.0  0.4369505087437424  0.23954917615210514  0.5755916195344206  1.0000
  C   C13       1.0  0.49545900123603565  0.19968379895858535  0.5011004868744011  1.0000
  C   C14       1.0  0.5692103592257253  0.2548028757591536  0.5142161203626285  1.0000
  H   H1        1.0  0.5385565917574504  0.46556465556122695  0.7436592847762076  1.0000
  H   H2        1.0  0.3026380686971941  0.3813041385705165  0.5859918958813224  1.0000
  H   H3        1.0  0.2271808205396485  0.48879480200385417  0.9531312782788972  1.0000
  H   H4        1.0  0.3576654246644906  0.4563318524911535  0.05211597711583793  1.0000
  H   H5        1.0  0.4608224509934015  0.3850452118843364  0.9220352504800131  1.0000
  H   H6        1.0  0.38047355859412596  0.19421382682303778  0.5649531948994475  1.0000
  H   H7        1.0  0.48362959493348273  0.12561989546729135  0.4332893039748722  1.0000
  H   H8        1.0  0.6140649030380066  0.2230643112649453  0.45589669773998653  1.0000
  C   C15       1.0  0.9206721359259402  0.08057219825593265  0.6422976187711527  1.0000
  C   C16       1.0  0.9075350366501966  0.08974928879664001  0.5062921568076089  1.0000
  C   C17       1.0  0.900799918942196  0.9772613839064833  0.4372107222357162  1.0000
  C   C18       1.0  0.9073515207950729  0.8544816254055111  0.5059693691336109  1.0000
  C   C19       1.0  0.9205007297608324  0.8433497990991429  0.6420574150713507  1.0000
  C   C20       1.0  0.9270834991588011  0.9569092489562155  0.7093840037673471  1.0000
  C   C21       1.0  0.8869034012841834  0.987943348230066  0.2933334433877137  1.0000
  C   C22       1.0  0.9257931934701596  0.08378173790302079  0.21508701445680067  1.0000
  C   C23       1.0  0.9127219676193642  0.09370356835378812  0.07968942414851754  1.0000
  C   C24       1.0  0.8609766001257089  0.00712387805983461  0.01971028384919027  1.0000
  C   C25       1.0  0.8211496451653973  0.9130609019794762  0.09781202175818615  1.0000
  C   C26       1.0  0.8342488054256804  0.9028842850694454  0.2331745556178504  1.0000
  N   N3        1.0  0.8454356516389532  0.01673794448021626  0.8808725099912409  1.0000
  C   C27       1.0  0.9014323221144419  0.05615473300480889  0.7872219451195672  1.0000
  O   O1        1.0  0.9718220721622076  0.061750442962027696  0.8208298687344353  1.0000
  C   C28       1.0  0.8769243856231067  0.08158359139619109  0.6466730488207824  1.0000
  H   H9        1.0  0.9257490391198772  0.4045195248807216  0.6946073869286242  1.0000
  H   H10       1.0  0.9014529124528942  0.18454826777114386  0.4539829741743526  1.0000
  H   H11       1.0  0.9032121701443784  0.7675215127399423  0.45299997476964027  1.0000
  H   H12       1.0  0.9372190010293481  0.9491160150122766  0.814287624185672  1.0000
  H   H13       1.0  0.9457785473845182  0.6150758377249657  0.8988231694674047  1.0000
  H   H14       1.0  0.9667704487644342  0.1506033950910992  0.2585277278439124  1.0000
  H   H15       1.0  0.9421407815508511  0.1704652262750077  0.02250798360889794  1.0000
  H   H16       1.0  0.7800985597906238  0.8469403962198689  0.053498195274504834  1.0000
  H   H17       1.0  0.8023649189757426  0.8296310902669481  0.29098769460604657  1.0000
  H   H18       1.0  0.7913911935467498  0.985522466852406  0.8453841204403374  1.0000
  H   H19       1.0  0.8215418951788392  0.13261405167787998  0.6376966823433623  1.0000
  H   H20       1.0  0.869814417299199  0.987680531632822  0.6008658695959102  1.0000
  H   H21       1.0  0.9205872639138678  0.1436009310065398  0.5948401425009102  1.0000
  C   C29       1.0  0.9204974430648656  0.46206335633165385  0.26077819934439184  1.0000
  C   C30       1.0  0.8405901808272784  0.4405955298731765  0.25443354501585214  1.0000
  C   C31       1.0  0.8002391386460243  0.42960888596959657  0.1340877448473199  1.0000
  C   C32       1.0  0.8408181823279036  0.44039673241524335  0.019184930661221955  1.0000
  C   C33       1.0  0.9206753691097124  0.461858578601128  0.023576813776348793  1.0000
  C   C34       1.0  0.960048686038698  0.4725608048466623  0.1448656897142  1.0000
  C   C35       1.0  0.7157592664700867  0.40691794219475375  0.12842632112562224  1.0000
  C   C36       1.0  0.6812572239694087  0.3184267881962586  0.04452767042603312  1.0000
  C   C37       1.0  0.6017581039311739  0.2971667143043062  0.03923226332542051  1.0000
  C   C38       1.0  0.5553452178378764  0.3633268550040476  0.11825209790013069  1.0000
  C   C39       1.0  0.5894364797824774  0.45264569276043987  0.20114023860555008  1.0000
  C   C40       1.0  0.6689348253227704  0.47390993152249883  0.2065835319436955  1.0000
  C   C41       1.0  0.4697016576469538  0.3427729967583466  0.11020055891926628  1.0000
  C   C42       1.0  0.4351763374634326  0.4350407411494508  0.009942543506486823  1.0000
  C   C43       1.0  0.4068016613675692  0.5109131200990182  0.9275039302278731  1.0000
  H   H22       1.0  0.07137942837934697  0.5017906601053526  0.48011329737047936  1.0000
  H   H23       1.0  0.8097328260179328  0.4306234272914138  0.34345405564358766  1.0000
  H   H24       1.0  0.8098496601453096  0.433806857426988  0.9260253209006044  1.0000
  H   H25       1.0  0.02164495192121696  0.48911119486311216  0.14896901708230104  1.0000
  H   H26       1.0  0.9513942794110958  0.47007222195593656  0.697793985160378  1.0000
  H   H27       1.0  0.7158466164965163  0.26456653432029653  0.9839965312037897  1.0000
  H   H28       1.0  0.5763723065871706  0.2288981916052908  0.9736200681170457  1.0000
  H   H29       1.0  0.5543991177284271  0.5061771958470533  0.261289889498157  1.0000
  H   H30       1.0  0.6936943853084775  0.5442585100897419  0.2705027234416517  1.0000
  H   H31       1.0  0.4544121906374955  0.24185811455648532  0.08553650861238382  1.0000
  H   H32       1.0  0.4452761990304341  0.3571531644152828  0.20542273770723196  1.0000
  H   H33       1.0  0.3819126253673794  0.5775274898435017  0.8551320935775584  1.0000
  Zn  Zn1       1.0  0.8365194925698172  0.45829385794385136  0.6353145853362807  1.0000
  Zn  Zn2       1.0  0.0046460009879523145  0.46562715900626794  0.6490392653338013  1.0000
  C   C44       1.0  0.9206412095818743  0.456723217290258  0.8793930591162504  1.0000
  C   C45       1.0  0.9205261195735787  0.467199518431461  0.40496106838750867  1.0000
  C   C46       1.0  0.9205279514846217  0.6991697839383832  0.6369269228938848  1.0000
  C   C47       1.0  0.9206393206678561  0.2247513888581174  0.647427269662106  1.0000
  O   O2        1.0  0.9843388786913295  0.4717005447762028  0.45855860268163595  1.0000
  O   O3        1.0  0.984432580303875  0.4577870170848437  0.8362118658054425  1.0000
  O   O4        1.0  0.9843402631762936  0.6535656479305341  0.6404186746791609  1.0000
  O   O5        1.0  0.9844311384239158  0.2759219207451211  0.6543516917392558  1.0000
  O   O6        1.0  0.8567342977605258  0.6479990937039184  0.6300021542404346  1.0000
  O   O7        1.0  0.8568266145177544  0.45222202328236594  0.8257952756240936  1.0000
  O   O8        1.0  0.856732912602119  0.46613550613618027  0.4481404509935152  1.0000
  O   O9        1.0  0.8568251723563726  0.2703568727894101  0.6439336374294051  1.0000
