data_image0
_chemical_formula_structural       NC12NC2H8C12BrH9C12NH11Zn2C4O8
_chemical_formula_sum              "N3 C42 H28 Br1 Zn2 O8"
_cell_length_a       17.80743265337812
_cell_length_b       10.299144633409057
_cell_length_c       10.299774167527174
_cell_angle_alpha    85.56689002636797
_cell_angle_beta     91.52767882299842
_cell_angle_gamma    89.41017280233162

_space_group_name_H-M_alt    "P 1"
_space_group_IT_number       1

loop_
  _space_group_symop_operation_xyz
  'x, y, z'

loop_
  _atom_site_type_symbol
  _atom_site_label
  _atom_site_symmetry_multiplicity
  _atom_site_fract_x
  _atom_site_fract_y
  _atom_site_fract_z
  _atom_site_occupancy
  N   N1        1.0  0.7071440269845615  0.40632666949602414  0.6011655072291393  1.0000
  C   C1        1.0  0.6563207239925711  0.4358650171161411  0.5324657564940116  1.0000
  C   C2        1.0  0.5930915203207395  0.47260857864200934  0.4470119144234499  1.0000
  C   C3        1.0  0.6048118861736923  0.5265915328327508  0.3203903784377844  1.0000
  C   C4        1.0  0.543490279721168  0.5618321827751431  0.23733263931808657  1.0000
  C   C5        1.0  0.4702939760757808  0.5433531450423439  0.28023652800866117  1.0000
  C   C6        1.0  0.4575968394888156  0.4892515333964065  0.40732619854073837  1.0000
  C   C7        1.0  0.5197757621861593  0.45401413215323094  0.4903674264221414  1.0000
  C   C8        1.0  0.3798324448720993  0.4696592290685544  0.4530904017771984  1.0000
  C   C9        1.0  0.3610321810194258  0.49688957311042814  0.5801219371781021  1.0000
  C   C10       1.0  0.2878059182826193  0.4784521251627074  0.6230663787947706  1.0000
  C   C11       1.0  0.2324369680524072  0.4325303197494088  0.5398172465914775  1.0000
  C   C12       1.0  0.1570741636976346  0.41354046874063677  0.5841626269832638  1.0000
  N   N2        1.0  0.09648780589456211  0.3982739056647344  0.6198132621575585  1.0000
  C   C13       1.0  0.2505457517414224  0.40513123038208776  0.4133286770111879  1.0000
  C   C14       1.0  0.32371917004516454  0.4235833802048805  0.3701283617337303  1.0000
  H   H1        1.0  0.661275655824212  0.5414049930165885  0.2859528810603389  1.0000
  H   H2        1.0  0.552682940369155  0.6038999815171016  0.13955214225990709  1.0000
  H   H3        1.0  0.42365062908121376  0.572969135932399  0.21464451504607185  1.0000
  H   H4        1.0  0.511281855474859  0.4105608813657484  0.5880237346833879  1.0000
  H   H5        1.0  0.40269512786654993  0.534093302654217  0.645684263591465  1.0000
  H   H6        1.0  0.27435128815882415  0.5003317479850493  0.7210652098844057  1.0000
  H   H7        1.0  0.20816556974295253  0.3691950131866788  0.348179051478233  1.0000
  H   H8        1.0  0.33664579203407274  0.4001681972218427  0.272433123192926  1.0000
  C   C15       1.0  0.9019175099099698  0.020903426742810538  0.6105730359649957  1.0000
  C   C16       1.0  0.869887695991334  0.030470115975800294  0.4840838561685501  1.0000
  C   C17       1.0  0.85354678390498  0.9181861952794668  0.4198703700572626  1.0000
  C   C18       1.0  0.8696678952728503  0.7952090217619412  0.4838520954704464  1.0000
  C   C19       1.0  0.9017215261098085  0.7836870626586944  0.61041727219536  1.0000
  C   C20       1.0  0.9176480990275271  0.8970501230881347  0.672999644293349  1.0000
  C   C21       1.0  0.8196642740123141  0.9293517503669124  0.2860592501125854  1.0000
  C   C22       1.0  0.8448145415959372  0.024112065367275726  0.1918006885067136  1.0000
  C   C23       1.0  0.8128576805997922  0.03441553456308011  0.06590154264408765  1.0000
  C   C24       1.0  0.7554898385301279  0.9505027102062141  0.03262045799048674  1.0000
  C   C25       1.0  0.7300483337876797  0.8560678065844545  0.12542457585796574  1.0000
  C   C26       1.0  0.7618742804354416  0.8453497444082527  0.25141772584324507  1.0000
  Br  Br1       1.0  0.7119268278365911  0.9648596095850667  0.8605783596722012  1.0000
  H   H9        1.0  0.9142687810263774  0.3447004151729465  0.6592041526503649  1.0000
  H   H10       1.0  0.856623706700272  0.12545063939413725  0.43588970913216873  1.0000
  H   H11       1.0  0.858134043959012  0.7083650245922293  0.43413679710809716  1.0000
  H   H12       1.0  0.9423558494129407  0.888955418932644  0.7705622698355281  1.0000
  H   H13       1.0  0.9626532941549989  0.5546645224083084  0.8489890737907846  1.0000
  H   H14       1.0  0.8898270266475015  0.08906951346913661  0.21495774246972066  1.0000
  H   H15       1.0  0.8328630464379726  0.10745048243416644  0.9942048469017699  1.0000
  H   H16       1.0  0.6854859489197184  0.7911264932798033  0.10014057172538782  1.0000
  H   H17       1.0  0.7406472966334496  0.7725541506465955  0.3221960916724045  1.0000
  C   C27       1.0  0.9018451029427559  0.40218017217982727  0.2291443094612593  1.0000
  C   C28       1.0  0.828280686675179  0.35439645469236947  0.22845115064980415  1.0000
  C   C29       1.0  0.790978680876238  0.3303004370419942  0.11095081881286406  1.0000
  C   C30       1.0  0.8282290147451797  0.3546288402776028  0.9931439203822223  1.0000
  C   C31       1.0  0.901793909466254  0.4024103212198278  0.9918459581747796  1.0000
  C   C32       1.0  0.9381898892816573  0.4259189211635186  0.11034566527463552  1.0000
  C   C33       1.0  0.7131517918798804  0.2797486001404099  0.11127084549607669  1.0000
  C   C34       1.0  0.6920634946750942  0.18172417023738374  0.20557845138271436  1.0000
  C   C35       1.0  0.6188093231885583  0.1342003816727506  0.20574577759853252  1.0000
  C   C36       1.0  0.5654846994136776  0.18383228259993745  0.11187786849989867  1.0000
  C   C37       1.0  0.5860773448711398  0.281476776641427  0.01770596282175707  1.0000
  C   C38       1.0  0.6593089317096196  0.329102301093845  0.017271255372390604  1.0000
  N   N3        1.0  0.49056269810333514  0.13516685761459057  0.1121857394904846  1.0000
  H   H18       1.0  0.9298893041072621  0.420334021955344  0.5568666582601847  1.0000
  H   H19       1.0  0.7994423223039884  0.33748857709045765  0.3193589731971991  1.0000
  H   H20       1.0  0.8000989476228074  0.33453368950389395  0.9024701769937269  1.0000
  H   H21       1.0  0.9949416127996713  0.4627809689793392  0.1101124262559412  1.0000
  H   H22       1.0  0.9298141785065429  0.4206725487501919  0.6638932178549339  1.0000
  H   H23       1.0  0.7324858533664257  0.1406171839047594  0.27817203730181417  1.0000
  H   H24       1.0  0.6036739167978125  0.05846158162714099  0.2788538066045312  1.0000
  H   H25       1.0  0.5453417905242318  0.3209248166740746  0.944827642807518  1.0000
  H   H26       1.0  0.6735658642660415  0.4057258244877089  0.9444530031989165  1.0000
  H   H27       1.0  0.45042043329778886  0.17155596639086945  0.04259175156109163  1.0000
  H   H28       1.0  0.47468267717884943  0.062388930338607373  0.18201040480857955  1.0000
  Zn  Zn1       1.0  0.8195002350167312  0.4039993505288024  0.60655433377351  1.0000
  Zn  Zn2       1.0  0.9841315973798167  0.4005906335942284  0.614435030325694  1.0000
  C   C39       1.0  0.9018032490426748  0.3971927689857231  0.8476800218799652  1.0000
  C   C40       1.0  0.90183038069361  0.40739881669205724  0.3733095554019674  1.0000
  C   C41       1.0  0.9017550429428565  0.6395032134525704  0.6052716010603809  1.0000
  C   C42       1.0  0.9018785310125487  0.16508681299260886  0.6157180430864193  1.0000
  O   O1        1.0  0.9643021852614395  0.40785098499565886  0.42468341333348647  1.0000
  O   O2        1.0  0.9642828394748456  0.39415248349420695  0.8022870566564102  1.0000
  O   O3        1.0  0.9642430701325874  0.5898212496806272  0.6065405011726026  1.0000
  O   O4        1.0  0.9643418984303123  0.21218222923392616  0.6204298687561953  1.0000
  O   O5        1.0  0.8392898777856316  0.5924077560537442  0.6005594926468822  1.0000
  O   O6        1.0  0.8393296467281656  0.39674055026456423  0.7963059785696966  1.0000
  O   O7        1.0  0.8393489926811263  0.4104390060346381  0.4187007739317097  1.0000
  O   O8        1.0  0.8393887058427802  0.21477024101285735  0.6144473267193915  1.0000
