data_image0
_chemical_formula_structural       NC8NC6H8C12ClH9C12OCH12Zn2C4O8
_chemical_formula_sum              "N2 C43 H29 Cl1 O9 Zn2"
_cell_length_a       17.457602349358154
_cell_length_b       10.299768534541528
_cell_length_c       10.299794127170987
_cell_angle_alpha    85.578860457747
_cell_angle_beta     92.8688978689242
_cell_angle_gamma    91.70638861519478

_space_group_name_H-M_alt    "P 1"
_space_group_IT_number       1

loop_
  _space_group_symop_operation_xyz
  'x, y, z'

loop_
  _atom_site_type_symbol
  _atom_site_label
  _atom_site_symmetry_multiplicity
  _atom_site_fract_x
  _atom_site_fract_y
  _atom_site_fract_z
  _atom_site_occupancy
  N   N1        1.0  0.7227937051921728  0.45242066445124807  0.6266269757923333  1.0000
  C   C1        1.0  0.6617077786896214  0.4064926625223284  0.6160101430751868  1.0000
  C   C2        1.0  0.5857143035247684  0.34936394525369385  0.6028123448590537  1.0000
  C   C3        1.0  0.5271882182091967  0.38954742419704425  0.6777076897782903  1.0000
  C   C4        1.0  0.4526331860302709  0.3345371346215875  0.6651243744642077  1.0000
  C   C5        1.0  0.3905163302732617  0.3769650399189277  0.7444413806790462  1.0000
  C   C6        1.0  0.3159769497535624  0.39541700630790855  0.6886813388086401  1.0000
  C   C7        1.0  0.2574508193840384  0.43541659262640797  0.7636846253957619  1.0000
  C   C8        1.0  0.18147354863865103  0.45447375998743333  0.7057092557619418  1.0000
  N   N2        1.0  0.1204007382460583  0.4697893429371094  0.6590972093883181  1.0000
  C   C9        1.0  0.2729719184956091  0.45720750105252805  0.8949564545509605  1.0000
  C   C10       1.0  0.3467266425346937  0.4391446319913188  0.9511040889404432  1.0000
  C   C11       1.0  0.4052411711229741  0.39932523259144936  0.8765585070629587  1.0000
  C   C12       1.0  0.4378928535959381  0.23866553234452104  0.57621284243914  1.0000
  C   C13       1.0  0.4964072465264403  0.1987608484308081  0.5017174906700936  1.0000
  C   C14       1.0  0.5701774970941047  0.25388367365006737  0.5148507321175855  1.0000
  H   H1        1.0  0.5395420084116181  0.4647607218010401  0.7443377368241757  1.0000
  H   H2        1.0  0.30363602317584987  0.3804170006937635  0.5866614592553812  1.0000
  H   H3        1.0  0.2281128181768701  0.4881072616554354  0.9537904335014531  1.0000
  H   H4        1.0  0.3585541789071177  0.4557021781134809  0.052750782479693226  1.0000
  H   H5        1.0  0.4617208163302154  0.38434700807064814  0.92266210215123  1.0000
  H   H6        1.0  0.3814003194387349  0.19332718392044157  0.5655599157458326  1.0000
  H   H7        1.0  0.4845675591522772  0.1246636542715367  0.4338892226649098  1.0000
  H   H8        1.0  0.6150364416801529  0.22211437056758232  0.45652782127905045  1.0000
  C   C15       1.0  0.9215285280035413  0.07973659251745824  0.6428543614006081  1.0000
  C   C16       1.0  0.9265908172489871  0.08948401917457671  0.5068054192662585  1.0000
  C   C17       1.0  0.9292296758219951  0.9772869745970043  0.4378817500434906  1.0000
  C   C18       1.0  0.9267373464066669  0.8542027070209712  0.5068328746504132  1.0000
  C   C19       1.0  0.9216732523188232  0.8424636724675799  0.6428816073471784  1.0000
  C   C20       1.0  0.9190977673254084  0.9557887722568457  0.7101305230569415  1.0000
  C   C21       1.0  0.9345861759206063  0.9886526517841113  0.29395339416423205  1.0000
  C   C22       1.0  0.890944727604338  0.08026484075133444  0.21592923896806449  1.0000
  C   C23       1.0  0.8960547751443267  0.09076973345635686  0.08047334687710572  1.0000
  C   C24       1.0  0.9447322973571753  0.010180852043179422  0.021343792700976083  1.0000
  C   C25       1.0  0.988361276028233  0.9188799264094093  0.09785578188572974  1.0000
  C   C26       1.0  0.98338747217797  0.9079887382174179  0.233337442755573  1.0000
  Cl  Cl1       1.0  0.9510581272085574  0.023603109526777688  0.8513836044740191  1.0000
  H   H9        1.0  0.9195601816335153  0.40347437291573285  0.6946892378706186  1.0000
  H   H10       1.0  0.929552315161428  0.18461052734600303  0.4543172191567997  1.0000
  H   H11       1.0  0.9276966819076095  0.7673955376845795  0.45396762471911645  1.0000
  H   H12       1.0  0.9151916672090842  0.9475008586346034  0.815085955743825  1.0000
  H   H13       1.0  0.9197741422329512  0.5105381407174843  0.6947299385434815  1.0000
  H   H14       1.0  0.852150552647391  0.14255961496059188  0.2595023607235538  1.0000
  H   H15       1.0  0.8619950353700951  0.16137961925444166  0.021582832953762843  1.0000
  H   H16       1.0  0.026299951657297926  0.8565006785226736  0.05252339998101618  1.0000
  H   H17       1.0  0.01842086341450644  0.8377142619448752  0.29081323592902253  1.0000
  C   C27       1.0  0.9216267421367264  0.4609878081268024  0.2615186836694887  1.0000
  C   C28       1.0  0.8464386139145119  0.4085812568080571  0.2581841610933975  1.0000
  C   C29       1.0  0.8083191165518218  0.38212810990019697  0.13934594503234776  1.0000
  C   C30       1.0  0.8463864981992629  0.40880544443227085  0.02287501806511716  1.0000
  C   C31       1.0  0.9215750560918493  0.461212521942564  0.024217313905221527  1.0000
  C   C32       1.0  0.958774932016526  0.48700739986047425  0.1440245101172366  1.0000
  C   C33       1.0  0.7287765312387222  0.32667794817933893  0.13687308504451323  1.0000
  C   C34       1.0  0.6738625461441137  0.3729456748079276  0.04124125003944701  1.0000
  C   C35       1.0  0.5991048554094469  0.3207505686061731  0.03918650117692435  1.0000
  C   C36       1.0  0.5781745522498358  0.22190348375209057  0.13216196124874569  1.0000
  C   C37       1.0  0.6323313827624634  0.17419810162675842  0.22859451772818518  1.0000
  C   C38       1.0  0.7071934844711082  0.22703730754709683  0.2302064304658098  1.0000
  O   O1        1.0  0.6142541901627423  0.07483668838733948  0.32393791773990976  1.0000
  C   C39       1.0  0.5407027931617405  0.01235086766296023  0.3339674132657777  1.0000
  H   H18       1.0  0.9502868371763054  0.4808990867470182  0.5902476694054333  1.0000
  H   H19       1.0  0.8169606170864415  0.38986493827471724  0.3480535371863378  1.0000
  H   H20       1.0  0.8176230033812547  0.38695475950430325  0.9311941273046234  1.0000
  H   H21       1.0  0.01677973521241438  0.5274360250722674  0.14582858910688867  1.0000
  H   H22       1.0  0.950209685449734  0.4812424816326104  0.6972701530179917  1.0000
  H   H23       1.0  0.6884678211774022  0.4506488978640453  0.969116833991138  1.0000
  H   H24       1.0  0.5571654346472475  0.3573134831841598  0.9654244582736644  1.0000
  H   H25       1.0  0.519882638723414  0.18332332833337617  0.12822932751730476  1.0000
  H   H26       1.0  0.748794383538108  0.18870960575517826  0.30376702655041754  1.0000
  H   H27       1.0  0.5248805614203116  0.9632045184906267  0.2438137904325024  1.0000
  H   H28       1.0  0.542660073013887  0.9379613946629324  0.417797633288735  1.0000
  H   H29       1.0  0.4970202486332447  0.08470017281706976  0.3506786840011671  1.0000
  Zn  Zn1       1.0  0.8375345050099958  0.4574294093879254  0.6360046817711857  1.0000
  Zn  Zn2       1.0  0.005659921437183524  0.46476995332282756  0.6497301350097273  1.0000
  C   C40       1.0  0.9215821106101598  0.45599628006741155  0.8800506292996122  1.0000
  C   C41       1.0  0.9216141520636011  0.4662048014574318  0.4056844648813569  1.0000
  C   C42       1.0  0.9216422917842861  0.6982903567522547  0.6377012654393841  1.0000
  C   C43       1.0  0.9215539132192827  0.22390916198707123  0.6480338932372918  1.0000
  O   O2        1.0  0.9854126449862032  0.4707357045086997  0.4592765557972365  1.0000
  O   O3        1.0  0.9853869184379219  0.45703570018240636  0.8368754659445314  1.0000
  O   O4        1.0  0.9854346553143962  0.6526911941774969  0.6411765697964604  1.0000
  O   O5        1.0  0.9853648507482772  0.27508021727030685  0.6549753498924071  1.0000
  O   O6        1.0  0.8578295183259492  0.6471191429368903  0.6307594621978514  1.0000
  O   O7        1.0  0.8577817817467148  0.45146520922376143  0.826458289159562  1.0000
  O   O8        1.0  0.8578075084432949  0.46516516783639306  0.4488578176943392  1.0000
  O   O9        1.0  0.8577597141938681  0.26950967133774695  0.6445567091517563  1.0000
