data_image0
_chemical_formula_structural       NC12NC2H8C16H10C13NH9Zn2C4O8
_chemical_formula_sum              "N3 C47 H27 Zn2 O8"
_cell_length_a       19.240039667572717
_cell_length_b       10.29914801576943
_cell_length_c       10.298528502251457
_cell_angle_alpha    85.51780360307934
_cell_angle_beta     89.99709375093414
_cell_angle_gamma    90.01219802926651

_space_group_name_H-M_alt    "P 1"
_space_group_IT_number       1

loop_
  _space_group_symop_operation_xyz
  'x, y, z'

loop_
  _atom_site_type_symbol
  _atom_site_label
  _atom_site_symmetry_multiplicity
  _atom_site_fract_x
  _atom_site_fract_y
  _atom_site_fract_z
  _atom_site_occupancy
  N   N1        1.0  0.6546780754144461  0.4218824413505371  0.5667295914343653  1.0000
  C   C1        1.0  0.5945297066089654  0.42188252536682036  0.5667295094551643  1.0000
  C   C2        1.0  0.5197116694849039  0.4218826427092426  0.5667293720885971  1.0000
  C   C3        1.0  0.4832277961532748  0.35737661661349795  0.6701788596211735  1.0000
  C   C4        1.0  0.4105570330613957  0.35726569645052275  0.6702654548617726  1.0000
  C   C5        1.0  0.3733794345643136  0.42188273535991794  0.566729144343163  1.0000
  C   C6        1.0  0.4105775144704697  0.48649996120506267  0.4631930283185455  1.0000
  C   C7        1.0  0.4832481879121396  0.48638880548092156  0.4632797461645328  1.0000
  C   C8        1.0  0.2961743441183143  0.4218826567246736  0.5667290489455055  1.0000
  C   C9        1.0  0.258972486879584  0.30859800969224516  0.60864787212794  1.0000
  C   C10       1.0  0.18630181316324226  0.30870495013113475  0.6085564948082074  1.0000
  C   C11       1.0  0.1498420571787377  0.42188252752008504  0.5667291099122864  1.0000
  C   C12       1.0  0.0750240200040599  0.4218824136826762  0.5667293586472604  1.0000
  N   N2        1.0  0.014875703141640998  0.4218823727844767  0.5667295671081565  1.0000
  C   C13       1.0  0.18632981206092697  0.5350601807611235  0.5249016720903004  1.0000
  C   C14       1.0  0.2590005229715516  0.5351673013917189  0.5248101320874934  1.0000
  H   H1        1.0  0.5109347780233201  0.3074344166827039  0.75094912094122  1.0000
  H   H2        1.0  0.38345590284555586  0.3081212676569256  0.7521510608772524  1.0000
  H   H3        1.0  0.3834921139026471  0.535644417070751  0.3813073714380355  1.0000
  H   H4        1.0  0.51097097748625  0.536330905046484  0.38250976071237597  1.0000
  H   H5        1.0  0.2860547519961563  0.2194244412969888  0.6398531060281207  1.0000
  H   H6        1.0  0.15857603552888036  0.22043028459224945  0.6407944847800631  1.0000
  H   H7        1.0  0.1586257662443066  0.6233348217561065  0.4926636966799811  1.0000
  H   H8        1.0  0.2861047366824312  0.6243409489855813  0.49360485338022797  1.0000
  C   C15       1.0  0.8347307303544661  0.04048098772494635  0.5668951322619384  1.0000
  C   C16       1.0  0.8188649504344989  0.05012533631625926  0.43340457671009713  1.0000
  C   C17       1.0  0.8108717419012241  0.9378855213890268  0.3655574071715717  1.0000
  C   C18       1.0  0.8189577400479846  0.8148736592466523  0.43299993613883125  1.0000
  C   C19       1.0  0.8348297129768247  0.8032738395896607  0.5665752551109169  1.0000
  C   C20       1.0  0.8426197235514328  0.9165939626159822  0.6327003850642376  1.0000
  C   C21       1.0  0.7940878317221562  0.9491336847449263  0.22434049839989  1.0000
  C   C22       1.0  0.8269731572070625  0.8681776562788096  0.1391122166120331  1.0000
  C   C23       1.0  0.8111524382352435  0.8788892163800736  0.006204305596236193  1.0000
  C   C24       1.0  0.7622839555855819  0.9704577296756699  0.956720197053107  1.0000
  C   C25       1.0  0.7292719319273658  0.05139451164242259  0.040664378506934495  1.0000
  C   C26       1.0  0.745043096138048  0.040924210103492564  0.17359323871074173  1.0000
  C   C27       1.0  0.746022159600054  0.981361590668297  0.8198790522226282  1.0000
  C   C28       1.0  0.7324030807547107  0.9904934697175087  0.7052765730599888  1.0000
  C   C29       1.0  0.7164553002609387  0.0011867770456910343  0.5710782385822384  1.0000
  C   C30       1.0  0.7028385071126694  0.01031727260208326  0.4564942694815137  1.0000
  H   H9        1.0  0.8407976448482964  0.36424595314523645  0.6182554138094691  1.0000
  H   H10       1.0  0.8136231511206039  0.14519837015735648  0.38148804879871245  1.0000
  H   H11       1.0  0.8119219712058267  0.727997941278796  0.38157805149516144  1.0000
  H   H12       1.0  0.8548553739581142  0.9084391379801386  0.7356659328324995  1.0000
  H   H13       1.0  0.8643568142512092  0.5740731638603164  0.8188699272869635  1.0000
  H   H14       1.0  0.8655813165658308  0.7977607466395483  0.17496635667255522  1.0000
  H   H15       1.0  0.8371569294405002  0.8159881850334364  0.9420214771985629  1.0000
  H   H16       1.0  0.6912166214438636  0.12237624039895034  0.00344017554214604  1.0000
  H   H17       1.0  0.7182284147381971  0.10343570820269421  0.23697318019114966  1.0000
  H   H18       1.0  0.6908818664820919  0.01833461897089128  0.3558798828480758  1.0000
  C   C31       1.0  0.8347901214604116  0.422003904839408  0.1853182520161225  1.0000
  C   C32       1.0  0.7625371504335599  0.44186753770075793  0.18281983847272754  1.0000
  C   C33       1.0  0.7259331392130248  0.4517923569107176  0.06440744036541912  1.0000
  C   C34       1.0  0.7625163686477376  0.44160265596018267  0.9475602459460988  1.0000
  C   C35       1.0  0.8347703303915562  0.4217509037456455  0.9481520775643455  1.0000
  C   C36       1.0  0.8704445416819983  0.4120758865536216  0.06749786186454476  1.0000
  C   C37       1.0  0.6495472155560998  0.4727864886093609  0.06277378887196017  1.0000
  C   C38       1.0  0.6188720008211233  0.5607249589916858  0.1436529628700638  1.0000
  C   C39       1.0  0.5469700031400179  0.5804396893407648  0.14199574796719783  1.0000
  C   C40       1.0  0.5047864988909582  0.5125754222627434  0.05967516283480645  1.0000
  C   C41       1.0  0.5347757724227543  0.42487330626510333  0.9788998970940894  1.0000
  C   C42       1.0  0.6066703388653203  0.4050642033305687  0.9803205413432305  1.0000
  C   C43       1.0  0.4307633237359701  0.5329224567010609  0.058089701381679903  1.0000
  N   N3        1.0  0.3712536824193189  0.5492802233543594  0.05681513225839874  1.0000
  H   H19       1.0  0.9712622220791449  0.38366101289444154  0.3974269466167524  1.0000
  H   H20       1.0  0.7344688153260021  0.44787587310902266  0.2733329465335743  1.0000
  H   H21       1.0  0.7347099031509947  0.4509506627633073  0.8558523658373685  1.0000
  H   H22       1.0  0.9261313037056492  0.39677131393725573  0.06868855643098892  1.0000
  H   H23       1.0  0.9713710697389861  0.38505093288307735  0.7418821427354825  1.0000
  H   H24       1.0  0.6505819538238559  0.6154978547679546  0.20693300926656022  1.0000
  H   H25       1.0  0.5243209087839773  0.6488357703709018  0.2046741112807866  1.0000
  H   H26       1.0  0.5025856300444618  0.37155069429458565  0.9150475138506104  1.0000
  H   H27       1.0  0.6286368809699441  0.3355378392441992  0.9181894322257844  1.0000
  Zn  Zn1       1.0  0.7586233386066998  0.4218789515825223  0.5667370752371828  1.0000
  Zn  Zn2       1.0  0.9109304570705672  0.4218752646540407  0.5667326879826671  1.0000
  C   C44       1.0  0.8347718472120227  0.4166246327274383  0.803962344728719  1.0000
  C   C45       1.0  0.8347836118636007  0.427131222185855  0.32950754523844905  1.0000
  C   C46       1.0  0.8348075657848402  0.6590914806737527  0.5614598733513765  1.0000
  C   C47       1.0  0.8347478411147103  0.18466281378224814  0.57201008651906  1.0000
  O   O1        1.0  0.8925811841499417  0.4288449313314098  0.37789712666543096  1.0000
  O   O2        1.0  0.8925718535754771  0.4149071456064468  0.7555690599948897  1.0000
  O   O3        1.0  0.8925999175713283  0.6107021913059016  0.5597465980685439  1.0000
  O   O4        1.0  0.8925530681857207  0.23304989495652206  0.5737194912024499  1.0000
  O   O5        1.0  0.7770006755166022  0.6107043212827159  0.5597502720120644  1.0000
  O   O6        1.0  0.7769726117218797  0.414910836043227  0.7555726640298066  1.0000
  O   O7        1.0  0.7769819423772135  0.4288485770262187  0.37789916912206545  1.0000
  O   O8        1.0  0.7769538264064181  0.23305353132943818  0.5737216310430766  1.0000
