data_image0
_chemical_formula_structural       NC12NC2H8C12NH11C12NH11Zn2C4O8
_chemical_formula_sum              "N4 C42 H30 Zn2 O8"
_cell_length_a       17.80743265337812
_cell_length_b       10.299770795358612
_cell_length_c       10.299774167527174
_cell_angle_alpha    85.57276865105108
_cell_angle_beta     91.52767882299842
_cell_angle_gamma    89.45311437677636

_space_group_name_H-M_alt    "P 1"
_space_group_IT_number       1

loop_
  _space_group_symop_operation_xyz
  'x, y, z'

loop_
  _atom_site_type_symbol
  _atom_site_label
  _atom_site_symmetry_multiplicity
  _atom_site_fract_x
  _atom_site_fract_y
  _atom_site_fract_z
  _atom_site_occupancy
  N   N1        1.0  0.7077564060435977  0.4062172365912209  0.6013394322817671  1.0000
  C   C1        1.0  0.6569459654013825  0.4357532856933237  0.5326433346514092  1.0000
  C   C2        1.0  0.5937327615595482  0.47249398802953313  0.44719403677816016  1.0000
  C   C3        1.0  0.605476634063842  0.5264727415522401  0.3205791770422963  1.0000
  C   C4        1.0  0.5441703730047599  0.561710649253605  0.237525796249884  1.0000
  C   C5        1.0  0.47096602273977556  0.5432330494618061  0.28042739957697926  1.0000
  C   C6        1.0  0.4582453278325774  0.48913564771719886  0.40751037918449606  1.0000
  C   C7        1.0  0.5204089065511115  0.4539009884622536  0.4905472491403915  1.0000
  C   C8        1.0  0.3804724018289872  0.46954486795886585  0.4532721593761293  1.0000
  C   C9        1.0  0.36168399531559564  0.4967730930793597  0.5803070624433966  1.0000
  C   C10       1.0  0.2884497040692898  0.47833707983634133  0.6232492238401313  1.0000
  C   C11       1.0  0.23306075738121473  0.432418847815107  0.5399944123358649  1.0000
  C   C12       1.0  0.157689683975343  0.41343047449612236  0.5843374441902112  1.0000
  N   N2        1.0  0.0970966784113101  0.3981650993834296  0.6199861912983515  1.0000
  C   C13       1.0  0.2511576102515025  0.4050218905000347  0.41350245421992127  1.0000
  C   C14       1.0  0.3243390634666139  0.42347260447410284  0.37030442098062677  1.0000
  H   H1        1.0  0.6619468541735652  0.5412850490309393  0.28614351169427765  1.0000
  H   H2        1.0  0.5533813518995442  0.6037751745019184  0.13975050185497495  1.0000
  H   H3        1.0  0.4243355719044202  0.5728467357920584  0.21483904932155906  1.0000
  H   H4        1.0  0.5118960783037225  0.41045111897696773  0.5881981833949481  1.0000
  H   H5        1.0  0.4033631423709536  0.5339739276256477  0.6458739899645667  1.0000
  H   H6        1.0  0.27500460133562854  0.5002150001021342  0.7212507608548073  1.0000
  H   H7        1.0  0.208761779977743  0.3690884696710186  0.34834838433658755  1.0000
  H   H8        1.0  0.3372554894121466  0.400059243536786  0.2726062866069976  1.0000
  C   C15       1.0  0.9023620580319647  0.02082398543665054  0.6106992944553418  1.0000
  C   C16       1.0  0.8805660801910838  0.03041211870588678  0.4782509198286291  1.0000
  C   C17       1.0  0.8695907960399123  0.9181329084482102  0.4111064908939872  1.0000
  C   C18       1.0  0.8807035908113541  0.7951276415922336  0.47818895587507826  1.0000
  C   C19       1.0  0.9024982090950568  0.7835482447860984  0.6106378159109724  1.0000
  C   C20       1.0  0.913205757864002  0.8969534858503233  0.67615118157505  1.0000
  C   C21       1.0  0.8465322454390665  0.9293299953127643  0.2709838137363212  1.0000
  C   C22       1.0  0.7918323449306802  0.021626128931936828  0.22317893555686874  1.0000
  C   C23       1.0  0.7701618497160961  0.03203493527979595  0.09129595374980992  1.0000
  C   C24       1.0  0.8027811384093226  0.9505749337826606  0.0051181630122041355  1.0000
  C   C25       1.0  0.8573008234932521  0.8584803520101151  0.05202389132700924  1.0000
  C   C26       1.0  0.8790315019593835  0.8478142665680415  0.18387978382895187  1.0000
  N   N3        1.0  0.780583020674745  0.9613538461425548  0.8702255403896952  1.0000
  H   H9        1.0  0.9106353832862056  0.34462338680895965  0.6611838669177927  1.0000
  H   H10       1.0  0.8730697908971089  0.1254576477460565  0.4265419654395455  1.0000
  H   H11       1.0  0.8713214464959848  0.7082781970411066  0.42732974297655124  1.0000
  H   H12       1.0  0.9300197964218349  0.8887886510311673  0.7783292084889608  1.0000
  H   H13       1.0  0.9108356322593251  0.45168283726589803  0.6610938382242355  1.0000
  H   H14       1.0  0.7651038084204312  0.08460909963641194  0.28809907695720716  1.0000
  H   H15       1.0  0.7278088160249971  0.10338252940591386  0.05635744417467681  1.0000
  H   H16       1.0  0.8831003174348366  0.7951708416489118  0.9863700130621362  1.0000
  H   H17       1.0  0.9219605570410577  0.7769646159270546  0.21740640297090108  1.0000
  H   H18       1.0  0.8045792960482964  0.9010431814776467  0.8052381514412903  1.0000
  H   H19       1.0  0.7399884604637766  0.029724758179595412  0.834348127690856  1.0000
  C   C27       1.0  0.9024556764268999  0.4020710619335188  0.22931772170290188  1.0000
  C   C28       1.0  0.8288704529396445  0.3542910627222766  0.22861865332167342  1.0000
  C   C29       1.0  0.7915579546307226  0.33019692009657575  0.11111534145084079  1.0000
  C   C30       1.0  0.8288188822009749  0.3545234302244924  0.9933114517939821  1.0000
  C   C31       1.0  0.9024045831678339  0.40230119306453793  0.9920193988797124  1.0000
  C   C32       1.0  0.9388107997046365  0.4258079636932939  0.11052201336557732  1.0000
  C   C33       1.0  0.7137090530486797  0.27964901687162236  0.11142911622183194  1.0000
  C   C34       1.0  0.6925780715163835  0.18163221471138047  0.2057245991042631  1.0000
  C   C35       1.0  0.61930320599513  0.13411212419666918  0.20588604789657272  1.0000
  C   C36       1.0  0.5660001942236672  0.18374016303177831  0.11202427693864903  1.0000
  C   C37       1.0  0.5866353585671594  0.2813770588950826  0.017864447276793483  1.0000
  C   C38       1.0  0.6598876837408231  0.3289988773810302  0.01743562983294744  1.0000
  N   N4        1.0  0.4910570017578084  0.13507852493246197  0.11232612931578911  1.0000
  H   H20       1.0  0.930507782609269  0.42022349907244294  0.5570423156482405  1.0000
  H   H21       1.0  0.800024726103956  0.3373845008019911  0.3195243848161391  1.0000
  H   H22       1.0  0.8006800647293496  0.33442984314915414  0.9026352231719823  1.0000
  H   H23       1.0  0.995578574647007  0.46266714309947843  0.11029333319778556  1.0000
  H   H24       1.0  0.9304328044186247  0.42056199952492546  0.6640689171097138  1.0000
  H   H25       1.0  0.7329825303426579  0.1405284271070606  0.2783131011869273  1.0000
  H   H26       1.0  0.6041348194610714  0.058379217743974365  0.27898471003563374  1.0000
  H   H27       1.0  0.5459169817040894  0.3208220292898549  0.9449910059316338  1.0000
  H   H28       1.0  0.6741779816896352  0.40561643833748695  0.9446268539430625  1.0000
  H   H29       1.0  0.4509305824372941  0.17146480210072057  0.04273664174736913  1.0000
  H   H30       1.0  0.47514528998965844  0.06230626084993207  0.18214179394783714  1.0000
  Zn  Zn1       1.0  0.8201116006544694  0.4038900987236542  0.6067279709989328  1.0000
  Zn  Zn2       1.0  0.98474147870604  0.4004816470374075  0.6146082459838631  1.0000
  C   C39       1.0  0.9024116507829834  0.39708404683275744  0.8478528173130233  1.0000
  C   C40       1.0  0.902443226614653  0.4072893003584286  0.37348361305057143  1.0000
  C   C41       1.0  0.902468957751498  0.6393756359821474  0.605474363824444  1.0000
  C   C42       1.0  0.9023858631862971  0.16499615209776897  0.6158621332111827  1.0000
  O   O1        1.0  0.9649152280772769  0.40774143347668357  0.4248575269032344  1.0000
  O   O2        1.0  0.9648899173355685  0.3940439979201815  0.8024594760873447  1.0000
  O   O3        1.0  0.964935351138155  0.5896975381979082  0.6067371196045193  1.0000
  O   O4        1.0  0.9648697381058443  0.2120879036228338  0.6205797833262496  1.0000
  O   O5        1.0  0.8399832850745682  0.5922838433027768  0.6007564309605642  1.0000
  O   O6        1.0  0.8399378515517256  0.3966318633008685  0.7964787180753758  1.0000
  O   O7        1.0  0.8399631624398872  0.41032925312955104  0.4188752075705455  1.0000
  O   O8        1.0  0.8399176724572037  0.2146757140163733  0.6145975613573895  1.0000
