data_image0
_chemical_formula_structural       NC12NC2H8C12NH11C13NH13Zn2C4O8
_chemical_formula_sum              "N4 C43 H32 Zn2 O8"
_cell_length_a       17.80743265337812
_cell_length_b       10.299770795358612
_cell_length_c       10.299780419254978
_cell_angle_alpha    85.56832973562953
_cell_angle_beta     91.52098048016336
_cell_angle_gamma    89.45311437677636

_space_group_name_H-M_alt    "P 1"
_space_group_IT_number       1

loop_
  _space_group_symop_operation_xyz
  'x, y, z'

loop_
  _atom_site_type_symbol
  _atom_site_label
  _atom_site_symmetry_multiplicity
  _atom_site_fract_x
  _atom_site_fract_y
  _atom_site_fract_z
  _atom_site_occupancy
  N   N1        1.0  0.7078502992457533  0.40632402654359656  0.6013363519911761  1.0000
  C   C1        1.0  0.6570444702274953  0.4358653207016938  0.5326401030703996  1.0000
  C   C2        1.0  0.593837002665345  0.47261254722730306  0.4471906170109139  1.0000
  C   C3        1.0  0.6055893749264029  0.5266009679953401  0.3205754784292958  1.0000
  C   C4        1.0  0.5442886893071753  0.5618452169540367  0.2375219147272103  1.0000
  C   C5        1.0  0.4710814590232593  0.5433643415567888  0.2804236125371329  1.0000
  C   C6        1.0  0.4583522329340359  0.4892572368251573  0.4075068720213515  1.0000
  C   C7        1.0  0.5205102373211009  0.4540162375735093  0.49054392485055764  1.0000
  C   C8        1.0  0.3805762349055543  0.469662963082337  0.4532687529948214  1.0000
  C   C9        1.0  0.3617793004375541  0.4968814888865265  0.5803039358329103  1.0000
  C   C10       1.0  0.288542126449621  0.4784421969413868  0.6232461918017942  1.0000
  C   C11       1.0  0.23315876872360522  0.4325303215570382  0.5399911969442408  1.0000
  C   C12       1.0  0.1577847185345524  0.41353856257725163  0.5843343264558938  1.0000
  N   N2        1.0  0.09718931984162452  0.39827046562618396  0.6199831520737902  1.0000
  C   C13       1.0  0.2512641131001731  0.40514302210356234  0.4134989602532111  1.0000
  C   C14       1.0  0.3244484662337932  0.4235970343159725  0.37030083187825746  1.0000
  H   H1        1.0  0.6620619067298724  0.5414159046916975  0.2861397372431087  1.0000
  H   H2        1.0  0.5535062319356447  0.6039172075011321  0.13974640500034252  1.0000
  H   H3        1.0  0.4244554111862953  0.572983035661595  0.21483511783553122  1.0000
  H   H4        1.0  0.5119908536884226  0.41055891228453567  0.5881950741631929  1.0000
  H   H5        1.0  0.40345404593264594  0.5340773172939204  0.6458710077530825  1.0000
  H   H6        1.0  0.27509044479442657  0.5003126346344156  0.7212479446466864  1.0000
  H   H7        1.0  0.2088726566712163  0.3692145758911043  0.34834474688011774  1.0000
  H   H8        1.0  0.3373714507331971  0.4001911327861474  0.2726024823426001  1.0000
  C   C15       1.0  0.9024553228990894  0.020930060748706403  0.6106962347781122  1.0000
  C   C16       1.0  0.880668236423491  0.030528306661385285  0.47824756845841  1.0000
  C   C17       1.0  0.8696974597315167  0.918254222987337  0.41110299165061215  1.0000
  C   C18       1.0  0.8808057512034511  0.7952438342787779  0.4781856043683954  1.0000
  C   C19       1.0  0.9025914780892852  0.7836543247921384  0.6106347560983474  1.0000
  C   C20       1.0  0.9132946288936148  0.8970545638070023  0.6761482660434672  1.0000
  C   C21       1.0  0.8466483156780181  0.9294620084405021  0.27098000589872817  1.0000
  C   C22       1.0  0.7919516243493246  0.021761792037933603  0.2231750224378941  1.0000
  C   C23       1.0  0.7702899825447509  0.0321806678605967  0.09129175018301905  1.0000
  C   C24       1.0  0.8029150564219698  0.9507272461744475  0.005113769654805811  1.0000
  C   C25       1.0  0.8574315926868559  0.8586290830751608  0.052019601270781646  1.0000
  C   C26       1.0  0.8791534195615034  0.8479529302265942  0.18387578416088202  1.0000
  N   N3        1.0  0.7807259941369972  0.9615164577999952  0.8702208499563042  1.0000
  H   H9        1.0  0.9107252590836179  0.34472560754384807  0.661180918423474  1.0000
  H   H10       1.0  0.873175418392966  0.12557778376222362  0.4265385001899411  1.0000
  H   H11       1.0  0.8714270211077062  0.7083982729092096  0.42732627946188084  1.0000
  H   H12       1.0  0.9301018081588083  0.8888819275334547  0.7783265179855383  1.0000
  H   H13       1.0  0.9109255141004354  0.45178506487462006  0.6610908895316452  1.0000
  H   H14       1.0  0.7652187296980789  0.08473980598666087  0.28809530681280804  1.0000
  H   H15       1.0  0.7279392943037335  0.10353092959732768  0.056353163662296035  1.0000
  H   H16       1.0  0.8832354940257796  0.7953245854916786  0.9863655784154144  1.0000
  H   H17       1.0  0.9220802239744297  0.7771007197750686  0.21740247713899374  1.0000
  H   H18       1.0  0.8047266321659265  0.9012107550252916  0.8052333178852242  1.0000
  H   H19       1.0  0.7401338424054276  0.029890109134390386  0.8343433582441158  1.0000
  C   C27       1.0  0.9025745437439221  0.4022062563334583  0.22931382210346607  1.0000
  C   C28       1.0  0.956984002053046  0.5001098358862166  0.2232492827985546  1.0000
  C   C29       1.0  0.9844957967169452  0.5498148377723395  0.10302963065976667  1.0000
  C   C30       1.0  0.9568808534586812  0.5002842019950853  0.9879441514540659  1.0000
  C   C31       1.0  0.9024722871821366  0.402378084647685  0.992017180353463  1.0000
  C   C32       1.0  0.8756217395125646  0.3538908270675565  0.11317081432685394  1.0000
  C   C33       1.0  0.04205886434335104  0.6533857907425373  0.0977055668582103  1.0000
  C   C34       1.0  0.036999064790237624  0.7580679986237344  0.0016276221358921816  1.0000
  C   C35       1.0  0.0912030734419158  0.855463286581474  0.9967033402719805  1.0000
  C   C36       1.0  0.15108723591172346  0.8505214821274485  0.08824619672345713  1.0000
  C   C37       1.0  0.15686716398017397  0.745545541185836  0.18330188315243157  1.0000
  C   C38       1.0  0.10267868415906523  0.6481252330588785  0.18839968161560927  1.0000
  C   C39       1.0  0.21042982217670025  0.9535116218218789  0.08062358988861007  1.0000
  N   N4        1.0  0.26801473423696054  0.9196685792983168  0.9905065550981491  1.0000
  H   H20       1.0  0.881872515507692  0.36485291429072775  0.5590829802761876  1.0000
  H   H21       1.0  0.977355306229799  0.5391942668987  0.31209129377055045  1.0000
  H   H22       1.0  0.9786657917545781  0.5369885250986934  0.8951766977411664  1.0000
  H   H23       1.0  0.8336475700416783  0.2783616217851719  0.11708077825469587  1.0000
  H   H24       1.0  0.8817258786728387  0.36509465536871444  0.6661131970164962  1.0000
  H   H25       1.0  0.9906681398750714  0.7653727673187449  0.9311064082827047  1.0000
  H   H26       1.0  0.08637864457088229  0.9349630807386125  0.9216259473703672  1.0000
  H   H27       1.0  0.20347716751241607  0.7388872581712242  0.25330988052805026  1.0000
  H   H28       1.0  0.10881228295103074  0.5675812018092947  0.2620739781322563  1.0000
  H   H29       1.0  0.18448864463121173  0.04907460179726719  0.04609217948768518  1.0000
  H   H30       1.0  0.23633943575843985  0.9642860026022544  0.17872016509048083  1.0000
  H   H31       1.0  0.3059387770228035  0.9965754829445195  0.9823764306455507  1.0000
  H   H32       1.0  0.29813983784758613  0.8387421725881916  0.03272897186232626  1.0000
  Zn  Zn1       1.0  0.8202051321197126  0.4039964772525537  0.6067249025755994  1.0000
  Zn  Zn2       1.0  0.9848344811621232  0.40058742389481483  0.6146051949153746  1.0000
  C   C40       1.0  0.9024889953445117  0.3971720150972593  0.8478502799224599  1.0000
  C   C41       1.0  0.9025524159601269  0.4074134874639421  0.3734800309497823  1.0000
  C   C42       1.0  0.9025625733723934  0.6394821102259431  0.6054712926402732  1.0000
  C   C43       1.0  0.9024787814679285  0.16510183321889826  0.6158590849041481  1.0000
  O   O1        1.0  0.9650209686508397  0.4078616981024048  0.42485405794396636  1.0000
  O   O2        1.0  0.9649703091883857  0.3941354320382717  0.8024568387263631  1.0000
  O   O3        1.0  0.9650288819892452  0.5898039160282971  0.6067340512013344  1.0000
  O   O4        1.0  0.9649623396878514  0.21219322454389578  0.620576745408965  1.0000
  O   O5        1.0  0.8400772174140685  0.592390677768228  0.6007533493860211  1.0000
  O   O6        1.0  0.84001864489761  0.39672375405931715  0.7964760675428835  1.0000
  O   O7        1.0  0.8400693046113298  0.4104499745148398  0.4188717254363288  1.0000
  O   O8        1.0  0.8400106756305545  0.2147814916895694  0.6145945102653698  1.0000
