data_image0
_chemical_formula_structural       NC10NC3NH7C12NCOCH13C12SCH12Zn2C4O8
_chemical_formula_sum              "N4 C44 H32 O9 S1 Zn2"
_cell_length_a       19.210446455230148
_cell_length_b       10.299155265289647
_cell_length_c       10.299780138516091
_cell_angle_alpha    85.56043235920357
_cell_angle_beta     89.98277112440113
_cell_angle_gamma    89.9251083167036

_space_group_name_H-M_alt    "P 1"
_space_group_IT_number       1

loop_
  _space_group_symop_operation_xyz
  'x, y, z'

loop_
  _atom_site_type_symbol
  _atom_site_label
  _atom_site_symmetry_multiplicity
  _atom_site_fract_x
  _atom_site_fract_y
  _atom_site_fract_z
  _atom_site_occupancy
  N   N1        1.0  0.6552805916880201  0.4198863774396562  0.5670345997949562  1.0000
  C   C1        1.0  0.5950513962079832  0.42209408489920497  0.5672651870397225  1.0000
  C   C2        1.0  0.5202461555604956  0.4248312378167096  0.5675508553461281  1.0000
  C   C3        1.0  0.48460102828487195  0.5410726371573433  0.5826329595876145  1.0000
  C   C4        1.0  0.4119355077357357  0.54122416923943  0.582580327048905  1.0000
  C   C5        1.0  0.3750791922014184  0.4255402695769672  0.5676371577386745  1.0000
  C   C6        1.0  0.2977574632668998  0.4241836735318618  0.5674869108765366  1.0000
  C   C7        1.0  0.2599766544459468  0.5277434500789768  0.5041024433573691  1.0000
  C   C8        1.0  0.1871987104382106  0.5263411072644699  0.5039937236054468  1.0000
  C   C9        1.0  0.1512000924237199  0.42163649927462066  0.5672184129316926  1.0000
  C   C10       1.0  0.0762709562844967  0.4203343041465495  0.5670819151392508  1.0000
  N   N2        1.0  0.0160334126455465  0.419287295061503  0.5669722057993192  1.0000
  C   C11       1.0  0.1882572087084581  0.31820241599345067  0.6305778419132133  1.0000
  C   C12       1.0  0.2610370783494255  0.3193304879929777  0.6307368733541521  1.0000
  C   C13       1.0  0.4133336396879977  0.31111931034361584  0.5528427506525038  1.0000
  N   N3        1.0  0.4841028704376188  0.31356447340296945  0.5530076964105439  1.0000
  H   H1        1.0  0.5126754631913351  0.6305147208353359  0.5946585217257738  1.0000
  H   H2        1.0  0.3846398850591956  0.6312485222911601  0.5960003990588896  1.0000
  H   H3        1.0  0.2866828363014597  0.6089880699350287  0.4530940862665547  1.0000
  H   H4        1.0  0.1590313740154095  0.6067583261171106  0.4543159006559454  1.0000
  H   H5        1.0  0.1609114979036639  0.2368217171104272  0.6801564250451198  1.0000
  H   H6        1.0  0.2885594363385872  0.23903284318554574  0.6818523221543527  1.0000
  H   H7        1.0  0.3870953211924553  0.220231973353904  0.5393766488098874  1.0000
  C   C14       1.0  0.8357380656935749  0.03818926507368747  0.5671220901221161  1.0000
  C   C15       1.0  0.8238571899893787  0.04788240749179429  0.43220558727229985  1.0000
  C   C16       1.0  0.8177659278996289  0.9356594403482382  0.3636823717546689  1.0000
  C   C17       1.0  0.8236907730598857  0.8126228534078098  0.43189784636097084  1.0000
  C   C18       1.0  0.8355826126731434  0.800974475103332  0.5668959338718449  1.0000
  C   C19       1.0  0.8415361452629395  0.9142748703553876  0.6336769505612936  1.0000
  C   C20       1.0  0.805198255301707  0.946887282488143  0.22095700267170404  1.0000
  C   C21       1.0  0.8405063341732364  0.04092345895960037  0.13953729936942283  1.0000
  C   C22       1.0  0.82868505393106  0.05135871133895953  0.005223215564246209  1.0000
  C   C23       1.0  0.7817521666761056  0.967083295718683  0.9494835105909876  1.0000
  C   C24       1.0  0.7455938156473432  0.8748648032580819  0.030835204843510988  1.0000
  C   C25       1.0  0.7574404515371708  0.8641734819696852  0.16511195063215833  1.0000
  N   N4        1.0  0.7676910203223503  0.9773204336650588  0.8119316451176704  1.0000
  C   C26       1.0  0.8185250291117786  0.014153106124686898  0.7137099509928113  1.0000
  O   O1        1.0  0.8823819925309546  0.01658689287020798  0.7415559541219516  1.0000
  C   C27       1.0  0.7963283772074139  0.04060930256532025  0.5751807079689133  1.0000
  H   H8        1.0  0.8403295658337628  0.36193701776034004  0.6190110503487471  1.0000
  H   H9        1.0  0.8183536251833415  0.1429263895098256  0.38039944698734773  1.0000
  H   H10       1.0  0.8199501280267539  0.7258195674321568  0.37927263032846104  1.0000
  H   H11       1.0  0.850702456365105  0.9060834779623061  0.7377404228021056  1.0000
  H   H12       1.0  0.8584446666520316  0.5717047351921474  0.8215668783909857  1.0000
  H   H13       1.0  0.8776737337517364  0.10591804040705233  0.17962122082050458  1.0000
  H   H14       1.0  0.8553938499049951  0.12675820306751362  0.9456410896743672  1.0000
  H   H15       1.0  0.7083596769330748  0.8105742113352085  0.9898843016056724  1.0000
  H   H16       1.0  0.7284948477824309  0.7923942175971695  0.22552736987566613  1.0000
  H   H17       1.0  0.7186651232717108  0.9485271157950039  0.7808682078258293  1.0000
  H   H18       1.0  0.7460808885411782  0.09413752877825332  0.5707359772987539  1.0000
  H   H19       1.0  0.7898903676758399  0.9470014092595839  0.5299599751716575  1.0000
  H   H20       1.0  0.8359596773975517  0.10062380023828865  0.5197812866630098  1.0000
  C   C28       1.0  0.8356883290002791  0.4194704941090013  0.18565692910725962  1.0000
  C   C29       1.0  0.7695143327933265  0.3615645074474887  0.18917999339551628  1.0000
  C   C30       1.0  0.7359558808257674  0.3323374037899183  0.07381821232582242  1.0000
  C   C31       1.0  0.7694572981652164  0.3617900579388724  0.9538760399188972  1.0000
  C   C32       1.0  0.8356323328420937  0.4196932191826208  0.9483611379911911  1.0000
  C   C33       1.0  0.8683772556302121  0.4482099757083704  0.06477474212440293  1.0000
  C   C34       1.0  0.665948384617559  0.27109275390177223  0.07860812385484195  1.0000
  C   C35       1.0  0.6143865553079312  0.31284246197699805  0.9876482133831286  1.0000
  C   C36       1.0  0.5485107646553246  0.25516887113020825  0.9923929926733277  1.0000
  C   C37       1.0  0.5332359030135573  0.1553769860827443  0.08798795945477389  1.0000
  C   C38       1.0  0.5841783803771385  0.11282931402340024  0.17854256348753816  1.0000
  C   C39       1.0  0.6500972712458041  0.1703293905170149  0.1741602360886645  1.0000
  S   S1        1.0  0.4487367873564977  0.08124058114861965  0.09362598064555883  1.0000
  C   C40       1.0  0.4130164766526558  0.19552366502306517  0.20232724993889195  1.0000
  H   H21       1.0  0.8609138114400761  0.4414877834982127  0.5117715021072209  1.0000
  H   H22       1.0  0.743504104170243  0.34068382136946695  0.2817400424118284  1.0000
  H   H23       1.0  0.7442198451819425  0.3378287744758375  0.8648153124736093  1.0000
  H   H24       1.0  0.9194278388629705  0.4928811956218977  0.06128847613059385  1.0000
  H   H25       1.0  0.860832618866869  0.4418154065941118  0.6188018503054815  1.0000
  H   H26       1.0  0.6247215004937147  0.39119895732631793  0.9139449330696885  1.0000
  H   H27       1.0  0.5092829304575066  0.28856977261726846  0.9220585892546236  1.0000
  H   H28       1.0  0.5727793769914005  0.035170612249001865  0.2523706860248218  1.0000
  H   H29       1.0  0.6889510046654748  0.13487796894844273  0.24439449724959927  1.0000
  H   H30       1.0  0.44245272852054623  0.18944422989348952  0.29533805724631446  1.0000
  H   H31       1.0  0.3577810145361567  0.17048476101770693  0.22311660142910217  1.0000
  H   H32       1.0  0.4156866522490028  0.29624875008383644  0.1557056288161034  1.0000
  Zn  Zn1       1.0  0.7593860624424507  0.41971003308207755  0.5670240939990496  1.0000
  Zn  Zn2       1.0  0.9119279273273794  0.4194530591817611  0.5669933500408664  1.0000
  C   C41       1.0  0.8356424121201615  0.4144770485339506  0.804195222801851  1.0000
  C   C42       1.0  0.8356732430587094  0.4246876797037078  0.32982234787733633  1.0000
  C   C43       1.0  0.8356087743332621  0.6567903005236042  0.5617637522175747  1.0000
  C   C44       1.0  0.8357068291067056  0.1823728674021028  0.5722538881702919  1.0000
  O   O2        1.0  0.893557023979049  0.42633542842565864  0.37819391389186197  1.0000
  O   O3        1.0  0.8935343772961505  0.4126332826623278  0.7557999492953658  1.0000
  O   O4        1.0  0.8935064338893811  0.6083042998222254  0.5600348213126023  1.0000
  O   O5        1.0  0.893584915338869  0.2306644206159365  0.5739589445119895  1.0000
  O   O6        1.0  0.7777290223759094  0.6084986717370071  0.5600584995315865  1.0000
  O   O7        1.0  0.7777569654665304  0.41282921497816605  0.7558235578093309  1.0000
  O   O8        1.0  0.7777796123195956  0.4265313150261265  0.3782159610874305  1.0000
  O   O9        1.0  0.7778075036713132  0.23086029795533358  0.5739810890738541  1.0000
