data_image0
_chemical_formula_structural       NC10NC3NH7C16H10C12BrH9Zn2C4O8
_chemical_formula_sum              "N3 C45 H26 Br1 Zn2 O8"
_cell_length_a       19.210446455230148
_cell_length_b       10.29914801576943
_cell_length_c       10.299148005577397
_cell_angle_alpha    85.52895802354352
_cell_angle_beta     89.9640022898858
_cell_angle_gamma    89.9607823085547

_space_group_name_H-M_alt    "P 1"
_space_group_IT_number       1

loop_
  _space_group_symop_operation_xyz
  'x, y, z'

loop_
  _atom_site_type_symbol
  _atom_site_label
  _atom_site_symmetry_multiplicity
  _atom_site_fract_x
  _atom_site_fract_y
  _atom_site_fract_z
  _atom_site_occupancy
  N   N1        1.0  0.6560060776146065  0.42051350384866715  0.5667242580888787  1.0000
  C   C1        1.0  0.5957775786977548  0.42272113391714217  0.5669545958992745  1.0000
  C   C2        1.0  0.5209732016992382  0.42545819097705917  0.5672399549321088  1.0000
  C   C3        1.0  0.4853642341184322  0.5416942564708211  0.5823092046633145  1.0000
  C   C4        1.0  0.4126987733935704  0.541845812546744  0.5822565485134241  1.0000
  C   C5        1.0  0.3758064599006881  0.42616719263981584  0.5673261783768908  1.0000
  C   C6        1.0  0.2984843044420963  0.424810647812379  0.567176083976525  1.0000
  C   C7        1.0  0.2607491914871479  0.5283985576058075  0.5037728810183513  1.0000
  C   C8        1.0  0.1879707983956308  0.5269962477905406  0.5036643232869678  1.0000
  C   C9        1.0  0.1519261303598642  0.42226356389695074  0.5669078735874591  1.0000
  C   C10       1.0  0.0769965834451661  0.42096141462621217  0.5667715228752175  1.0000
  N   N2        1.0  0.0167587095218556  0.41991444239510045  0.5666619317965063  1.0000
  C   C11       1.0  0.1889375971343763  0.31880135930151443  0.6302860201881855  1.0000
  C   C12       1.0  0.2617178154666332  0.31992937411630584  0.6304449280825859  1.0000
  C   C13       1.0  0.4140253049470162  0.3117514616755346  0.552544429370841  1.0000
  N   N3        1.0  0.4847953230519801  0.31419657773612286  0.5527090902911804  1.0000
  H   H1        1.0  0.513466418332229  0.6311320559576543  0.5943249157615518  1.0000
  H   H2        1.0  0.3854308496930224  0.6318652900754156  0.5956668301426034  1.0000
  H   H3        1.0  0.2874914476009823  0.6096657973361039  0.45274970407025994  1.0000
  H   H4        1.0  0.1598390265177878  0.6074355089602332  0.45397190830242673  1.0000
  H   H5        1.0  0.1615560175486106  0.23739865128018778  0.6798793043444138  1.0000
  H   H6        1.0  0.2892043965455073  0.23960907273531418  0.6815750905234383  1.0000
  H   H7        1.0  0.3877590074517604  0.22086901158017036  0.5390882195935358  1.0000
  C   C14       1.0  0.8363361092687677  0.038812668389708316  0.5668586618956233  1.0000
  C   C15       1.0  0.8204756245324868  0.048457298340966126  0.43338089255337  1.0000
  C   C16       1.0  0.8124852161448765  0.9362175089391356  0.3655402094509097  1.0000
  C   C17       1.0  0.8205686472595304  0.8132053878471825  0.4329762663865875  1.0000
  C   C18       1.0  0.8364353156621601  0.8016052931060608  0.5665387917010891  1.0000
  C   C19       1.0  0.8442225966673267  0.9149253917887887  0.6326575999070947  1.0000
  C   C20       1.0  0.795706907895874  0.9474659696546365  0.22433682691729495  1.0000
  C   C21       1.0  0.8286618888645233  0.8664385901065706  0.1391092728754071  1.0000
  C   C22       1.0  0.8128464046969092  0.8771504705629466  0.006214096442656469  1.0000
  C   C23       1.0  0.763913653110592  0.9687905725769831  0.9567421585820899  1.0000
  C   C24       1.0  0.7308320648429945  0.04979866522706544  0.04068573080489113  1.0000
  C   C25       1.0  0.7465979132314325  0.03932812983524081  0.1736018634156915  1.0000
  C   C26       1.0  0.7476572886253343  0.9796947183129198  0.8199141205103846  1.0000
  C   C27       1.0  0.7340427584905077  0.9888268359302445  0.7053226180789722  1.0000
  C   C28       1.0  0.7181003045241979  0.9995204225827401  0.5711371372377623  1.0000
  C   C29       1.0  0.7044880594842718  0.008651156525690151  0.4565641430804859  1.0000
  H   H8        1.0  0.8424009287955685  0.3625775877828983  0.6182140304375572  1.0000
  H   H9        1.0  0.8152373153955189  0.14352889733747753  0.38146917686611803  1.0000
  H   H10       1.0  0.8135334943601581  0.726331314993661  0.3815594668631572  1.0000
  H   H11       1.0  0.8564541594400996  0.9067703536806874  0.7356132856307251  1.0000
  H   H12       1.0  0.8659517020503786  0.5724048487753102  0.8188093775103822  1.0000
  H   H13       1.0  0.8673215453114573  0.7959644887508908  0.1749540413853099  1.0000
  H   H14       1.0  0.8389052611522781  0.8141936456020278  0.9420316018147918  1.0000
  H   H15       1.0  0.6927264142997139  0.12083639845627658  0.0034709069043272756  1.0000
  H   H16       1.0  0.7197277971663  0.10189661184132115  0.23698167158654004  1.0000
  H   H17       1.0  0.692535412556323  0.016668712131647112  0.3559593933638312  1.0000
  C   C30       1.0  0.836480602822162  0.42026087459477424  0.1853104805501733  1.0000
  C   C31       1.0  0.7710127184340739  0.48115462683536325  0.17985926457909818  1.0000
  C   C32       1.0  0.7377210810427753  0.5119759537765325  0.059957154958799164  1.0000
  C   C33       1.0  0.7707803866364452  0.4810822013552658  0.9445823003369163  1.0000
  C   C34       1.0  0.8362908172637503  0.4201571089695897  0.9480869104047533  1.0000
  C   C35       1.0  0.8687374021514023  0.39011962665439137  0.06887466461558645  1.0000
  C   C36       1.0  0.6684644583536242  0.5763961258909356  0.05523534168953881  1.0000
  C   C37       1.0  0.653855918534199  0.6777468576730199  0.13527338364834995  1.0000
  C   C38       1.0  0.5886401238587889  0.738269302332665  0.1306344415054992  1.0000
  C   C39       1.0  0.5372916336191434  0.6984074239463076  0.04629541736121823  1.0000
  C   C40       1.0  0.5512011331154355  0.5978447861259981  0.9664047007991523  1.0000
  C   C41       1.0  0.6163577182425438  0.5371004552655734  0.9706512078023906  1.0000
  Br  Br1       1.0  0.44824785021141417  0.7812330471460878  0.04022588855057285  1.0000
  H   H18       1.0  0.8616765935273405  0.3968911794234986  0.5148787168123776  1.0000
  H   H19       1.0  0.745329328802935  0.5031453990738477  0.26919400778869584  1.0000
  H   H20       1.0  0.7457846240258098  0.5062208234077954  0.8517596184726446  1.0000
  H   H21       1.0  0.9192354235111546  0.34315469284874855  0.07236327989104696  1.0000
  H   H22       1.0  0.9601327809133549  0.3058991708105694  0.7473524392274564  1.0000
  H   H23       1.0  0.6931373060857473  0.711301630986013  0.2001600782830928  1.0000
  H   H24       1.0  0.5781384703108953  0.8163597846276409  0.19240801713528688  1.0000
  H   H25       1.0  0.5115082443790355  0.5664428673205175  0.9012101736701497  1.0000
  H   H26       1.0  0.625694497291114  0.45832255672807376  0.909079216537358  1.0000
  Zn  Zn1       1.0  0.7601114913412949  0.4203371622855834  0.5667137729671614  1.0000
  Zn  Zn2       1.0  0.9126532758323838  0.42008019906465277  0.5666830576726438  1.0000
  C   C42       1.0  0.8363244736274733  0.41500260027285507  0.8039080307386686  1.0000
  C   C43       1.0  0.8364419594791817  0.4254163970127869  0.3294889263513767  1.0000
  C   C44       1.0  0.8364142739954391  0.6574219707762656  0.5614237986422348  1.0000
  C   C45       1.0  0.8363521068391798  0.18299546615251772  0.5719732283548395  1.0000
  O   O1        1.0  0.8943178019194585  0.4270434550066795  0.3778648759307148  1.0000
  O   O2        1.0  0.8942243160048772  0.4131795333851378  0.755508395507432  1.0000
  O   O3        1.0  0.8942960502328293  0.6089362420088571  0.5597006620641678  1.0000
  O   O4        1.0  0.8942460156647641  0.2312867557749041  0.5736725120009629  1.0000
  O   O5        1.0  0.7785186994538918  0.6091306056644363  0.5597243186424921  1.0000
  O   O6        1.0  0.778446965442953  0.4133754574866799  0.7555319821823772  1.0000
  O   O7        1.0  0.7785404517864298  0.4272393340607703  0.3778869011448547  1.0000
  O   O8        1.0  0.778468665503455  0.23148262552615462  0.5736946345917684  1.0000
