data_image0
_chemical_formula_structural       NC8NC6H8C12NH11C13OH12Zn2C4O8
_chemical_formula_sum              "N3 C43 H31 O9 Zn2"
_cell_length_a       17.457602349358154
_cell_length_b       10.299770795358612
_cell_length_c       10.299153481560891
_cell_angle_alpha    85.5776922204699
_cell_angle_beta     92.89209155736368
_cell_angle_gamma    91.70596819880058

_space_group_name_H-M_alt    "P 1"
_space_group_IT_number       1

loop_
  _space_group_symop_operation_xyz
  'x, y, z'

loop_
  _atom_site_type_symbol
  _atom_site_label
  _atom_site_symmetry_multiplicity
  _atom_site_fract_x
  _atom_site_fract_y
  _atom_site_fract_z
  _atom_site_occupancy
  N   N1        1.0  0.7224523561543654  0.4522953828246481  0.6263641874385004  1.0000
  C   C1        1.0  0.6613642171858676  0.4063659620899742  0.6157516099419151  1.0000
  C   C2        1.0  0.5853679919670314  0.3492354808219398  0.60255910530716  1.0000
  C   C3        1.0  0.5268596312081827  0.3894267325010805  0.6774556491753567  1.0000
  C   C4        1.0  0.4523019810551425  0.33441475679113797  0.664877440532142  1.0000
  C   C5        1.0  0.39020389722900983  0.37685089270214145  0.7441957305495734  1.0000
  C   C6        1.0  0.3156509598855474  0.39529745332889443  0.6884294758654317  1.0000
  C   C7        1.0  0.25714258142160223  0.43530482168037143  0.7634339897262803  1.0000
  C   C8        1.0  0.1811512161983178  0.454356367502436  0.7054521745125539  1.0000
  N   N2        1.0  0.12006707392937581  0.4696674306995372  0.6588349466057062  1.0000
  C   C9        1.0  0.2726951098234108  0.4571089704418463  0.8947132703579752  1.0000
  C   C10       1.0  0.34646348106184993  0.43905154879490316  0.9508671038416023  1.0000
  C   C11       1.0  0.40496036655157913  0.3992244143480914  0.8763203092092742  1.0000
  C   C12       1.0  0.437540966311553  0.23853354765502321  0.5759697832881312  1.0000
  C   C13       1.0  0.49603772886800007  0.19862113302304407  0.501473231913242  1.0000
  C   C14       1.0  0.5698107289153901  0.2537457000108372  0.5146013955685129  1.0000
  H   H1        1.0  0.5392288955564387  0.4646472559886319  0.7440824220845903  1.0000
  H   H2        1.0  0.30328559312735026  0.38028717303510473  0.5864035924361963  1.0000
  H   H3        1.0  0.22784993798640982  0.48801483166126514  0.9535482644339786  1.0000
  H   H4        1.0  0.3583153561862585  0.4556193447160224  0.05251960194237626  1.0000
  H   H5        1.0  0.46145121875511963  0.38425066161942256  0.9224290105788471  1.0000
  H   H6        1.0  0.381046206603815  0.19319378147763455  0.5653210442502872  1.0000
  H   H7        1.0  0.48418227065958463  0.12451660248592966  0.43364802538890346  1.0000
  H   H8        1.0  0.6146558744990763  0.22197034033983964  0.4562776035887699  1.0000
  C   C15       1.0  0.9211938640928884  0.07960999009925018  0.6426337827782547  1.0000
  C   C16       1.0  0.8989029669226188  0.0877621088018441  0.5094018755123049  1.0000
  C   C17       1.0  0.8876783592778787  0.9747597550813807  0.4418628685664392  1.0000
  C   C18       1.0  0.8990433834424312  0.852486604567801  0.5093447890269338  1.0000
  C   C19       1.0  0.9213328922944193  0.8423431336018006  0.6425771334695718  1.0000
  C   C20       1.0  0.9322836841227631  0.9564538781504983  0.7084754521591698  1.0000
  C   C21       1.0  0.864096219741967  0.9844376433591356  0.30091127103131043  1.0000
  C   C22       1.0  0.8082229115169475  0.07315746802426415  0.25116088671216885  1.0000
  C   C23       1.0  0.7860602987375754  0.08213850806045664  0.11849886871926052  1.0000
  C   C24       1.0  0.8193516597882917  0.0028000669348045015  0.03347283364637654  1.0000
  C   C25       1.0  0.8750407077315401  0.9142699397122832  0.08231760400056021  1.0000
  C   C26       1.0  0.8972647755731598  0.9050355476783375  0.2149546673758147  1.0000
  N   N3        1.0  0.7966494912367209  0.01211646993569282  0.8977822220195764  1.0000
  H   H9        1.0  0.9296551016146817  0.40395449472128875  0.6934157842322957  1.0000
  H   H10       1.0  0.8912349749156977  0.18231315328704012  0.4574229892876114  1.0000
  H   H11       1.0  0.8894496841698792  0.7650196191430616  0.45814875347141526  1.0000
  H   H12       1.0  0.94947951842059  0.949396826245075  0.8112579187462852  1.0000
  H   H13       1.0  0.929859582335353  0.5110270118974849  0.6933328583361029  1.0000
  H   H14       1.0  0.7809422990600257  0.13440146172691292  0.31513685156157445  1.0000
  H   H15       1.0  0.7427992198327481  0.15071723906240564  0.08205414508842934  1.0000
  H   H16       1.0  0.9013723669111063  0.8526386726222511  0.017574864853622252  1.0000
  H   H17       1.0  0.9411137704575584  0.8369922352696058  0.250007847395612  1.0000
  H   H18       1.0  0.821139790666345  0.9533663702988613  0.8336420017532702  1.0000
  H   H19       1.0  0.7551840108482185  0.0778332490397513  0.8604609571448409  1.0000
  C   C27       1.0  0.9211974623734318  0.4608262459690178  0.26122756175983985  1.0000
  C   C28       1.0  0.8418713805850057  0.4329802954340287  0.25542314078121797  1.0000
  C   C29       1.0  0.8017905799968875  0.4190306606049843  0.13532397205949387  1.0000
  C   C30       1.0  0.8420524515382345  0.4333055045522738  0.020129931861481376  1.0000
  C   C31       1.0  0.9213293162760566  0.4611268706254812  0.023983388208472123  1.0000
  C   C32       1.0  0.9604389191319492  0.47472118448518796  0.14502788421806279  1.0000
  C   C33       1.0  0.7179233507956646  0.3896037151033087  0.13016033939661775  1.0000
  C   C34       1.0  0.669411895345464  0.45272079441269053  0.03352526557890001  1.0000
  C   C35       1.0  0.5904878898222959  0.42507224469880933  0.0287439340133  1.0000
  C   C36       1.0  0.5587467805858616  0.3329734841158767  0.11961992119670328  1.0000
  C   C37       1.0  0.6067437431446338  0.27093020293116576  0.2171314121498258  1.0000
  C   C38       1.0  0.6856713829160251  0.2985492641261147  0.2220911928037479  1.0000
  C   C39       1.0  0.47372049006845  0.305972025745856  0.11659482341987482  1.0000
  O   O1        1.0  0.439276484316819  0.39205494349864134  0.19328136527460082  1.0000
  H   H20       1.0  0.07083195124543917  0.5142122339911825  0.4794040331844551  1.0000
  H   H21       1.0  0.8109384054232409  0.42386513321036756  0.3443733070020958  1.0000
  H   H22       1.0  0.8116102460085313  0.4209232305331563  0.9274657696922515  1.0000
  H   H23       1.0  0.0215871226309583  0.4961842641245886  0.14871595695579232  1.0000
  H   H24       1.0  0.951811852297436  0.47191341948406884  0.6979826758264474  1.0000
  H   H25       1.0  0.6923590820662037  0.5249793647595353  0.96283520597034  1.0000
  H   H26       1.0  0.5540958698556571  0.47576240819946225  0.9542865286581255  1.0000
  H   H27       1.0  0.5830895006653792  0.2008471306600974  0.28920341472610245  1.0000
  H   H28       1.0  0.7216022677154512  0.2476384537092542  0.29703417141291966  1.0000
  H   H29       1.0  0.4615251174726445  0.20365209307723764  0.15442685914071008  1.0000
  H   H30       1.0  0.44943846241739466  0.3182763701676177  0.01447980713522079  1.0000
  H   H31       1.0  0.3835003488599983  0.37026450942700473  0.1880248125213746  1.0000
  Zn  Zn1       1.0  0.8371953754471229  0.4573051008132467  0.6357420460311944  1.0000
  Zn  Zn2       1.0  0.005324040283561926  0.46464706900788655  0.6494677215817115  1.0000
  C   C40       1.0  0.9213017237422056  0.455896255977676  0.8798064600631952  1.0000
  C   C41       1.0  0.9212195282689993  0.4660576326987065  0.4054035847815216  1.0000
  C   C42       1.0  0.9213017739386639  0.6981681147690026  0.6374122641709685  1.0000
  C   C43       1.0  0.9212194204295271  0.2237842111159698  0.6477978453461875  1.0000
  O   O2        1.0  0.9850308848478742  0.47059390676067236  0.45899919793174204  1.0000
  O   O3        1.0  0.9850961332984889  0.4569313860172193  0.8366279432831447  1.0000
  O   O4        1.0  0.9850953139583802  0.6525689389094576  0.640892844802379  1.0000
  O   O5        1.0  0.9850316468019207  0.27495636061502515  0.6547341943512082  1.0000
  O   O6        1.0  0.8574877115547013  0.646995806702066  0.6304755685709666  1.0000
  O   O7        1.0  0.8574885311637608  0.4513598140971946  0.8262105976885625  1.0000
  O   O8        1.0  0.8574232824860402  0.46502228897119013  0.4485802909071268  1.0000
  O   O9        1.0  0.857424044452086  0.26938473357490933  0.6443153846971623  1.0000
