data_image0
_chemical_formula_structural       NC11NC3H8C16H10C12NCOCH13Zn2C4O8
_chemical_formula_sum              "N3 C48 H31 O9 Zn2"
_cell_length_a       17.807433833752565
_cell_length_b       10.29914801576943
_cell_length_c       10.299158637457994
_cell_angle_alpha    85.55741753884429
_cell_angle_beta     88.50589662061448
_cell_angle_gamma    90.69784511463686

_space_group_name_H-M_alt    "P 1"
_space_group_IT_number       1

loop_
  _space_group_symop_operation_xyz
  'x, y, z'

loop_
  _atom_site_type_symbol
  _atom_site_label
  _atom_site_symmetry_multiplicity
  _atom_site_fract_x
  _atom_site_fract_y
  _atom_site_fract_z
  _atom_site_occupancy
  N   N1        1.0  0.7078835848651117  0.4380797793005966  0.5340430389341546  1.0000
  C   C1        1.0  0.6570470335534715  0.40337370230191394  0.6006205456019611  1.0000
  C   C2        1.0  0.5938012400557315  0.3602022022178655  0.6834344683217783  1.0000
  C   C3        1.0  0.6054969441977676  0.2966900981566687  0.8061806366650119  1.0000
  C   C4        1.0  0.5441591984221156  0.2551977064560651  0.8867099090431094  1.0000
  C   C5        1.0  0.47097123944501634  0.2769043508477411  0.8451339459734397  1.0000
  C   C6        1.0  0.4582988480282968  0.34057085624838757  0.7219275110375671  1.0000
  C   C7        1.0  0.3805433664205928  0.3636067470064055  0.6775703139283524  1.0000
  C   C8        1.0  0.3617811668256741  0.3466870636081434  0.5479952708101494  1.0000
  C   C9        1.0  0.2885632679599063  0.3683549610495729  0.5063752516227844  1.0000
  C   C10       1.0  0.23316469002528922  0.40726080541153986  0.5935098598268578  1.0000
  C   C11       1.0  0.157810411851271  0.4295867409101788  0.5505282578154136  1.0000
  N   N2        1.0  0.0972309448350468  0.44753513439404125  0.5159741780046101  1.0000
  C   C12       1.0  0.2512354530939824  0.4243908951987565  0.7225536754025221  1.0000
  C   C13       1.0  0.3244005385092226  0.402688155479187  0.7644291415211173  1.0000
  C   C14       1.0  0.520493902038332  0.38205868845674273  0.6414146565757968  1.0000
  H   H1        1.0  0.661954169777536  0.27928598472677924  0.8395537740825831  1.0000
  H   H2        1.0  0.5533329750509312  0.20577485615592317  0.9814676238802389  1.0000
  H   H3        1.0  0.4243154880411991  0.24236790670935604  0.9085880590275528  1.0000
  H   H4        1.0  0.4034676648022514  0.3150181558721865  0.4792909326456709  1.0000
  H   H5        1.0  0.2751381698268828  0.3544375396727961  0.40634518936791664  1.0000
  H   H6        1.0  0.2088320940355871  0.4548364903416502  0.7907437426262718  1.0000
  H   H7        1.0  0.3372974549894228  0.4181510513961382  0.8642758102303125  1.0000
  H   H8        1.0  0.5120187514696575  0.4328440893272425  0.5468906992775555  1.0000
  C   C15       1.0  0.90250732697882  0.06140492666108388  0.5251764531469356  1.0000
  C   C16       1.0  0.8853784783437084  0.07054073806474737  0.39249617614445786  1.0000
  C   C17       1.0  0.8767490265769743  0.9580443113132495  0.32505729048367815  1.0000
  C   C18       1.0  0.8854788404924105  0.8352912177479329  0.39208692452820926  1.0000
  C   C19       1.0  0.9026143700463839  0.824200156299087  0.5248516451479279  1.0000
  C   C20       1.0  0.9110244492811796  0.9377703696162446  0.590578870047157  1.0000
  C   C21       1.0  0.8586289559074517  0.9687545081578628  0.18469755009137945  1.0000
  C   C22       1.0  0.8941889347902134  0.8886029676283369  0.09782880728025711  1.0000
  C   C23       1.0  0.8771087025242418  0.8988075751929265  0.9657288515721274  1.0000
  C   C24       1.0  0.8242931900805671  0.9890591396013024  0.9187015024107978  1.0000
  C   C25       1.0  0.7885964607780032  0.0691872222521599  0.004292638982517305  1.0000
  C   C26       1.0  0.805623124686914  0.05922258685458104  0.13641602747058945  1.0000
  C   C27       1.0  0.8067368016054884  0.9994417572845007  0.7826908630055849  1.0000
  C   C28       1.0  0.7920335154260878  0.00813710102869436  0.6687839231298485  1.0000
  C   C29       1.0  0.77481614097698  0.01831923054253748  0.5354000569630322  1.0000
  C   C30       1.0  0.7601153225710475  0.027013263558793854  0.4215115104945184  1.0000
  H   H9        1.0  0.9090571769379979  0.3853645686842846  0.5762268583916539  1.0000
  H   H10       1.0  0.8797206047146301  0.1654403714844639  0.34084819367047303  1.0000
  H   H11       1.0  0.8778817393978812  0.7481953477077293  0.3410235241554602  1.0000
  H   H12       1.0  0.9242341723588317  0.9300077399920248  0.6929195310570142  1.0000
  H   H13       1.0  0.9344915080795764  0.5959485592810545  0.775637927449879  1.0000
  H   H14       1.0  0.935915921258935  0.8192242685930221  0.13174235332488715  1.0000
  H   H15       1.0  0.9052277070868469  0.8365449182228565  0.9002484613087072  1.0000
  H   H16       1.0  0.7474672780705431  0.13914430825308188  0.968981444796682  1.0000
  H   H17       1.0  0.7766284894119024  0.12107388896604387  0.2011342595236678  1.0000
  H   H18       1.0  0.7472068205610952  0.03464736037778415  0.3215077609656247  1.0000
  C   C31       1.0  0.9026312677043626  0.4426662783953619  0.1436377330986649  1.0000
  C   C32       1.0  0.9043959919126056  0.5794240071387147  0.13218496155596782  1.0000
  C   C33       1.0  0.9052317871788101  0.648900505451949  0.009223292468941935  1.0000
  C   C34       1.0  0.9042522253623815  0.579780416072978  0.896880003998636  1.0000
  C   C35       1.0  0.9024904384988811  0.44293884264720496  0.9063903682620129  1.0000
  C   C36       1.0  0.9016940921294083  0.3752232607523527  0.030156114537461587  1.0000
  C   C37       1.0  0.9070995491584152  0.7935734228669489  0.9980811623082908  1.0000
  C   C38       1.0  0.9532200791638108  0.8625331307536337  0.07847972611613696  1.0000
  C   C39       1.0  0.9549838643613665  0.9986781247902281  0.06786325259300052  1.0000
  C   C40       1.0  0.911138530648848  0.068604733005321  0.9757187100238363  1.0000
  C   C41       1.0  0.8641233726893836  0.9999837176063098  0.8971445925268076  1.0000
  C   C42       1.0  0.862390435086356  0.8638673845265825  0.9074986359068835  1.0000
  N   N3        1.0  0.9108712868536649  0.20865611281971708  0.9644370022762621  1.0000
  C   C43       1.0  0.9752489889717019  0.2892141323177926  0.9846477895381596  1.0000
  O   O1        1.0  0.040015701059682884  0.2413701347879802  0.9901789389124906  1.0000
  C   C44       1.0  0.9664566602543483  0.4328279750522417  0.9895980729290397  1.0000
  H   H19       1.0  0.9019760160338286  0.39006211580222594  0.4755176407490631  1.0000
  H   H20       1.0  0.9040749927768802  0.6322379453663849  0.21912856330108532  1.0000
  H   H21       1.0  0.9058883966632856  0.6328382563139132  0.8018102311556072  1.0000
  H   H22       1.0  0.9003354908958288  0.269738891900017  0.038274888312879174  1.0000
  H   H23       1.0  0.8996212413982319  0.18465322868085754  0.7170273074274212  1.0000
  H   H24       1.0  0.9883744916501616  0.8111553810664422  0.14906271590124875  1.0000
  H   H25       1.0  0.9896579339782068  0.04886395918054598  0.13326491623450698  1.0000
  H   H26       1.0  0.8289904739225702  0.052237071404601654  0.8271295279432929  1.0000
  H   H27       1.0  0.8252551090293754  0.8135749942555595  0.8458954562487611  1.0000
  H   H28       1.0  0.8621782809236129  0.25493262563522334  0.9317301219550664  1.0000
  H   H29       1.0  0.9136334661781634  0.45326168250218046  0.043458197768903695  1.0000
  H   H30       1.0  0.9644433459274789  0.47945038662772044  0.8889531407963438  1.0000
  H   H31       1.0  0.014392033544164962  0.4747631950456537  0.040011142265822475  1.0000
  Zn  Zn1       1.0  0.8202408205157341  0.44080491826215806  0.5288362421224004  1.0000
  Zn  Zn2       1.0  0.9848736909787715  0.4447993786847899  0.521191565557724  1.0000
  C   C45       1.0  0.9025146538178902  0.4377131257296669  0.7622160437846217  1.0000
  C   C46       1.0  0.9026016556688912  0.4478928536465856  0.28781180718692556  1.0000
  C   C47       1.0  0.9025912314620465  0.680013688586526  0.5197379258853789  1.0000
  C   C48       1.0  0.9025250216152667  0.2055907290109853  0.5302899975992463  1.0000
  O   O2        1.0  0.9650690331533834  0.4511571507172796  0.3332968309946134  1.0000
  O   O3        1.0  0.9649998156010465  0.4374795517515735  0.7109285139140942  1.0000
  O   O4        1.0  0.9650608105437186  0.6331403006151048  0.5151257566714269  1.0000
  O   O5        1.0  0.9650079820519477  0.255496409746959  0.5290994934653805  1.0000
  O   O6        1.0  0.8401064732614406  0.6301078858382876  0.5209283168166647  1.0000
  O   O7        1.0  0.8400454785471196  0.43444869739179537  0.7167310041481765  1.0000
  O   O8        1.0  0.8401146964313656  0.4481262505408332  0.339097759814718  1.0000
  O   O9        1.0  0.8400536453075762  0.2524655003156002  0.5349005196593066  1.0000
