data_image0
_chemical_formula_structural       NC12NC2H8C13OH12C13F3H9Zn2C4O8
_chemical_formula_sum              "N2 C44 H29 O9 F3 Zn2"
_cell_length_a       19.240039667572717
_cell_length_b       10.299150109392551
_cell_length_c       10.2985328690268
_cell_angle_alpha    85.55822410433288
_cell_angle_beta     90.00547390957905
_cell_angle_gamma    89.97992514300192

_space_group_name_H-M_alt    "P 1"
_space_group_IT_number       1

loop_
  _space_group_symop_operation_xyz
  'x, y, z'

loop_
  _atom_site_type_symbol
  _atom_site_label
  _atom_site_symmetry_multiplicity
  _atom_site_fract_x
  _atom_site_fract_y
  _atom_site_fract_z
  _atom_site_occupancy
  N   N1        1.0  0.654137330201513  0.42094244581767404  0.5668826767540323  1.0000
  C   C1        1.0  0.5939889613642927  0.4209425297801799  0.5668825947837384  1.0000
  C   C2        1.0  0.519170924194114  0.4209426470325972  0.5668824574307796  1.0000
  C   C3        1.0  0.48271458624547137  0.35650429503859904  0.670323037161473  1.0000
  C   C4        1.0  0.4100438633660202  0.35639343178118255  0.6704096217478723  1.0000
  C   C5        1.0  0.3728386892277868  0.42094273953451  0.5668822297021836  1.0000
  C   C6        1.0  0.4100091934516307  0.48549223434942834  0.46335503215105334  1.0000
  C   C7        1.0  0.48267990718633647  0.4853811356117703  0.463441739323345  1.0000
  C   C8        1.0  0.2956335987980405  0.4209426608374829  0.5668821343049815  1.0000
  C   C9        1.0  0.2584691748256382  0.30768582965093794  0.6087924525263493  1.0000
  C   C10       1.0  0.1857984617230189  0.30779271008739184  0.6087010858815238  1.0000
  C   C11       1.0  0.149301311902186  0.4209425316731894  0.5668821952613905  1.0000
  C   C12       1.0  0.0744832747812737  0.42094241799831034  0.5668824439772644  1.0000
  N   N2        1.0  0.014334957947480298  0.4209423772360781  0.5668826524252149  1.0000
  C   C13       1.0  0.1857516729210398  0.5340924290762579  0.5250632517221565  1.0000
  C   C14       1.0  0.2584223443783408  0.5341994895976385  0.5249717224126886  1.0000
  H   H1        1.0  0.5104429396273606  0.3066149311127555  0.7510863672521573  1.0000
  H   H2        1.0  0.38296395130380934  0.30730256187942584  0.7522882843771015  1.0000
  H   H3        1.0  0.38290257471804073  0.5345831312900227  0.3814763186609127  1.0000
  H   H4        1.0  0.5103813253004269  0.5352703993525241  0.3826786850808217  1.0000
  H   H5        1.0  0.2855807660030488  0.21853298981234737  0.6399910831514126  1.0000
  H   H6        1.0  0.1581018198433624  0.21953944174045836  0.6409324703210513  1.0000
  H   H7        1.0  0.1580184913582526  0.6223456728888848  0.4928318818420425  1.0000
  H   H8        1.0  0.2854972320010005  0.623352408605292  0.49377304698727853  1.0000
  C   C15       1.0  0.8343049953549392  0.039542822577947945  0.5670267839331178  1.0000
  C   C16       1.0  0.833031912320711  0.02778076562386289  0.703847235880962  1.0000
  C   C17       1.0  0.8323259435883362  0.9046824719244966  0.772954396010028  1.0000
  C   C18       1.0  0.832897891169408  0.7925253090008308  0.7034838150919192  1.0000
  C   C19       1.0  0.8341739693011305  0.8023319863693973  0.5667497682547797  1.0000
  C   C20       1.0  0.834871975647543  0.9263014042527288  0.4993203158563271  1.0000
  C   C21       1.0  0.8309731014565318  0.8932212719506569  0.9176047920844179  1.0000
  C   C22       1.0  0.7882393943319582  0.8003619798925268  0.9856310441781895  1.0000
  C   C23       1.0  0.7869433448099563  0.7896584114760308  0.12174692232341167  1.0000
  C   C24       1.0  0.8288134331083601  0.8706562545539581  0.19229722093317292  1.0000
  C   C25       1.0  0.870882228362493  0.9644693791297271  0.12491358621897819  1.0000
  C   C26       1.0  0.8721944113026158  0.9753487444868504  0.988797419337212  1.0000
  C   C27       1.0  0.8259593384212457  0.8615087801045193  0.3383938742924606  1.0000
  O   O1        1.0  0.7740141462762133  0.9446965855557463  0.3786373995562462  1.0000
  H   H9        1.0  0.836256456113239  0.26903709228203754  0.30877176938606254  1.0000
  H   H10       1.0  0.8316229200321903  0.11456913603436414  0.7568595806998868  1.0000
  H   H11       1.0  0.833297197649405  0.697417650791311  0.7563210845062198  1.0000
  H   H12       1.0  0.8358542862201156  0.9345817965142899  0.39385325412434025  1.0000
  H   H13       1.0  0.8346180136681745  0.47862851043237775  0.5141570583217108  1.0000
  H   H14       1.0  0.7549982152713764  0.7373387790291023  0.9335186529338357  1.0000
  H   H15       1.0  0.7531364723496405  0.7183428759748843  0.17212606968200028  1.0000
  H   H16       1.0  0.9028432175257234  0.02904575893277328  0.1777722364637162  1.0000
  H   H17       1.0  0.9060246129001948  0.047109938486042724  0.9392249725632231  1.0000
  H   H18       1.0  0.8770853703951345  0.8893491849393891  0.37856672628638666  1.0000
  H   H19       1.0  0.8146664468803434  0.7594980526538437  0.37620914540433736  1.0000
  H   H20       1.0  0.7742766215009196  0.9350463479375516  0.47527094722384355  1.0000
  C   C28       1.0  0.8342195270278367  0.4208154730038012  0.18549082658306237  1.0000
  C   C29       1.0  0.9039188510443823  0.37992082960087514  0.18771877875687704  1.0000
  C   C30       1.0  0.9392360002531654  0.35931788342434245  0.07167680031967572  1.0000
  C   C31       1.0  0.9039598384618259  0.3801764668138583  0.9524180093839139  1.0000
  C   C32       1.0  0.8342594334428264  0.42105940444760215  0.948285712237702  1.0000
  C   C33       1.0  0.7998343971787475  0.441112655747286  0.06531958746799305  1.0000
  C   C34       1.0  0.012924781349237469  0.3160946811025642  0.0749667099702791  1.0000
  C   C35       1.0  0.06090616607787025  0.3706994973706612  0.9834052073039499  1.0000
  C   C36       1.0  0.13025717066344034  0.33012279808490996  0.9865229024432911  1.0000
  C   C37       1.0  0.15288905254439644  0.23271892847543763  0.08002978177446018  1.0000
  C   C38       1.0  0.1053096713968733  0.17993330271832564  0.17316795058611412  1.0000
  C   C39       1.0  0.035963185379459084  0.22054305961772402  0.17016116442053342  1.0000
  C   C40       1.0  0.22825087805559297  0.19242915063041632  0.08632792941236689  1.0000
  F   F1        1.0  0.26388083203644364  0.27175005226525095  0.16578379718691938  1.0000
  F   F2        1.0  0.257848181508719  0.20360320784501384  0.963466657088774  1.0000
  F   F3        1.0  0.23470947456898106  0.06429779566482607  0.1362605546524409  1.0000
  H   H21       1.0  0.7026460582033344  0.4989097317495581  0.3885424567947935  1.0000
  H   H22       1.0  0.9311391290550669  0.3657601512102897  0.27980292172179433  1.0000
  H   H23       1.0  0.9306551122955784  0.3627935520082912  0.8627936402345373  1.0000
  H   H24       1.0  0.7461155240901145  0.4726257164424823  0.06286933844034981  1.0000
  H   H25       1.0  0.7024237170615774  0.49757000113961136  0.7332086719669264  1.0000
  H   H26       1.0  0.045055092224348225  0.4464698109143843  0.9106484040567104  1.0000
  H   H27       1.0  0.16628254319632574  0.37535269738715304  0.9160211860572316  1.0000
  H   H28       1.0  0.12171590689089284  0.10705475574859324  0.24836658156749047  1.0000
  H   H29       1.0  0.00018798042446088736  0.1762672632672848  0.24168221126889744  1.0000
  Zn  Zn1       1.0  0.7580825950309384  0.420938960940064  0.5668901599785414  1.0000
  Zn  Zn2       1.0  0.9103897142635358  0.4209352711705556  0.5668857727410133  1.0000
  C   C41       1.0  0.8342512303303202  0.4158391846581866  0.8041030168841803  1.0000
  C   C42       1.0  0.8342227418783362  0.4260366862043201  0.3296730426682699  1.0000
  C   C43       1.0  0.8341948871994469  0.6581469813324157  0.5616265530439748  1.0000
  C   C44       1.0  0.8342790333090978  0.18372732912537826  0.5721495763205144  1.0000
  O   O2        1.0  0.8920235797783804  0.42778190660523396  0.37806024863140975  1.0000
  O   O3        1.0  0.8920479719297129  0.4140901838867159  0.7557121075911297  1.0000
  O   O4        1.0  0.8920016950412503  0.609756794552194  0.559910647010921  1.0000
  O   O5        1.0  0.8920698046880493  0.232115305200846  0.5738616118277904  1.0000
  O   O6        1.0  0.7764024526314793  0.6097589269124444  0.5599143208864286  1.0000
  O   O7        1.0  0.7764487292451084  0.4140938766543496  0.7557157116492632  1.0000
  O   O8        1.0  0.7764243370660763  0.4277855536139503  0.3780622911885132  1.0000
  O   O9        1.0  0.7764705619795934  0.232118942951143  0.5738637517633873  1.0000
