data_image0
_chemical_formula_structural       NC10NC5H10C12NCOCH13C12IH9Zn2C4O8
_chemical_formula_sum              "N3 C45 H32 O9 I1 Zn2"
_cell_length_a       19.4436361288709
_cell_length_b       10.299155265289647
_cell_length_c       10.29977335064465
_cell_angle_alpha    85.52787819197464
_cell_angle_beta     89.71371329934455
_cell_angle_gamma    89.39615277754326

_space_group_name_H-M_alt    "P 1"
_space_group_IT_number       1

loop_
  _space_group_symop_operation_xyz
  'x, y, z'

loop_
  _atom_site_type_symbol
  _atom_site_label
  _atom_site_symmetry_multiplicity
  _atom_site_fract_x
  _atom_site_fract_y
  _atom_site_fract_z
  _atom_site_occupancy
  N   N1        1.0  0.6472355615073295  0.4098328921010559  0.5617153112010662  1.0000
  C   C1        1.0  0.5883996952485736  0.4197288089362212  0.5760966797756002  1.0000
  C   C2        1.0  0.5150705053181535  0.43207031878348334  0.5940857467273224  1.0000
  C   C3        1.0  0.4728795153264083  0.4001152469274607  0.4994203240946684  1.0000
  C   C4        1.0  0.3969734695261568  0.4105518197690765  0.5047456341778525  1.0000
  C   C5        1.0  0.35725465868264067  0.38575208904882397  0.611824892504828  1.0000
  C   C6        1.0  0.2811314459181454  0.3896750496560948  0.5988644419054459  1.0000
  C   C7        1.0  0.2405701082990898  0.4472968414199985  0.6926199776493116  1.0000
  C   C8        1.0  0.16890444957283512  0.4509397878592327  0.6820750850084962  1.0000
  C   C9        1.0  0.1368054953578364  0.39656476802435825  0.5780612893118935  1.0000
  C   C10       1.0  0.0630105570952324  0.40026903477396036  0.567361098022634  1.0000
  N   N2        1.0  0.0036844319421564  0.4032470707952409  0.5587588536225605  1.0000
  C   C11       1.0  0.1766421424321547  0.3382356545022438  0.4846891775554014  1.0000
  C   C12       1.0  0.24832420533730742  0.33453859768643524  0.49498230663737375  1.0000
  C   C13       1.0  0.385414534455666  0.345227091542478  0.7429305834601045  1.0000
  C   C14       1.0  0.4440759912541284  0.3883300722266907  0.7901617116733841  1.0000
  C   C15       1.0  0.48825263001139685  0.486230220882069  0.7157680775022068  1.0000
  H   H1        1.0  0.4949716390888437  0.3710382027321073  0.4091210523555271  1.0000
  H   H2        1.0  0.3722571137677722  0.43309166839746993  0.4115810905348858  1.0000
  H   H3        1.0  0.2644431800164496  0.4905531366317055  0.7734569657411152  1.0000
  H   H4        1.0  0.138560706770751  0.4962236628226071  0.7549840515257824  1.0000
  H   H5        1.0  0.1522971956142046  0.2951748748743517  0.40418662111866754  1.0000
  H   H6        1.0  0.2780028931968356  0.28701084303337465  0.42277027152479496  1.0000
  H   H7        1.0  0.3544714569225028  0.2809752774449481  0.8071947203885039  1.0000
  H   H8        1.0  0.4592469128297764  0.3542145735946849  0.8881054306166667  1.0000
  H   H9        1.0  0.4581213451965683  0.5769629529370268  0.6904919784421837  1.0000
  H   H10       1.0  0.5315414544049224  0.5117886129524407  0.7788463909530421  1.0000
  C   C16       1.0  0.8255401155892479  0.02514098428264977  0.5603551472523005  1.0000
  C   C17       1.0  0.8137795871218342  0.03510860063827992  0.42552806778066965  1.0000
  C   C18       1.0  0.8077501291529126  0.9230259836618612  0.35705072741976096  1.0000
  C   C19       1.0  0.8136151068113996  0.7998519846284389  0.4252216484642066  1.0000
  C   C20       1.0  0.8253864813224554  0.7879289036890285  0.5601302282025173  1.0000
  C   C21       1.0  0.8312795766643809  0.9010922327173929  0.626866398604784  1.0000
  C   C22       1.0  0.7953097591479508  0.9345441718250427  0.21441995057974395  1.0000
  C   C23       1.0  0.8301836852619779  0.028041053817136063  0.1327134477254488  1.0000
  C   C24       1.0  0.8184821367961737  0.03874944594297758  0.9984883354999279  1.0000
  C   C25       1.0  0.7721003388383935  0.9552848344133014  0.943122701379163  1.0000
  C   C26       1.0  0.7363862738870308  0.8636197859200262  0.0247680132325252  1.0000
  C   C27       1.0  0.7481128695754169  0.8526549254953695  0.15895558240535923  1.0000
  N   N3        1.0  0.758185133323762  0.9658341386006951  0.8056776347665058  1.0000
  C   C28       1.0  0.8083970938070092  0.001879486723845858  0.7070438565224331  1.0000
  O   O1        1.0  0.8714966328536453  0.003237592430510139  0.7343788041148511  1.0000
  C   C29       1.0  0.7864432877514499  0.028783420572039864  0.5686866340114141  1.0000
  H   H11       1.0  0.8300850663483949  0.3487828072402692  0.6122095378381234  1.0000
  H   H12       1.0  0.8083334661476429  0.13027360091316798  0.37376381747570475  1.0000
  H   H13       1.0  0.8099107433349312  0.7131409300641348  0.37262414425435475  1.0000
  H   H14       1.0  0.8403530333995135  0.892689094206671  0.7308608779067753  1.0000
  H   H15       1.0  0.8480161700222846  0.5581338345235817  0.8146288819065626  1.0000
  H   H16       1.0  0.8669140190556697  0.09239586311763426  0.17250095547915656  1.0000
  H   H17       1.0  0.8448628363417092  0.11373983789118558  0.9386893476987614  1.0000
  H   H18       1.0  0.6995898596875962  0.799970570481227  0.9841140212544874  1.0000
  H   H19       1.0  0.7195221804629167  0.7813214039140943  0.2196058439415982  1.0000
  H   H20       1.0  0.7097392095087406  0.9378722194156728  0.7750061354887059  1.0000
  H   H21       1.0  0.7367945679272229  0.08314806560190013  0.5646448026190631  1.0000
  H   H22       1.0  0.7800749147617854  0.9353082794660657  0.5235155747996711  1.0000
  H   H23       1.0  0.825592983927733  0.08817196897968627  0.5129668669489842  1.0000
  C   C30       1.0  0.8254304751088807  0.40664161860152803  0.17887374061093952  1.0000
  C   C31       1.0  0.8877642433303884  0.4744986251103156  0.17199906360966755  1.0000
  C   C32       1.0  0.919382344622073  0.5087738544113325  0.05138533229513742  1.0000
  C   C33       1.0  0.8878304459850731  0.47428322932535805  0.9367289646575556  1.0000
  C   C34       1.0  0.8254961013471671  0.40642823856350696  0.9416116876432867  1.0000
  C   C35       1.0  0.7946454291150886  0.3729863311700401  0.0631492413978223  1.0000
  C   C36       1.0  0.9853260016131653  0.5805585902136852  0.04516651829756979  1.0000
  C   C37       1.0  0.9961246737790627  0.6833859223760588  0.12485702598716997  1.0000
  C   C38       1.0  0.0582268624012936  0.7508359070708457  0.11880177927798319  1.0000
  C   C39       1.0  0.11022057842683686  0.7165131440543602  0.033391083804416466  1.0000
  C   C40       1.0  0.10008518022008706  0.6145598212287797  0.953837552678606  1.0000
  C   C41       1.0  0.03805281077424971  0.546882557629855  0.9594863456667531  1.0000
  I   I1        1.0  0.203848201299488  0.8184298636518388  0.024565554724310434  1.0000
  H   H24       1.0  0.8016584750021604  0.3808503972761057  0.5089419403791884  1.0000
  H   H25       1.0  0.9123538521876084  0.49929318773939846  0.2607644957038826  1.0000
  H   H26       1.0  0.9115116418956121  0.5020355221689836  0.8434113913981856  1.0000
  H   H27       1.0  0.7465573784293306  0.32063888313334  0.067684385143443  1.0000
  H   H28       1.0  0.8017545817947334  0.3805364565797118  0.616021396171214  1.0000
  H   H29       1.0  0.9562367960008985  0.7127029601680313  0.1905700847199887  1.0000
  H   H30       1.0  0.0658228107710006  0.8299784726988575  0.1803011343275207  1.0000
  H   H31       1.0  0.14031040215522106  0.5874729472262232  0.8878298921656445  1.0000
  H   H32       1.0  0.03165220585916728  0.4671769792821141  0.8981381467201777  1.0000
  Zn  Zn1       1.0  0.7500990084080238  0.4079288925894615  0.5608696545705352  1.0000
  Zn  Zn2       1.0  0.9008209796125983  0.40514045880060023  0.5596151945619023  1.0000
  C   C42       1.0  0.8254832010086225  0.4012945120191027  0.7974393915868478  1.0000
  C   C43       1.0  0.8254384325720922  0.4117764476342578  0.3230455708302151  1.0000
  C   C44       1.0  0.8254115169420776  0.6437472356936016  0.5549976127407796  1.0000
  C   C45       1.0  0.8255100655280557  0.16932216446648618  0.5654874198030615  1.0000
  O   O2        1.0  0.8826393068888293  0.4124358808866555  0.3709548947127739  1.0000
  O   O3        1.0  0.8826768155323479  0.39851774234589077  0.7485775880267793  1.0000
  O   O4        1.0  0.8826181587990962  0.5943013968334412  0.5528041423122194  1.0000
  O   O5        1.0  0.8826979121806324  0.2166522366688033  0.5667282434779783  1.0000
  O   O6        1.0  0.7682220244059771  0.59641711567423  0.5537566060757131  1.0000
  O   O7        1.0  0.7682806808157975  0.40063502163292397  0.7495299820847492  1.0000
  O   O8        1.0  0.7682431720928034  0.41455311535013095  0.3719057273828563  1.0000
  O   O9        1.0  0.7683017773920425  0.21876946181555224  0.5676791735186706  1.0000
