data_image0
_chemical_formula_structural       NC9NC5H8C12OCH12C12BrH9Zn2C4O8
_chemical_formula_sum              "N2 C43 H29 O9 Br1 Zn2"
_cell_length_a       17.807436237873137
_cell_length_b       10.29979075500242
_cell_length_c       10.299148005577397
_cell_angle_alpha    85.5479051999474
_cell_angle_beta     89.3653557848841
_cell_angle_gamma    88.37243818242351

_space_group_name_H-M_alt    "P 1"
_space_group_IT_number       1

loop_
  _space_group_symop_operation_xyz
  'x, y, z'

loop_
  _atom_site_type_symbol
  _atom_site_label
  _atom_site_symmetry_multiplicity
  _atom_site_fract_x
  _atom_site_fract_y
  _atom_site_fract_z
  _atom_site_occupancy
  N   N1        1.0  0.707553616206443  0.3879483078219632  0.5569319301115565  1.0000
  C   C1        1.0  0.6469752886082691  0.3527598849352511  0.5459103647302983  1.0000
  C   C2        1.0  0.5716225071999479  0.30898936201824045  0.5322007341002601  1.0000
  C   C3        1.0  0.5535720045024045  0.23758769928827417  0.4271980471897827  1.0000
  C   C4        1.0  0.4804083836730783  0.19497840858690418  0.41380425578102487  1.0000
  C   C5        1.0  0.4242466226706351  0.2233932537788137  0.505380729663766  1.0000
  C   C6        1.0  0.3464925115390766  0.17822545798571943  0.49122866726741443  1.0000
  C   C7        1.0  0.2842946914443583  0.2599785541306423  0.5171621329972651  1.0000
  C   C8        1.0  0.2109887980513108  0.21716622280307796  0.503782040598286  1.0000
  C   C9        1.0  0.1477403133945316  0.3016106336373503  0.5300792025572689  1.0000
  N   N2        1.0  0.0969015212541482  0.36949809760438646  0.5512213947370064  1.0000
  C   C10       1.0  0.1992972324362592  0.09234281771580743  0.4644431530604616  1.0000
  C   C11       1.0  0.2606376874211518  0.01057587031414342  0.4385012983322185  1.0000
  C   C12       1.0  0.3338242732384873  0.05299368549082528  0.4516788743021587  1.0000
  C   C13       1.0  0.4429883832508972  0.29528925620112445  0.610602616768452  1.0000
  C   C14       1.0  0.5162049510446572  0.33770817205543535  0.623840764770619  1.0000
  H   H1        1.0  0.5959902086800051  0.21511172141945156  0.35548317810428753  1.0000
  H   H2        1.0  0.4675276594613575  0.14130672602119576  0.3308836917966713  1.0000
  H   H3        1.0  0.2927671136065272  0.357440027637967  0.5460325509253674  1.0000
  H   H4        1.0  0.142841090373249  0.05830802703177396  0.4538505537489397  1.0000
  H   H5        1.0  0.2514670983053087  0.9139346552969119  0.40843033271089024  1.0000
  H   H6        1.0  0.3804818837084303  0.9872508988457277  0.4326349642972882  1.0000
  H   H7        1.0  0.4012868065563495  0.3172260145062049  0.683612102165063  1.0000
  H   H8        1.0  0.529614088803836  0.39260058004285714  0.7057195406175951  1.0000
  C   C15       1.0  0.9022986604236655  0.9973520858973786  0.5541145942662105  1.0000
  C   C16       1.0  0.8805163764797874  0.9871980973560512  0.6858789667536112  1.0000
  C   C17       1.0  0.8694195186189904  0.8649195386358702  0.7526126976418441  1.0000
  C   C18       1.0  0.8803814230342472  0.75192220929299  0.685815157586031  1.0000
  C   C19       1.0  0.9021636738787883  0.7600839847770025  0.5540498530208999  1.0000
  C   C20       1.0  0.9130020728456211  0.8832456534608537  0.4889380136525783  1.0000
  C   C21       1.0  0.8463796727632039  0.8552310803339863  0.8920131943283247  1.0000
  C   C22       1.0  0.7915513317314985  0.7669561311465425  0.9378852481428785  1.0000
  C   C23       1.0  0.7699345302500132  0.7581080979850545  0.06894813513922449  1.0000
  C   C24       1.0  0.8026596078174351  0.8368892646329599  0.15582086936406503  1.0000
  C   C25       1.0  0.8576874502054497  0.9257635583778226  0.11181769245113737  1.0000
  C   C26       1.0  0.8790714917192849  0.9342615144591563  0.9802314922557962  1.0000
  O   O1        1.0  0.8923913437841879  0.006806108746073791  0.19518148158228776  1.0000
  C   C27       1.0  0.8762484785939795  0.00852735858028808  0.3307613764716628  1.0000
  H   H9        1.0  0.91063151617674  0.32867110773499575  0.5039275232313645  1.0000
  H   H10       1.0  0.8711340912940387  0.07466107924082088  0.7364479549632197  1.0000
  H   H11       1.0  0.8728782277552009  0.6573695330454183  0.7372957474516713  1.0000
  H   H12       1.0  0.9298067627965279  0.8903106027446945  0.3872873588192538  1.0000
  H   H13       1.0  0.9104263282891467  0.4357443035129238  0.5038261745650638  1.0000
  H   H14       1.0  0.7646980166561798  0.7060100939700513  0.8720661349571537  1.0000
  H   H15       1.0  0.727495698853195  0.6901437921258091  0.10325112473243014  1.0000
  H   H16       1.0  0.7848286581023577  0.8279688043294721  0.256754208076313  1.0000
  H   H17       1.0  0.92211608461767  0.0017706654115097198  0.9474325542196298  1.0000
  H   H18       1.0  0.8892124991855774  0.9113759696266249  0.381196443921618  1.0000
  H   H19       1.0  0.9116888867493037  0.08148026261392238  0.37245808422041515  1.0000
  H   H20       1.0  0.8162709337829802  0.036277914452707005  0.3460772915495227  1.0000
  C   C28       1.0  0.9023335471603265  0.3787652388362108  0.17269254654217603  1.0000
  C   C29       1.0  0.8316570206111316  0.4428940974938811  0.168286796953816  1.0000
  C   C30       1.0  0.7957167375520208  0.47536054679884376  0.048916277877931735  1.0000
  C   C31       1.0  0.8314062960033463  0.4428331738341045  0.9330134457350012  1.0000
  C   C32       1.0  0.902128751168729  0.3786708719995613  0.935471912764291  1.0000
  C   C33       1.0  0.9371567498112182  0.34703002588926934  0.055741570470926316  1.0000
  C   C34       1.0  0.7209500389226394  0.5432030462897044  0.045300434722770344  1.0000
  C   C35       1.0  0.7051513865437039  0.6452692415728536  0.12560130368931732  1.0000
  C   C36       1.0  0.6347470494572642  0.7090143456037192  0.12200375621364024  1.0000
  C   C37       1.0  0.5793410685839128  0.6716962710975012  0.03845522985262728  1.0000
  C   C38       1.0  0.5943850210435928  0.570452702883093  0.9583128957771039  1.0000
  C   C39       1.0  0.6647255257528001  0.5064886587609223  0.9615188604146354  1.0000
  Br  Br1       1.0  0.4832129372571144  0.7589220074606  0.033807655533195646  1.0000
  H   H21       1.0  0.9295341166234548  0.35415047476522377  0.5018584464612972  1.0000
  H   H22       1.0  0.8039308561412574  0.4661541575632029  0.2580310431092816  1.0000
  H   H23       1.0  0.8044212643245351  0.46920682745967013  0.8405905608520783  1.0000
  H   H24       1.0  0.9916724055313669  0.2975697235861794  0.05842377697368284  1.0000
  H   H25       1.0  0.03582331853627574  0.2582931944366389  0.7327601043586176  1.0000
  H   H26       1.0  0.7475357666941711  0.6768777913108721  0.1898843009139375  1.0000
  H   H27       1.0  0.6233881980694571  0.7876187710051203  0.1839680317488499  1.0000
  H   H28       1.0  0.551555838787926  0.541017212567577  0.8937292332005806  1.0000
  H   H29       1.0  0.6748273869496142  0.42725450912756324  0.8997741752107422  1.0000
  Zn  Zn1       1.0  0.8199110086294715  0.3826205094656707  0.555291504452452  1.0000
  Zn  Zn2       1.0  0.9845441096412798  0.3748153084089203  0.5528724984878854  1.0000
  C   C40       1.0  0.9021667111913729  0.37351507493473957  0.7912907711595356  1.0000
  C   C41       1.0  0.9022902045434493  0.3839222963198814  0.3168733326997437  1.0000
  C   C42       1.0  0.9021866930253521  0.6159122686441143  0.548886731728853  1.0000
  C   C43       1.0  0.9022701667892977  0.1415235449543779  0.5592774423306113  1.0000
  O   O2        1.0  0.9647530632095358  0.38268535302606765  0.3643437219657375  1.0000
  O   O3        1.0  0.9646565671163891  0.3688270715450497  0.7419840385551126  1.0000
  O   O4        1.0  0.9646718601121883  0.5645659107588179  0.5462410739267651  1.0000
  O   O5        1.0  0.9647377140601104  0.18694652577800608  0.5600865900387644  1.0000
  O   O6        1.0  0.8397173480294448  0.5704892947615319  0.5480774137202293  1.0000
  O   O7        1.0  0.8397020547726223  0.37475201586883955  0.7438203089670481  1.0000
  O   O8        1.0  0.8397985513429577  0.38861025228447854  0.36617843089498914  1.0000
  O   O9        1.0  0.8397832021659625  0.1928714157356568  0.5619213963419938  1.0000
