data_image0
_chemical_formula_structural       NC9NC5H8C13OH12C12BrH9Zn2C4O8
_chemical_formula_sum              "N2 C43 H29 O9 Br1 Zn2"
_cell_length_a       17.807436237873137
_cell_length_b       10.299150109392551
_cell_length_c       10.299148005577397
_cell_angle_alpha    85.53215182685325
_cell_angle_beta     89.3653557848841
_cell_angle_gamma    88.37145022261349

_space_group_name_H-M_alt    "P 1"
_space_group_IT_number       1

loop_
  _space_group_symop_operation_xyz
  'x, y, z'

loop_
  _atom_site_type_symbol
  _atom_site_label
  _atom_site_symmetry_multiplicity
  _atom_site_fract_x
  _atom_site_fract_y
  _atom_site_fract_z
  _atom_site_occupancy
  N   N1        1.0  0.7075417316846574  0.38806498054554694  0.5565493123537004  1.0000
  C   C1        1.0  0.6469637053927901  0.3528735996746546  0.5455374474168981  1.0000
  C   C2        1.0  0.5716112987763328  0.30909939735107494  0.5318398830714934  1.0000
  C   C3        1.0  0.553561407466556  0.2376917325053154  0.42685687956272944  1.0000
  C   C4        1.0  0.4803981514858635  0.195078860012053  0.4134748343200074  1.0000
  C   C5        1.0  0.424236147176919  0.2234960937924706  0.5050434750404496  1.0000
  C   C6        1.0  0.3464824228015891  0.17832450113624843  0.4909038641170069  1.0000
  C   C7        1.0  0.2842839026833565  0.2600844695517994  0.5168147928502216  1.0000
  C   C8        1.0  0.2109783758775093  0.21726853936448576  0.5034465025897861  1.0000
  C   C9        1.0  0.1477291681524179  0.3017200487047669  0.5297203856334416  1.0000
  N   N2        1.0  0.0968897947151376  0.3696132193795201  0.5508438631758235  1.0000
  C   C10       1.0  0.1992878790821455  0.09243464146090763  0.46414202530421234  1.0000
  C   C11       1.0  0.260629034209156  0.010660820624261325  0.43822271139100155  1.0000
  C   C12       1.0  0.3338152568173967  0.05308220149715592  0.451388593979247  1.0000
  C   C13       1.0  0.4429772921365543  0.2953981398854071  0.6102455424680693  1.0000
  C   C14       1.0  0.5161934967117947  0.33782062152845516  0.6234719967851163  1.0000
  H   H1        1.0  0.5959798040981891  0.21521386527682496  0.35514820646321543  1.0000
  H   H2        1.0  0.46751788684621537  0.14140266573553428  0.3305690660875762  1.0000
  H   H3        1.0  0.2927554903166034  0.357554135796198  0.5456583434301225  1.0000
  H   H4        1.0  0.1428320284472881  0.05839698976850394  0.4535588084136548  1.0000
  H   H5        1.0  0.2514592725986449  0.9140114818219416  0.40817838699600584  1.0000
  H   H6        1.0  0.3804734302201057  0.9873338884286824  0.4323628073853707  1.0000
  H   H7        1.0  0.401275527605125  0.3173367422226634  0.6832489805261519  1.0000
  H   H8        1.0  0.529602164446251  0.39271764384243935  0.7053356403609916  1.0000
  C   C15       1.0  0.9022901204423663  0.9974359245991351  0.5538396527451548  1.0000
  C   C16       1.0  0.9008695391074768  0.9856787709513585  0.6906776120178977  1.0000
  C   C17       1.0  0.9000839760407392  0.8625861782041021  0.7597946119635572  1.0000
  C   C18       1.0  0.900724789890463  0.7504303399714114  0.6903163211148311  1.0000
  C   C19       1.0  0.9021485806295775  0.7602319225165645  0.5535647178336045  1.0000
  C   C20       1.0  0.9029249916382098  0.8841953077765493  0.48612551915015056  1.0000
  C   C21       1.0  0.898574635920543  0.8511305157724776  0.9044636266139712  1.0000
  C   C22       1.0  0.8523604272585619  0.760430337485249  0.97316543747587  1.0000
  C   C23       1.0  0.8509152497824629  0.7497331594550706  0.1092992004094071  1.0000
  C   C24       1.0  0.8961509080408766  0.8285550425140726  0.17918492776033368  1.0000
  C   C25       1.0  0.9416461853858995  0.9202428311901614  0.11113625366066116  1.0000
  C   C26       1.0  0.9431088020336996  0.9311149798287821  0.9750019464510686  1.0000
  C   C27       1.0  0.8930183505922437  0.8194893720762727  0.32532395067821884  1.0000
  O   O1        1.0  0.8368562114693278  0.9053204109731918  0.36638947960204005  1.0000
  H   H9        1.0  0.9044834482678067  0.22694407008252693  0.29555874451492814  1.0000
  H   H10       1.0  0.8993292886664559  0.0725159506082933  0.7437112448211025  1.0000
  H   H11       1.0  0.9011392387456402  0.6552789352639178  0.7431462393833128  1.0000
  H   H12       1.0  0.904021078204041  0.8924718709942858  0.38064494675861704  1.0000
  H   H13       1.0  0.9026456545891903  0.4365288833120041  0.500965996048343  1.0000
  H   H14       1.0  0.8164460136963688  0.6991329396436726  0.9215805818198557  1.0000
  H   H15       1.0  0.8143560502938579  0.6801272258081125  0.16021285281009345  1.0000
  H   H16       1.0  0.9761765621466888  0.9831586587308779  0.1634876313768805  1.0000
  H   H17       1.0  0.9796929564687952  0.0011650212975882202  0.9248946094436259  1.0000
  H   H18       1.0  0.9482688990534482  0.8446930575653667  0.364686212048122  1.0000
  H   H19       1.0  0.8807992471537186  0.7180404710822557  0.363317360895661  1.0000
  H   H20       1.0  0.8371085208926397  0.8956141302437473  0.46301699274271346  1.0000
  C   C28       1.0  0.9023217412699878  0.3788811396191796  0.1723124602944961  1.0000
  C   C29       1.0  0.8316446656075343  0.44301538903135995  0.16788903220905183  1.0000
  C   C30       1.0  0.7957041045494361  0.4754845675078949  0.04850956305918519  1.0000
  C   C31       1.0  0.8313939415214171  0.4429544602502622  0.9326156977851516  1.0000
  C   C32       1.0  0.9021169460864209  0.3787867648499328  0.9350918525308565  1.0000
  C   C33       1.0  0.9371452156585426  0.3471432589693366  0.0553702327162231  1.0000
  C   C34       1.0  0.7209368250081731  0.5433327699266999  0.044875017662091565  1.0000
  C   C35       1.0  0.7051372986716741  0.6454075450257708  0.12514774988999133  1.0000
  C   C36       1.0  0.6347324157579342  0.709158007552237  0.12153262970743373  1.0000
  C   C37       1.0  0.5793267544263604  0.6718367960405802  0.037994390875081274  1.0000
  C   C38       1.0  0.5943715737997327  0.5705847171613421  0.9578799667633864  1.0000
  C   C39       1.0  0.6647126262109483  0.5066152961391839  0.9611035644633366  1.0000
  Br  Br1       1.0  0.4831978762157204  0.7590698647114962  0.03332277090820979  1.0000
  H   H21       1.0  0.9295225215008356  0.3542643063994009  0.5014851458019469  1.0000
  H   H22       1.0  0.8039183019698027  0.46627740437130916  0.2576268662294392  1.0000
  H   H23       1.0  0.8044086840141229  0.46933033087914233  0.8401855424382214  1.0000
  H   H24       1.0  0.9916612948901699  0.29767879896948934  0.05806607401349129  1.0000
  H   H25       1.0  0.035812544206426766  0.25839896818428776  0.7324132288171681  1.0000
  H   H26       1.0  0.7475214081690515  0.6770187518192181  0.1894220335390695  1.0000
  H   H27       1.0  0.6233728913075924  0.7877690405429458  0.1834752362447174  1.0000
  H   H28       1.0  0.5515426435899986  0.5411467524605726  0.8933044187119084  1.0000
  H   H29       1.0  0.6748151658624083  0.42737448598108707  0.8993807218543788  1.0000
  Zn  Zn1       1.0  0.8198991697277823  0.38273673432765776  0.5549103554166297  1.0000
  Zn  Zn2       1.0  0.9845323375728303  0.37493087715564677  0.5524935011233547  1.0000
  C   C40       1.0  0.9021549502563734  0.37363053438216465  0.7909121322322847  1.0000
  C   C41       1.0  0.9022783544950091  0.3840386306117489  0.316491824798419  1.0000
  C   C42       1.0  0.9021728565269379  0.6160481043120507  0.5484412708095694  1.0000
  C   C43       1.0  0.9022603923176097  0.14161950289479508  0.5589627568507209  1.0000
  O   O2        1.0  0.9647412237526138  0.3828015833388878  0.36396255505439545  1.0000
  O   O3        1.0  0.9646448463231428  0.36894213691286737  0.7416066919766728  1.0000
  O   O4        1.0  0.964658463274895  0.5646974301857339  0.5458097677337181  1.0000
  O   O5        1.0  0.9647275506471329  0.18704630203273398  0.5597593827387313  1.0000
  O   O6        1.0  0.8397039004722611  0.5706213121157413  0.5476444746191746  1.0000
  O   O7        1.0  0.8396902832461248  0.3748675792951137  0.7434413290504649  1.0000
  O   O8        1.0  0.8397866611531705  0.3887269806519664  0.3657956306579271  1.0000
  O   O9        1.0  0.8397729880201994  0.19297169004427084  0.5615925557188037  1.0000
