data_image0
_chemical_formula_structural       NC12NC2H8C12NCOCH13C16H10Zn2C4O8
_chemical_formula_sum              "N3 C48 H31 O9 Zn2"
_cell_length_a       17.80743265337812
_cell_length_b       10.299155265289647
_cell_length_c       10.299151387937775
_cell_angle_alpha    85.56903598390942
_cell_angle_beta     91.5231079548936
_cell_angle_gamma    89.41399588169462

_space_group_name_H-M_alt    "P 1"
_space_group_IT_number       1

loop_
  _space_group_symop_operation_xyz
  'x, y, z'

loop_
  _atom_site_type_symbol
  _atom_site_label
  _atom_site_symmetry_multiplicity
  _atom_site_fract_x
  _atom_site_fract_y
  _atom_site_fract_z
  _atom_site_occupancy
  N   N1        1.0  0.7072620049971889  0.4061351695024473  0.6009548251381656  1.0000
  C   C1        1.0  0.6564430349394943  0.43566386503277843  0.5322487924133341  1.0000
  C   C2        1.0  0.5932192209507348  0.47239542058379436  0.44678713617634824  1.0000
  C   C3        1.0  0.6049475559097085  0.5263605819905224  0.32015406902687693  1.0000
  C   C4        1.0  0.5436311705439596  0.56158955964776  0.2370887834516735  1.0000
  C   C5        1.0  0.4704321597434644  0.5431165495709209  0.27999659861274795  1.0000
  C   C6        1.0  0.4577270275791458  0.4890327969968806  0.4070978346187688  1.0000
  C   C7        1.0  0.5199007300887518  0.4538070656950133  0.4901466078418446  1.0000
  C   C8        1.0  0.3799597497143601  0.46944692291849255  0.45286621388951853  1.0000
  C   C9        1.0  0.3611544994939624  0.4966956261511073  0.5799009481316053  1.0000
  C   C10       1.0  0.287925529226271  0.4782642119258982  0.6228493138569557  1.0000
  C   C11       1.0  0.2325588089108054  0.4323301994396236  0.5396009726160471  1.0000
  C   C12       1.0  0.15719321051347623  0.41334657929292073  0.5839504000835336  1.0000
  N   N2        1.0  0.09660460649131862  0.3980850254012982  0.6196042888312863  1.0000
  C   C13       1.0  0.2506725471143912  0.4049128275710101  0.4131092471895066  1.0000
  C   C14       1.0  0.3238486855637924  0.42335890712602775  0.36990499420774836  1.0000
  H   H1        1.0  0.6614134977981693  0.5411692038601972  0.28571342196234495  1.0000
  H   H2        1.0  0.5528299992202629  0.6036436207117335  0.13929934257061838  1.0000
  H   H3        1.0  0.4237930019400237  0.5727233338368103  0.21439844243999095  1.0000
  H   H4        1.0  0.5114006099942046  0.4103675261425024  0.5878119965360344  1.0000
  H   H5        1.0  0.4028157285671218  0.5339089757887479  0.6454625448522158  1.0000
  H   H6        1.0  0.27446708461485975  0.5001580034526016  0.7208505229563507  1.0000
  H   H7        1.0  0.208294110274039  0.3689670572979602  0.3479602404928248  1.0000
  H   H8        1.0  0.3367790509552048  0.3999295893089285  0.2722075499059704  1.0000
  C   C15       1.0  0.9020207967867319  0.020710864307321275  0.6104024336953255  1.0000
  C   C16       1.0  0.8892030825058012  0.030628974596748515  0.4748632441998142  1.0000
  C   C17       1.0  0.8826314855498153  0.9185214453411956  0.4060208114534418  1.0000
  C   C18       1.0  0.8890234877517363  0.7953728111400357  0.474546856751759  1.0000
  C   C19       1.0  0.9018530319782005  0.7834992508627887  0.610168203487391  1.0000
  C   C20       1.0  0.9082760453378582  0.896686789205303  0.6772612103825961  1.0000
  C   C21       1.0  0.8690728189593382  0.9299872585762756  0.2626367596586334  1.0000
  C   C22       1.0  0.9071819275574079  0.02328185023590046  0.18304455802073827  1.0000
  C   C23       1.0  0.8944285106021935  0.033940930777220935  0.048110907469887554  1.0000
  C   C24       1.0  0.8437781270259392  0.9506264394658607  0.9899341890356621  1.0000
  C   C25       1.0  0.8047513642729188  0.8591670832199951  0.06941427577442671  1.0000
  C   C26       1.0  0.8175321476278258  0.8482514044170104  0.20431190169376068  1.0000
  N   N3        1.0  0.8286074471467666  0.9611331781328352  0.8516464230869674  1.0000
  C   C27       1.0  0.8834735097448261  0.9969010467026796  0.7560567401163367  1.0000
  O   O1        1.0  0.9523901856331658  0.9980201335159489  0.7872162569497889  1.0000
  C   C28       1.0  0.859522616753823  0.023794728337021898  0.6163695709906243  1.0000
  H   H9        1.0  0.9069743576900998  0.34437163758684286  0.6625320263059347  1.0000
  H   H10       1.0  0.883265172577475  0.12577878653095276  0.4227691677770673  1.0000
  H   H11       1.0  0.8849882383198351  0.7086388193873462  0.421725106032675  1.0000
  H   H12       1.0  0.9181651453420454  0.8883218259234402  0.7818050953734408  1.0000
  H   H13       1.0  0.9265179927797526  0.5537958626776507  0.8660371313547204  1.0000
  H   H14       1.0  0.9472934532967499  0.08751483597820542  0.2250582214521748  1.0000
  H   H15       1.0  0.9232560751705832  0.10877975460113998  0.9899112910350754  1.0000
  H   H16       1.0  0.7645678406611139  0.7956393342119049  0.026530127494357014  1.0000
  H   H17       1.0  0.7862904782591382  0.7770791335755872  0.2632288307035615  1.0000
  H   H18       1.0  0.7756973177476206  0.9333477492558266  0.8180385882498755  1.0000
  H   H19       1.0  0.805293151891627  0.07836010380077241  0.6093183508289148  1.0000
  H   H20       1.0  0.8525759763733092  0.9303129619901257  0.570812747853914  1.0000
  H   H21       1.0  0.9022966522356272  0.08298228715724831  0.5630231336759635  1.0000
  C   C29       1.0  0.9019804784672439  0.40193537855254036  0.22891648493938743  1.0000
  C   C30       1.0  0.829482832107904  0.457391372035425  0.22051939812604227  1.0000
  C   C31       1.0  0.7926801809512662  0.4856835878936414  0.09910374673270472  1.0000
  C   C32       1.0  0.829352059444347  0.45777169792162353  0.9852006879558552  1.0000
  C   C33       1.0  0.9018933140832968  0.40227465547884167  0.9916541863421764  1.0000
  C   C34       1.0  0.9377616790543376  0.3747000781427168  0.11391722439948349  1.0000
  C   C35       1.0  0.7159864511678589  0.5443496237985113  0.09126605332557691  1.0000
  C   C36       1.0  0.6968824925065247  0.64456429086395  0.9950166004502616  1.0000
  C   C37       1.0  0.6246859809554611  0.699741804544306  0.987767454240831  1.0000
  C   C38       1.0  0.5706463139724943  0.6555327450967507  0.07642041296253987  1.0000
  C   C39       1.0  0.5890692646041746  0.5558905386367203  0.17247498729594146  1.0000
  C   C40       1.0  0.6612442421830346  0.5006258709142049  0.1799726929592229  1.0000
  C   C41       1.0  0.4963303470050832  0.7123839256702755  0.06882989642041681  1.0000
  C   C42       1.0  0.4340917733283351  0.7599959315648288  0.06247286082460057  1.0000
  C   C43       1.0  0.36121105072696674  0.8157491622159703  0.055028836769940304  1.0000
  C   C44       1.0  0.2989825348736384  0.8633537116657268  0.04867293492734204  1.0000
  H   H22       1.0  0.929850217438097  0.38054238857328015  0.559626062257947  1.0000
  H   H23       1.0  0.8018741765258574  0.48035823964474966  0.30849416381154926  1.0000
  H   H24       1.0  0.8008412771871265  0.4777416240447223  0.8914563874357913  1.0000
  H   H25       1.0  0.9936800685429739  0.3319219098475492  0.11967859654979374  1.0000
  H   H26       1.0  0.0386225498973185  0.29677240327310517  0.7965918971243724  1.0000
  H   H27       1.0  0.7380596807307678  0.6814176821412687  0.9264313870724483  1.0000
  H   H28       1.0  0.6110826949267761  0.7770779470014122  0.9132405783377049  1.0000
  H   H29       1.0  0.5476003092730021  0.520684497687262  0.24137714672100596  1.0000
  H   H30       1.0  0.6739598803371906  0.42254638894429974  0.2540642593182978  1.0000
  H   H31       1.0  0.24434076012627012  0.9051543741173911  0.043091935737917586  1.0000
  Zn  Zn1       1.0  0.8196178727712502  0.4038086075831562  0.6063441455050642  1.0000
  Zn  Zn2       1.0  0.9842487373433548  0.4004009977336527  0.6142255647663781  1.0000
  C   C45       1.0  0.9019092596385591  0.3970365089779373  0.8474819208278785  1.0000
  C   C46       1.0  0.9019591478649276  0.4071746979341575  0.37308800247166185  1.0000
  C   C47       1.0  0.9018814467034595  0.6393137590806701  0.6050371338397922  1.0000
  C   C48       1.0  0.901986904958355  0.16489588859865045  0.6155328564881193  1.0000
  O   O2        1.0  0.9644285454904759  0.40763422501055135  0.4244642400536922  1.0000
  O   O3        1.0  0.9643908791825785  0.3939897049059573  0.8020871245564445  1.0000
  O   O4        1.0  0.9643675775175958  0.589631666411238  0.6063112029916884  1.0000
  O   O5        1.0  0.9644517909871791  0.21199227391569608  0.6202400615515518  1.0000
  O   O6        1.0  0.8394147629469919  0.5922173325653735  0.6003296460235175  1.0000
  O   O7        1.0  0.8394380642732129  0.3965769314571277  0.7961054978635291  1.0000
  O   O8        1.0  0.8394757308194443  0.4102214056065012  0.4184810519766822  1.0000
  O   O9        1.0  0.8394989763039934  0.21457944526548123  0.6142569708450651  1.0000
