data_image0
_chemical_formula_structural       NC12NC2H8C12NH11C12ClH9Zn2C4O8
_chemical_formula_sum              "N3 C42 H28 Cl1 Zn2 O8"
_cell_length_a       19.240039667572717
_cell_length_b       10.299770795358612
_cell_length_c       10.299771906710086
_cell_angle_alpha    85.53968522419491
_cell_angle_beta     90.0091503227729
_cell_angle_gamma    90.01598423534

_space_group_name_H-M_alt    "P 1"
_space_group_IT_number       1

loop_
  _space_group_symop_operation_xyz
  'x, y, z'

loop_
  _atom_site_type_symbol
  _atom_site_label
  _atom_site_symmetry_multiplicity
  _atom_site_fract_x
  _atom_site_fract_y
  _atom_site_fract_z
  _atom_site_occupancy
  N   N1        1.0  0.6545669608034068  0.4216841511890017  0.5673780664172414  1.0000
  C   C1        1.0  0.5944185919916659  0.421684235193712  0.5673779844760196  1.0000
  C   C2        1.0  0.5196005548562849  0.42168435251876146  0.5673778471653508  1.0000
  C   C3        1.0  0.48312605088717403  0.35718935291098597  0.670793119082117  1.0000
  C   C4        1.0  0.4104552936232066  0.357078446884064  0.6708796668827419  1.0000
  C   C5        1.0  0.3732683199133205  0.4216844451494157  0.5673776194789417  1.0000
  C   C6        1.0  0.4104570246351979  0.4862906303446841  0.46387576660659113  1.0000
  C   C7        1.0  0.4831277039102516  0.48617948878337813  0.4639624369195068  1.0000
  C   C8        1.0  0.296063229453792  0.42168436651590757  0.5673775240672225  1.0000
  C   C9        1.0  0.2588620839981186  0.3084116983226748  0.6092537029798983  1.0000
  C   C10       1.0  0.1861914037743298  0.30851862471579095  0.6091623723827531  1.0000
  C   C11       1.0  0.1497309425165092  0.4216842373256766  0.5673775849837241  1.0000
  C   C12       1.0  0.0749129053658198  0.4216841235112234  0.5673778336500561  1.0000
  N   N2        1.0  0.0147645885254346  0.4216840826275652  0.5673780420714258  1.0000
  C   C13       1.0  0.18621799212210577  0.5348499257783152  0.5255927446902868  1.0000
  C   C14       1.0  0.2588886965133368  0.5349570323390103  0.5255012514898811  1.0000
  H   H1        1.0  0.5108403630188423  0.30725572574624693  0.7515368052955642  1.0000
  H   H2        1.0  0.383361647542745  0.3079425810419463  0.7527388220343456  1.0000
  H   H3        1.0  0.38336413992722584  0.535426523253872  0.38201656060524636  1.0000
  H   H4        1.0  0.5108431632502605  0.5361130156061136  0.3832190265063702  1.0000
  H   H5        1.0  0.2859447075792358  0.219247464547754  0.6404255925043145  1.0000
  H   H6        1.0  0.1584661327551795  0.2202532709019771  0.6413671859288264  1.0000
  H   H7        1.0  0.15851343969104528  0.6231152550511121  0.4933879456958268  1.0000
  H   H8        1.0  0.2859925517574278  0.624121345303343  0.4943293171901282  1.0000
  C   C15       1.0  0.8346061336164387  0.040315577838933914  0.567417629917486  1.0000
  C   C16       1.0  0.8144220785548102  0.04952903685126886  0.4360072103626942  1.0000
  C   C17       1.0  0.804258405190018  0.937061421658455  0.36938541955497106  1.0000
  C   C18       1.0  0.8145492861365792  0.8142474433346109  0.43593865748512317  1.0000
  C   C19       1.0  0.8347320834874848  0.8030426923491439  0.567349627587556  1.0000
  C   C20       1.0  0.8446478212450019  0.9166317383380884  0.6323531048744138  1.0000
  C   C21       1.0  0.7829051507138366  0.9478621317076409  0.23036082286761794  1.0000
  C   C22       1.0  0.7322928914427375  0.03905316579214979  0.18517366406563607  1.0000
  C   C23       1.0  0.7122250096273434  0.049089569094844965  0.05432265278222137  1.0000
  C   C24       1.0  0.7423896590248232  0.9683549868731918  0.9665786612177136  1.0000
  C   C25       1.0  0.7928350598462285  0.8773622932352118  0.010875261103708178  1.0000
  C   C26       1.0  0.8129586156633142  0.8670698728634039  0.1416962993579356  1.0000
  N   N3        1.0  0.7218332042663339  0.9787523124844437  0.8327431441087447  1.0000
  H   H9        1.0  0.8422676358156357  0.36425707672699437  0.6175082244727621  1.0000
  H   H10       1.0  0.8074792626210299  0.14444926908071154  0.3846549621999775  1.0000
  H   H11       1.0  0.8058619136198873  0.7272331556303182  0.38552651296193474  1.0000
  H   H12       1.0  0.8602183771577737  0.9087559358494878  0.733730423822216  1.0000
  H   H13       1.0  0.8424528810845587  0.47132072628461436  0.6174086007094599  1.0000
  H   H14       1.0  0.7075748617295192  0.10144501922073501  0.25137690761726117  1.0000
  H   H15       1.0  0.6730372629914507  0.11958030475465242  0.021411084321879326  1.0000
  H   H16       1.0  0.8166934845684767  0.8146250854623799  0.943982744490905  1.0000
  H   H17       1.0  0.8526790537522279  0.7970898271577114  0.17316832492742495  1.0000
  H   H18       1.0  0.7440234955831547  0.9189762215076126  0.7666035127896653  1.0000
  H   H19       1.0  0.6842721549977001  0.04630332607974563  0.7988084073483717  1.0000
  C   C27       1.0  0.8346360482976347  0.4217854478892413  0.1860143753650294  1.0000
  C   C28       1.0  0.8976883332999708  0.4906684479990513  0.17968053656862137  1.0000
  C   C29       1.0  0.9296713136321642  0.5254638643773706  0.059340801680579425  1.0000
  C   C30       1.0  0.8977553427782766  0.4904532856103019  0.9444107794529901  1.0000
  C   C31       1.0  0.8347021645800086  0.4215728453929444  0.948752962060821  1.0000
  C   C32       1.0  0.8034959320762624  0.38762382660257333  0.07002274909018813  1.0000
  C   C33       1.0  0.9963758349520672  0.5983349388596528  0.053693875962651516  1.0000
  C   C34       1.0  0.007377502758968202  0.7013401603493714  0.13348679908612326  1.0000
  C   C35       1.0  0.0701926616368942  0.769827541427891  0.12798441949125583  1.0000
  C   C36       1.0  0.12271896833599683  0.7363566939955299  0.04299932607361434  1.0000
  C   C37       1.0  0.11238095910537527  0.6342109400285973  0.963335121441633  1.0000
  C   C38       1.0  0.04962806427706412  0.5655232369258281  0.9684618876423903  1.0000
  Cl  Cl1       1.0  0.2014884286372831  0.8224070014599545  0.036332041712625385  1.0000
  H   H20       1.0  0.8105916431636112  0.39559488108365914  0.5158768183013869  1.0000
  H   H21       1.0  0.9225591981574403  0.5158679805518702  0.26865909246713326  1.0000
  H   H22       1.0  0.921711170532154  0.518594399263276  0.851298702173592  1.0000
  H   H23       1.0  0.7548535743704796  0.33448488271760235  0.07414081157385732  1.0000
  H   H24       1.0  0.8106892412397757  0.3952803091357737  0.6229576615406489  1.0000
  H   H25       1.0  0.9670902771271441  0.7299933238030729  0.19885819034740781  1.0000
  H   H26       1.0  0.07789080816416338  0.8491015696222708  0.18961097318036368  1.0000
  H   H27       1.0  0.15298571556267926  0.6077049255186606  0.8976199637384306  1.0000
  H   H28       1.0  0.04308342680150257  0.4857089301546582  0.9070549169381308  1.0000
  Zn  Zn1       1.0  0.7585122247151193  0.4216806621172511  0.5673855481334358  1.0000
  Zn  Zn2       1.0  0.9108193425542894  0.4216769752746796  0.5673811602089465  1.0000
  C   C39       1.0  0.8346872688051478  0.4164393326778759  0.804579471639516  1.0000
  C   C40       1.0  0.8346459619348999  0.4269199432562516  0.33018736397553106  1.0000
  C   C41       1.0  0.8347042542624077  0.6588724678886027  0.5621873436674389  1.0000
  C   C42       1.0  0.8346289242542043  0.18448524772641628  0.572579561326815  1.0000
  O   O1        1.0  0.8924490455712515  0.4286360619321574  0.3785714713000392  1.0000
  O   O2        1.0  0.8924817632677124  0.4147194361564348  0.7561916602227474  1.0000
  O   O3        1.0  0.8924947001879541  0.610487258466957  0.5604583018229148  1.0000
  O   O4        1.0  0.8924360566719999  0.2328682489402525  0.5743047323257808  1.0000
  O   O5        1.0  0.7768954586224641  0.6104893884543523  0.5604619760112677  1.0000
  O   O6        1.0  0.7768825219507132  0.41472312646561194  0.7561952650265598  1.0000
  O   O7        1.0  0.7768498041576386  0.4286397074206951  0.37857351470571143  1.0000
  O   O8        1.0  0.7768368152624524  0.23287188511284662  0.5743068731002106  1.0000
