data_image0
_chemical_formula_structural       NC9NC5H8C12NH11C12NCOH11Zn2C4O8
_chemical_formula_sum              "N4 C43 H30 O9 Zn2"
_cell_length_a       17.807436237873137
_cell_length_b       10.299770795358612
_cell_length_c       10.299148425239203
_cell_angle_alpha    85.53227456119625
_cell_angle_beta     89.37684199315078
_cell_angle_gamma    88.40764042794568

_space_group_name_H-M_alt    "P 1"
_space_group_IT_number       1

loop_
  _space_group_symop_operation_xyz
  'x, y, z'

loop_
  _atom_site_type_symbol
  _atom_site_label
  _atom_site_symmetry_multiplicity
  _atom_site_fract_x
  _atom_site_fract_y
  _atom_site_fract_z
  _atom_site_occupancy
  N   N1        1.0  0.707873506882074  0.38832874453789734  0.5568945271523726  1.0000
  C   C1        1.0  0.6472813427874023  0.35314390471690515  0.5458729919394416  1.0000
  C   C2        1.0  0.5719113502991424  0.3093778387438013  0.5321633988351508  1.0000
  C   C3        1.0  0.5538228316294568  0.23800640847397103  0.42715917946664583  1.0000
  C   C4        1.0  0.4806424505714093  0.19540146977697748  0.4137654236647692  1.0000
  C   C5        1.0  0.4245018071878178  0.22379044910729085  0.5053434675912236  1.0000
  C   C6        1.0  0.3467299349769653  0.17862725386488099  0.4911914438262941  1.0000
  C   C7        1.0  0.2845643004953571  0.2603719345978961  0.517124845774583  1.0000
  C   C8        1.0  0.2112415763328672  0.21756395447226895  0.5037447906471733  1.0000
  C   C9        1.0  0.1480262778979026  0.3019998090200735  0.5300418772746591  1.0000
  N   N2        1.0  0.0972141653153585  0.3698803940209636  0.55118400891417  1.0000
  C   C10       1.0  0.1995008995679511  0.09275332685364246  0.4644060054534471  1.0000
  C   C11       1.0  0.2608091630060444  0.010994797399784817  0.43846421444052663  1.0000
  C   C12       1.0  0.3340124149684189  0.053408323482642794  0.4516417519546334  1.0000
  C   C13       1.0  0.4432817858623713  0.295656150848713  0.6105668879713972  1.0000
  C   C14       1.0  0.5165150274782838  0.3380707607623532  0.6238049986782617  1.0000
  H   H1        1.0  0.5962244186880172  0.21555068985027104  0.3554430824014554  1.0000
  H   H2        1.0  0.4677326701560116  0.14175362161239846  0.33084363077773293  1.0000
  H   H3        1.0  0.2930748464470006  0.35782394422653496  0.5459951482088337  1.0000
  H   H4        1.0  0.1430313827648032  0.058721982974780706  0.4538134366254438  1.0000
  H   H5        1.0  0.2516005973276654  0.9143633677101043  0.40839333550279244  1.0000
  H   H6        1.0  0.3806443607804395  0.9876718010440361  0.4325979281618202  1.0000
  H   H7        1.0  0.401596790294543  0.3175722981639195  0.6835776300335512  1.0000
  H   H8        1.0  0.5299535301449999  0.3929396057596528  0.7056849749170351  1.0000
  C   C15       1.0  0.90247934076868  0.9977390842837031  0.5540798311740074  1.0000
  C   C16       1.0  0.8806940217747439  0.00800186942437775  0.42297964832532386  1.0000
  C   C17       1.0  0.8697241414630486  0.8960626953001949  0.35651404368930817  1.0000
  C   C18       1.0  0.8808315380970342  0.7727137688216978  0.4229090736667285  1.0000
  C   C19       1.0  0.9026154974877567  0.7604597560589933  0.5540098270431073  1.0000
  C   C20       1.0  0.9133177736811037  0.8735332511103306  0.6188609287196369  1.0000
  C   C21       1.0  0.846676867303932  0.90797351590508  0.21781765460670677  1.0000
  C   C22       1.0  0.7919805870742358  0.0017621122235549347  0.17342952694063385  1.0000
  C   C23       1.0  0.7703207053634653  0.012841825371179949  0.04288695211932314  1.0000
  C   C24       1.0  0.8029471559423107  0.9305726855923561  0.9546582315484424  1.0000
  C   C25       1.0  0.8574632929508652  0.8369910811570802  0.9981583795076108  1.0000
  C   C26       1.0  0.8791833604063057  0.8256525030285674  0.12867009644400995  1.0000
  N   N3        1.0  0.7807598937571549  0.9420386976658988  0.8211386750316403  1.0000
  H   H9        1.0  0.9107486030853559  0.3212822531427235  0.6040526810408955  1.0000
  H   H10       1.0  0.8732018986906656  0.10328377203128736  0.37173365748051546  1.0000
  H   H11       1.0  0.871453481796506  0.6861503913052296  0.3726309136684025  1.0000
  H   H12       1.0  0.93012358941  0.8648479680868066  0.7199989224866021  1.0000
  H   H13       1.0  0.9109488603452703  0.4283364267714334  0.603950113086531  1.0000
  H   H14       1.0  0.7652466448746139  0.0654121134033625  0.2400295525447318  1.0000
  H   H15       1.0  0.7279703060720077  0.0853435396925446  0.010594206581324261  1.0000
  H   H16       1.0  0.8832682477145565  0.7730398337003986  0.9308826574907516  1.0000
  H   H17       1.0  0.9221098986263261  0.7536343661826839  0.15951474719933167  1.0000
  H   H18       1.0  0.8047615670513912  0.8811339148076042  0.7546423400415674  1.0000
  H   H19       1.0  0.7401680527702884  0.011517496352234646  0.7877968963106294  1.0000
  C   C27       1.0  0.9026039554743178  0.37925257628282116  0.1726477969215101  1.0000
  C   C28       1.0  0.9788321865639528  0.4111994818430158  0.16755715480616473  1.0000
  C   C29       1.0  0.017362124724231043  0.42718868439697655  0.0478457255376763  1.0000
  C   C30       1.0  0.9786737534614208  0.4108668388823029  0.9323023538654298  1.0000
  C   C31       1.0  0.9024908788331782  0.3789462578153  0.9354418720445126  1.0000
  C   C32       1.0  0.8649029210088951  0.36331728893981774  0.05611383435666739  1.0000
  C   C33       1.0  0.09795704609917477  0.46096256301660343  0.04355376732553484  1.0000
  C   C34       1.0  0.14842824388994136  0.40120018015095726  0.9592205746399673  1.0000
  C   C35       1.0  0.22423169839145096  0.43312166253499695  0.9553314816978644  1.0000
  C   C36       1.0  0.2513385681732698  0.5241101040741429  0.03643466867405465  1.0000
  C   C37       1.0  0.2007931437286279  0.5857222175094585  0.11920038888773976  1.0000
  C   C38       1.0  0.12495575763656008  0.5539090113588139  0.12318681124408992  1.0000
  N   N4        1.0  0.32936586980510696  0.5566198265004183  0.02875161387332259  1.0000
  C   C39       1.0  0.37258524400168724  0.5912449347658699  0.1368445442467694  1.0000
  O   O1        1.0  0.3471631860151516  0.5782869926556964  0.2515788484766215  1.0000
  H   H20       1.0  0.7588463141508354  0.31818482544263094  0.3896073202172501  1.0000
  H   H21       1.0  0.008640743789500416  0.4219824508792851  0.25704526919877235  1.0000
  H   H22       1.0  0.007824876397073632  0.4248772200626938  0.8396405242504823  1.0000
  H   H23       1.0  0.8061420435078847  0.3386925699158234  0.0592505062118851  1.0000
  H   H24       1.0  0.8731910961607241  0.3666323435668102  0.6091762482196645  1.0000
  H   H25       1.0  0.12947443130363712  0.32858858936654833  0.8973322762661757  1.0000
  H   H26       1.0  0.26218292984813774  0.3857855114821849  0.8898239935881849  1.0000
  H   H27       1.0  0.21932102378970897  0.6605185257127688  0.17868813292667296  1.0000
  H   H28       1.0  0.08709364848508105  0.6039071896640731  0.18680018057366055  1.0000
  H   H29       1.0  0.3582581182695652  0.5463115038076378  0.941145572475095  1.0000
  H   H30       1.0  0.4290006234667165  0.6256115032525973  0.12018992582768906  1.0000
  Zn  Zn1       1.0  0.8202288077598461  0.38300148081517493  0.5552541066072152  1.0000
  Zn  Zn2       1.0  0.9848588427678713  0.37519706738155145  0.5528351078300568  1.0000
  C   C40       1.0  0.9025096596856844  0.3738306061730785  0.7912579873335468  1.0000
  C   C41       1.0  0.9025797888705269  0.3843694953526544  0.31683132801389857  1.0000
  C   C42       1.0  0.9025866656494913  0.6162915680898817  0.5488476012018402  1.0000
  C   C43       1.0  0.9025027264411869  0.14190697578326117  0.5592417843578883  1.0000
  O   O2        1.0  0.965047917634989  0.3831193802230508  0.3643026412717669  1.0000
  O   O3        1.0  0.9649919180931232  0.3691563725252609  0.7419503361918749  1.0000
  O   O4        1.0  0.9650532589729891  0.5649467049937229  0.5462022465481933  1.0000
  O   O5        1.0  0.9649865205941371  0.18732905974694725  0.5600506343581841  1.0000
  O   O6        1.0  0.8401010737534301  0.5708694911144583  0.5480385808977422  1.0000
  O   O7        1.0  0.8400397331589475  0.37508071896326656  0.743786601147794  1.0000
  O   O8        1.0  0.8400957329741596  0.3890436820302179  0.366137344715201  1.0000
  O   O9        1.0  0.8400343359141438  0.19325335222643591  0.5618854351775366  1.0000
