data_image0
_chemical_formula_structural       NC12NC2H8C12NCOCH13C13NH13Zn2C4O8
_chemical_formula_sum              "N4 C45 H34 O9 Zn2"
_cell_length_a       19.240039667572717
_cell_length_b       10.299155265289647
_cell_length_c       10.299780419254978
_cell_angle_alpha    85.55647119552991
_cell_angle_beta     89.9865849046833
_cell_angle_gamma    89.97652338962732

_space_group_name_H-M_alt    "P 1"
_space_group_IT_number       1

loop_
  _space_group_symop_operation_xyz
  'x, y, z'

loop_
  _atom_site_type_symbol
  _atom_site_label
  _atom_site_symmetry_multiplicity
  _atom_site_fract_x
  _atom_site_fract_y
  _atom_site_fract_z
  _atom_site_occupancy
  N   N1        1.0  0.6543450243816327  0.42107373280208815  0.5671401459265677  1.0000
  C   C1        1.0  0.5941966555562063  0.42107381677208866  0.5671400639711799  1.0000
  C   C2        1.0  0.5193786184065352  0.4210739340371952  0.5671399266416355  1.0000
  C   C3        1.0  0.4829060774574316  0.3566258907396742  0.6705644634206709  1.0000
  C   C4        1.0  0.4102353428249033  0.35651501969148325  0.6706510307844222  1.0000
  C   C5        1.0  0.3730463834774488  0.4210740265607227  0.5671396989450685  1.0000
  C   C6        1.0  0.41023310245180783  0.48563322047159074  0.4636285615906508  1.0000
  C   C7        1.0  0.48290380441929265  0.4855221139325714  0.4637152515106775  1.0000
  C   C8        1.0  0.2958412930670364  0.4210739478734127  0.5671396035534564  1.0000
  C   C9        1.0  0.258673074591116  0.30781368201245884  0.6090376134865769  1.0000
  C   C10       1.0  0.1860023742119462  0.30792057072700985  0.6089462643420758  1.0000
  C   C11       1.0  0.1495090061645326  0.4210738187039229  0.5671396644943332  1.0000
  C   C12       1.0  0.0746909690033495  0.4210737050055089  0.5671399131743831  1.0000
  N   N2        1.0  0.014542652134072598  0.42107366422324444  0.5671401215959422  1.0000
  C   C13       1.0  0.18596314896373267  0.5342271425028229  0.5253330117385537  1.0000
  C   C14       1.0  0.2586338331674595  0.5343342113170968  0.5252414999598869  1.0000
  H   H1        1.0  0.5106217665973704  0.30672895774919184  0.7513152957893123  1.0000
  H   H2        1.0  0.38314254434437434  0.30741646780162535  0.7525171222354374  1.0000
  H   H3        1.0  0.3831393701446505  0.5347317994050778  0.3817624192863023  1.0000
  H   H4        1.0  0.510617886729847  0.535418946711715  0.3829646949521903  1.0000
  H   H5        1.0  0.2857819950355161  0.21865831268799218  0.6402267588826538  1.0000
  H   H6        1.0  0.1583028507802591  0.2196646674273539  0.641168106211925  1.0000
  H   H7        1.0  0.15823284895118697  0.6224830212668959  0.49311118442482926  1.0000
  H   H8        1.0  0.2857113915285178  0.6234896598145336  0.4940523097738283  1.0000
  C   C15       1.0  0.8345247883495618  0.03967624825082505  0.567258817293796  1.0000
  C   C16       1.0  0.822669054360254  0.0493590146056162  0.4323395387545246  1.0000
  C   C17       1.0  0.8165906493667501  0.9371306828128275  0.3638149036260898  1.0000
  C   C18       1.0  0.8225029091729019  0.8140992055304437  0.4320317674398644  1.0000
  C   C19       1.0  0.8343695860517127  0.8024612158392436  0.5670326329717101  1.0000
  C   C20       1.0  0.8403105620587381  0.9157668678049187  0.6338150361400805  1.0000
  C   C21       1.0  0.8040495723449836  0.9483475497574322  0.22108659834731714  1.0000
  C   C22       1.0  0.8393074545346602  0.04244799542897115  0.13967255957630176  1.0000
  C   C23       1.0  0.827511193673053  0.05287292894427531  0.005355713606506551  1.0000
  C   C24       1.0  0.7806533647679079  0.9685234486943113  0.9496076006407046  1.0000
  C   C25       1.0  0.7445465223599889  0.8762392799446769  0.0309534830822491  1.0000
  C   C26       1.0  0.7563681017475176  0.8655583222090807  0.16523299521657742  1.0000
  N   N3        1.0  0.7666208493069168  0.9787467730859125  0.8120525686377382  1.0000
  C   C27       1.0  0.8173816226988684  0.01567065874637441  0.7138391316920121  1.0000
  O   O1        1.0  0.8811389012778092  0.018208544391100867  0.7416963176163449  1.0000
  C   C28       1.0  0.7952261710813905  0.04209960107788935  0.5753053111984587  1.0000
  H   H9        1.0  0.839106584949229  0.36342802828695153  0.619148848872211  1.0000
  H   H10       1.0  0.8171765924589284  0.14439744913016495  0.380532169969271  1.0000
  H   H11       1.0  0.8187706957277066  0.7272933560059849  0.3794056231270275  1.0000
  H   H12       1.0  0.8494574772472352  0.9075834826082028  0.7378806497306916  1.0000
  H   H13       1.0  0.8571835118820337  0.5732117850715648  0.8217088921811664  1.0000
  H   H14       1.0  0.8764156196862835  0.10750151187241608  0.17976311779942855  1.0000
  H   H15       1.0  0.8541819163037307  0.12832089794707824  0.9457778834084203  1.0000
  H   H16       1.0  0.7073717648489188  0.8118897023020074  0.9899959268957619  1.0000
  H   H17       1.0  0.727463971195243  0.7937268087825551  0.22564373674315785  1.0000
  H   H18       1.0  0.7176719771557857  0.9498742050084524  0.7809804939172027  1.0000
  H   H19       1.0  0.7450562341001874  0.09554470378861457  0.5708518746394748  1.0000
  H   H20       1.0  0.7888003677107976  0.9484841522787104  0.5300832237241022  1.0000
  H   H21       1.0  0.8347992988953243  0.10218374281080744  0.5199124408250007  1.0000
  C   C29       1.0  0.8344945193617931  0.42098383413948204  0.18579160392258776  1.0000
  C   C30       1.0  0.8847950119708178  0.520020387847864  0.1771006616302997  1.0000
  C   C31       1.0  0.9102290604179447  0.5702982860948187  0.055552943987106085  1.0000
  C   C32       1.0  0.8846995203783972  0.520192633389899  0.9418004347085915  1.0000
  C   C33       1.0  0.8343998539636199  0.4211535601474823  0.9484998243953808  1.0000
  C   C34       1.0  0.8095771052943116  0.372107177542661  0.07094959898185582  1.0000
  C   C35       1.0  0.9634450065383128  0.6750678806304735  0.04745025057989838  1.0000
  C   C36       1.0  0.9587253697843977  0.7796533597334048  0.9515929443895774  1.0000
  C   C37       1.0  0.00883597925686086  0.8781773332308824  0.9440522055662486  1.0000
  C   C38       1.0  0.06423927796674556  0.8744739540227884  0.032727766450489026  1.0000
  C   C39       1.0  0.06962524562524686  0.7696096165921424  0.1275283826941105  1.0000
  C   C40       1.0  0.019529011782252192  0.6710609422662046  0.13524189950969112  1.0000
  C   C41       1.0  0.11910174930271666  0.9786995034243331  0.022241415432725287  1.0000
  N   N4        1.0  0.17238856521445145  0.9460451299774804  0.929373209298415  1.0000
  H   H22       1.0  0.8153559321335172  0.3831994037084303  0.5165600924767642  1.0000
  H   H23       1.0  0.9036269935999528  0.5595291970123153  0.26495882409184346  1.0000
  H   H24       1.0  0.9048401946833006  0.5573503973813998  0.8479819162157067  1.0000
  H   H25       1.0  0.77077279742706  0.2957039393827132  0.07688570146107687  1.0000
  H   H26       1.0  0.815220182814818  0.38343812970657987  0.6235972826556795  1.0000
  H   H27       1.0  0.9158598970482535  0.7860002529388763  0.8832893654442437  1.0000
  H   H28       1.0  0.00434337831332865  0.9575833572651191  0.869189401185249  1.0000
  H   H29       1.0  0.11274866794398286  0.7639150312998633  0.19530524380107694  1.0000
  H   H30       1.0  0.025233168473054457  0.5906376842062511  0.2086391177360314  1.0000
  H   H31       1.0  0.09506719186346535  0.07373309796598093  0.9889327076450765  1.0000
  H   H32       1.0  0.1430679020366421  0.9900106835556053  0.11909474170594603  1.0000
  H   H33       1.0  0.20744541454562615  0.02374238763577674  0.9194106527387111  1.0000
  H   H34       1.0  0.2002884608944857  0.8657357702819217  0.9701694863758146  1.0000
  Zn  Zn1       1.0  0.7582902880014717  0.42107024721673625  0.567147628068909  1.0000
  Zn  Zn2       1.0  0.910597408125462  0.42106655789451763  0.5671432410837469  1.0000
  C   C42       1.0  0.8344172307471053  0.41594744129411665  0.8043332036043287  1.0000
  C   C43       1.0  0.8344721282195379  0.4261910025474456  0.32995779247603685  1.0000
  C   C44       1.0  0.8343959683378849  0.6582774404113418  0.5619004283413052  1.0000
  C   C45       1.0  0.8344933389659317  0.18385944302752932  0.5723906374391734  1.0000
  O   O2        1.0  0.8922643730325373  0.42793150958920334  0.37833961917100356  1.0000
  O   O3        1.0  0.8922225662071446  0.41420315426312415  0.7559476737481041  1.0000
  O   O4        1.0  0.8922046172067709  0.6098876935508308  0.5601814920931338  1.0000
  O   O5        1.0  0.8922822700710055  0.2322469795720008  0.5741057034538237  1.0000
  O   O6        1.0  0.7766053740809835  0.6098898255419245  0.560185165693498  1.0000
  O   O7        1.0  0.7766233227692387  0.4142068466595805  0.7559512776430213  1.0000
  O   O8        1.0  0.776665129843903  0.42793515637878743  0.3783416617391886  1.0000
  O   O9        1.0  0.7766830268693321  0.23225061709375194  0.5741078433888251  1.0000
