data_image0
_chemical_formula_structural       NC12NC2H8C12NH11C13F3H9Zn2C4O8
_chemical_formula_sum              "N3 C43 H28 F3 Zn2 O8"
_cell_length_a       19.240039667572717
_cell_length_b       10.299770795358612
_cell_length_c       10.2985328690268
_cell_angle_alpha    85.57387741516429
_cell_angle_beta     90.00547390957905
_cell_angle_gamma    90.01598423534

_space_group_name_H-M_alt    "P 1"
_space_group_IT_number       1

loop_
  _space_group_symop_operation_xyz
  'x, y, z'

loop_
  _atom_site_type_symbol
  _atom_site_label
  _atom_site_symmetry_multiplicity
  _atom_site_fract_x
  _atom_site_fract_y
  _atom_site_fract_z
  _atom_site_occupancy
  N   N1        1.0  0.6546160463183259  0.42082667812539754  0.5672721537895162  1.0000
  C   C1        1.0  0.5944676775093926  0.42082676208106307  0.5672720718422364  1.0000
  C   C2        1.0  0.5196496403787162  0.42082687932392715  0.5672719345214161  1.0000
  C   C3        1.0  0.4831715931217683  0.3563937772816961  0.6706948518489775  1.0000
  C   C4        1.0  0.4105008328924384  0.35628292305658316  0.6707814060480142  1.0000
  C   C5        1.0  0.373317405443553  0.42082697181830375  0.5672717068181747  1.0000
  C   C6        1.0  0.41050965641976606  0.48537120762637453  0.46376220213416675  1.0000
  C   C7        1.0  0.4831803327252597  0.4852601179402052  0.4638488788545516  1.0000
  C   C8        1.0  0.2961123149872936  0.4208268931276882  0.5672716113994016  1.0000
  C   C9        1.0  0.258909734740098  0.30757928925504285  0.6091508861854857  1.0000
  C   C10       1.0  0.1862390576455434  0.3076861609836836  0.6090595488363404  1.0000
  C   C11       1.0  0.14978002804792367  0.42082676397391783  0.567271672320407  1.0000
  C   C12       1.0  0.0749619908887143  0.42082665030830024  0.5672719210051229  1.0000
  N   N2        1.0  0.014813674041188  0.42082660954938933  0.5672721294419008  1.0000
  C   C13       1.0  0.18626850931553346  0.5339674427752461  0.5254837429061545  1.0000
  C   C14       1.0  0.2589392168415698  0.5340744945741418  0.5253922429417277  1.0000
  H   H1        1.0  0.5108831387556456  0.30650847796561087  0.7514445073804832  1.0000
  H   H2        1.0  0.3834043820951933  0.3071960527093034  0.752646612983429  1.0000
  H   H3        1.0  0.3834195764303198  0.534458105010289  0.38189694434525157  1.0000
  H   H4        1.0  0.5108985585536098  0.535145317079363  0.38309949914374597  1.0000
  H   H5        1.0  0.285991290287694  0.21843371291861513  0.6403250802235025  1.0000
  H   H6        1.0  0.158512683202092  0.21944008284860028  0.6412667432592851  1.0000
  H   H7        1.0  0.1585650603082755  0.6222134963780221  0.4932765630358986  1.0000
  H   H8        1.0  0.2860441401207162  0.6232201500731824  0.4942180041250641  1.0000
  C   C15       1.0  0.834655217775805  0.03945812845543317  0.5673117202146596  1.0000
  C   C16       1.0  0.8144756651917378  0.04859293385204211  0.4358915855895351  1.0000
  C   C17       1.0  0.8043142744702793  0.9360854432463732  0.3692648694845211  1.0000
  C   C18       1.0  0.8146028751223143  0.8133112993041499  0.435823027643903  1.0000
  C   C19       1.0  0.8347811699767956  0.8021852022639308  0.5672437128573702  1.0000
  C   C20       1.0  0.8446946805387913  0.9158131550499216  0.6322519958008563  1.0000
  C   C21       1.0  0.7829657833540291  0.9468029423352605  0.2302299948166291  1.0000
  C   C22       1.0  0.7323550723176077  0.037966930364851104  0.18503949536306474  1.0000
  C   C23       1.0  0.7122916738129293  0.047925014876739835  0.054178810365936636  1.0000
  C   C24       1.0  0.7424593295576569  0.967137914885048  0.9664283319562283  1.0000
  C   C25       1.0  0.7929032126573494  0.8761717342721174  0.010728206655475025  1.0000
  C   C26       1.0  0.8130222861906766  0.8659576147512363  0.14155891640753326  1.0000
  N   N3        1.0  0.7219074603671515  0.9774551353770189  0.8325829204913466  1.0000
  H   H9        1.0  0.8423150037353099  0.3634296082718633  0.6174060179287171  1.0000
  H   H10       1.0  0.8075346087253258  0.1434824300104225  0.3845355409949647  1.0000
  H   H11       1.0  0.8059172298624891  0.7262668382128709  0.3854071561899932  1.0000
  H   H12       1.0  0.8602617629895247  0.9079980303425419  0.733636809495172  1.0000
  H   H13       1.0  0.8425002524176134  0.4704931982012648  0.6173063868003077  1.0000
  H   H14       1.0  0.70763477430162  0.10039840869149064  0.25124763326910693  1.0000
  H   H15       1.0  0.673105054816679  0.11839605184090773  0.02126480877888004  1.0000
  H   H16       1.0  0.8167639292987322  0.813394489047808  0.9438307447308327  1.0000
  H   H17       1.0  0.8527416459625936  0.7959964061256908  0.17303326867944846  1.0000
  H   H18       1.0  0.7441000178072138  0.9176394575762232  0.766438399520653  1.0000
  H   H19       1.0  0.6843475737946823  0.04498583787557564  0.7986456749622208  1.0000
  C   C27       1.0  0.8346982003674543  0.4206997156563139  0.18588026881559205  1.0000
  C   C28       1.0  0.9043837469611733  0.3798084040410381  0.1880970118623042  1.0000
  C   C29       1.0  0.939693955028591  0.3592071364374414  0.07204938620524404  1.0000
  C   C30       1.0  0.904424820502903  0.3800640204266257  0.9527963125589096  1.0000
  C   C31       1.0  0.8347381889630516  0.4209436272264171  0.9486752213312752  1.0000
  C   C32       1.0  0.8003199086478993  0.44099524473816487  0.06571459311133321  1.0000
  C   C33       1.0  0.01336817420934211  0.315987455616763  0.07532744847613504  1.0000
  C   C34       1.0  0.06136795532389483  0.3705878230955477  0.9837809128635571  1.0000
  C   C35       1.0  0.130705289602147  0.3300144296937537  0.9868874860235426  1.0000
  C   C36       1.0  0.15330435607783532  0.23261849581822802  0.08036766717950306  1.0000
  C   C37       1.0  0.1057071914304526  0.17983717063648252  0.17349136757331451  1.0000
  C   C38       1.0  0.036374386857479735  0.22044361895863762  0.17049571244810457  1.0000
  C   C39       1.0  0.22865260794567033  0.19233200048096633  0.08665477148255696  1.0000
  F   F1        1.0  0.2643092851721558  0.2716464396459388  0.16613238093265204  1.0000
  F   F2        1.0  0.25825367594344373  0.20350514731751046  0.9637965619421824  1.0000
  F   F3        1.0  0.23506803695085132  0.06421108469348336  0.13655227621480814  1.0000
  H   H20       1.0  0.7031510415320736  0.4987876118698358  0.3889533044828879  1.0000
  H   H21       1.0  0.9315992542332607  0.3656488793559125  0.28017727341805143  1.0000
  H   H22       1.0  0.9311142380252343  0.362682521850082  0.8631671787928203  1.0000
  H   H23       1.0  0.7466116523228722  0.47250573798643614  0.06327298174068585  1.0000
  H   H24       1.0  0.7029282490345021  0.4974479904110525  0.7336191524379618  1.0000
  H   H25       1.0  0.0455424085213636  0.44635196344459405  0.9110448780838825  1.0000
  H   H26       1.0  0.16674590010742318  0.3752406440043352  0.9163981670481927  1.0000
  H   H27       1.0  0.12208887411087499  0.106964561262058  0.24867002271365135  1.0000
  H   H28       1.0  0.0005842653677834431  0.1761714298667345  0.24200462340316942  1.0000
  Zn  Zn1       1.0  0.7585613099736945  0.42082319353170883  0.5672796360588284  1.0000
  Zn  Zn2       1.0  0.910868427963207  0.4208195040628153  0.567275247809943  1.0000
  C   C40       1.0  0.8347282271562689  0.4157238327412074  0.8044910951275923  1.0000
  C   C41       1.0  0.834703174246911  0.42592050347169064  0.330063916023253  1.0000
  C   C42       1.0  0.8347535176255736  0.658011888000487  0.5620810472936093  1.0000
  C   C43       1.0  0.8346778315517936  0.1836308879348285  0.5724740332415714  1.0000
  O   O1        1.0  0.8925046001124533  0.42766558168518665  0.3784516003472653  1.0000
  O   O2        1.0  0.8925243795165548  0.4139749744651511  0.7560997064374788  1.0000
  O   O3        1.0  0.8925440227927854  0.6096256436883567  0.5603518776223635  1.0000
  O   O4        1.0  0.8924849048605492  0.2320149217223162  0.574199331781091  1.0000
  O   O5        1.0  0.7769447811014076  0.6096277758748789  0.560355552082346  1.0000
  O   O6        1.0  0.7769251380760454  0.41397866693192586  0.7561033115077913  1.0000
  O   O7        1.0  0.7769053586288278  0.4276692283967718  0.3784536439040054  1.0000
  O   O8        1.0  0.776885663377653  0.23201855917623715  0.5742014727137867  1.0000
