data_image0
_chemical_formula_structural       NC10NC3NH7C12NH11C15H12Zn2C4O8
_chemical_formula_sum              "N4 C44 H30 Zn2 O8"
_cell_length_a       19.210446455230148
_cell_length_b       10.299770795358612
_cell_length_c       10.299157797200024
_cell_angle_alpha    85.53969178690444
_cell_angle_beta     90.0131967510761
_cell_angle_gamma    89.96457025778629

_space_group_name_H-M_alt    "P 1"
_space_group_IT_number       1

loop_
  _space_group_symop_operation_xyz
  'x, y, z'

loop_
  _atom_site_type_symbol
  _atom_site_label
  _atom_site_symmetry_multiplicity
  _atom_site_fract_x
  _atom_site_fract_y
  _atom_site_fract_z
  _atom_site_occupancy
  N   N1        1.0  0.6553966650525377  0.4205958107172325  0.5671790902098064  1.0000
  C   C1        1.0  0.5951683505320099  0.42280321747267124  0.5674101594125276  1.0000
  C   C2        1.0  0.5203642020509603  0.4255399976964189  0.5676964252357513  1.0000
  C   C3        1.0  0.4847662974713218  0.541763884969449  0.5828042135745624  1.0000
  C   C4        1.0  0.4121008178846131  0.5419154354991238  0.5827516069520289  1.0000
  C   C5        1.0  0.3751975251117399  0.4262489258897355  0.5677828836964891  1.0000
  C   C6        1.0  0.2978752524061971  0.4248925195064561  0.567632339784655  1.0000
  C   C7        1.0  0.2601146274651526  0.5284805558519192  0.504262714912239  1.0000
  C   C8        1.0  0.1873361346243989  0.5270783824921066  0.5041536929696504  1.0000
  C   C9        1.0  0.1513168644439715  0.4223456935923686  0.5673632855170088  1.0000
  C   C10       1.0  0.0763872085401415  0.4210436761104295  0.5672265033951962  1.0000
  N   N2        1.0  0.0161492470040636  0.4199968098363398  0.5671165654489352  1.0000
  C   C11       1.0  0.1883538361312031  0.3188833551840726  0.63070789529732  1.0000
  C   C12       1.0  0.261134167656507  0.32001125000481156  0.6308671773167298  1.0000
  C   C13       1.0  0.4134055041226061  0.3118451750667257  0.5529632001373559  1.0000
  N   N3        1.0  0.4841756848176955  0.3142900567177016  0.553128670226658  1.0000
  H   H1        1.0  0.5128771877753017  0.6311922538119843  0.5948495823901678  1.0000
  H   H2        1.0  0.3848422629330994  0.6319252329286418  0.5961917523248828  1.0000
  H   H3        1.0  0.286836278698073  0.6097480780408864  0.45326586799523993  1.0000
  H   H4        1.0  0.1591843411154927  0.6075178073599121  0.45448734785164757  1.0000
  H   H5        1.0  0.1609921983438894  0.237480580723207  0.6802747904090107  1.0000
  H   H6        1.0  0.2886414364789828  0.23969056920789789  0.6819713235307896  1.0000
  H   H7        1.0  0.3871297861046043  0.22097248606087017  0.5394768411521511  1.0000
  C   C14       1.0  0.8357132106693642  0.03892787585157009  0.5671874346470434  1.0000
  C   C15       1.0  0.8154816666314799  0.04817490025344906  0.4357726758604872  1.0000
  C   C16       1.0  0.8052940240575204  0.9357241869143426  0.3691486731816056  1.0000
  C   C17       1.0  0.8156090616369247  0.8128930952235989  0.43570409683366096  1.0000
  C   C18       1.0  0.8358393460951414  0.8016547809398387  0.5671194064188074  1.0000
  C   C19       1.0  0.8457784692079706  0.9152273373835964  0.6321250420300999  1.0000
  C   C20       1.0  0.7838905294695363  0.9465604066915595  0.2301194857861335  1.0000
  C   C21       1.0  0.7331946599804219  0.037835598141338966  0.18493840819677487  1.0000
  C   C22       1.0  0.7130795379512533  0.0479053736477546  0.05408307090761011  1.0000
  C   C23       1.0  0.7432797128471942  0.967120637726731  0.9663286138819993  1.0000
  C   C24       1.0  0.7938083557275379  0.8760440641970915  0.010619108363732144  1.0000
  C   C25       1.0  0.8139792337904751  0.8657181790501475  0.14144446118094867  1.0000
  N   N4        1.0  0.7226748928630874  0.9775521480154356  0.8324886774487914  1.0000
  H   H8        1.0  0.8433927649696241  0.3628566339182182  0.6172796887987269  1.0000
  H   H9        1.0  0.8085217484112469  0.143106678343506  0.38441856820524634  1.0000
  H   H10       1.0  0.8069020164526818  0.7258932541247214  0.3852904514325295  1.0000
  H   H11       1.0  0.8613856599174953  0.9073256415957883  0.7335057085981878  1.0000
  H   H12       1.0  0.8435782831988294  0.4699199754610295  0.6171800269680168  1.0000
  H   H13       1.0  0.7084468086040263  0.1002685495486948  0.2511498876476228  1.0000
  H   H14       1.0  0.6738273130532092  0.118461270084808  0.02117633479712877  1.0000
  H   H15       1.0  0.8176951918208664  0.8132671877822909  0.9437184638003839  1.0000
  H   H16       1.0  0.8537647912213174  0.7956720868763929  0.17291147614648583  1.0000
  H   H17       1.0  0.7448911195517087  0.9177391620741916  0.7663412523721247  1.0000
  H   H18       1.0  0.685051743777475  0.04516561761715043  0.7985584299068895  1.0000
  C   C26       1.0  0.8356955913080163  0.4203977083432069  0.18576142185099243  1.0000
  C   C27       1.0  0.7631888159802088  0.4025387513361982  0.18595075093619484  1.0000
  C   C28       1.0  0.7265747689606711  0.39337450169922517  0.06890440834169476  1.0000
  C   C29       1.0  0.7633956054439796  0.40232967650860907  0.9506834390654815  1.0000
  C   C30       1.0  0.8358569457361439  0.4201849142397458  0.9485454349656601  1.0000
  C   C31       1.0  0.8715838099790286  0.42910890510652533  0.0666147970055162  1.0000
  C   C32       1.0  0.6499188708358782  0.3744989407650201  0.07015086954686378  1.0000
  C   C33       1.0  0.6185829262910584  0.28757207638913673  0.9890570076734928  1.0000
  C   C34       1.0  0.5464465299340276  0.2699024314198999  0.9902622307136077  1.0000
  C   C35       1.0  0.5043611374613745  0.33815270677487774  0.07309353346838754  1.0000
  C   C36       1.0  0.5353246916542378  0.42592573525401245  0.153210669230176  1.0000
  C   C37       1.0  0.6074603868570938  0.4435995797373318  0.1521533966648141  1.0000
  C   C38       1.0  0.4266502291129666  0.32146659968942193  0.0720455417114978  1.0000
  C   C39       1.0  0.3953599157645528  0.41528584338183716  0.9746317049922997  1.0000
  C   C40       1.0  0.3696439494615008  0.4924333206885321  0.8945305921228126  1.0000
  H   H19       1.0  0.9726035774574316  0.45331075737799753  0.3927587953687195  1.0000
  H   H20       1.0  0.7351886460061668  0.39396039512452097  0.27749410575629785  1.0000
  H   H21       1.0  0.7352958237100146  0.39713830729512356  0.860056471195215  1.0000
  H   H22       1.0  0.9274754341544861  0.44287740911946316  0.06568142388476939  1.0000
  H   H23       1.0  0.8637308573955712  0.42701119562589507  0.6202507257568048  1.0000
  H   H24       1.0  0.6499455548046734  0.23215448986380305  0.9256844118336671  1.0000
  H   H25       1.0  0.5233891070637624  0.20278511837995827  0.9267130785787634  1.0000
  H   H26       1.0  0.5035555046573111  0.48103481869500087  0.2162383638040266  1.0000
  H   H27       1.0  0.6299504006223385  0.5128250593848653  0.2140612185009756  1.0000
  H   H28       1.0  0.4127410233052106  0.22124965184451173  0.04861162917518125  1.0000
  H   H29       1.0  0.4044946299684905  0.33694829616366717  0.16926932297655162  1.0000
  H   H30       1.0  0.3470870414984181  0.5601661466653696  0.8242091224567005  1.0000
  Zn  Zn1       1.0  0.7595020676932455  0.4204194858610857  0.5671685467447694  1.0000
  Zn  Zn2       1.0  0.91204382892352  0.4201625491912566  0.5671377462788387  1.0000
  C   C41       1.0  0.8358240568398857  0.41505148820729754  0.8043634104652975  1.0000
  C   C42       1.0  0.8357235058261346  0.4255321826212892  0.32994300955009837  1.0000
  C   C43       1.0  0.8358108300005272  0.6574846029174404  0.5619568193626168  1.0000
  C   C44       1.0  0.8357366803702571  0.18309750767887034  0.5723496700451807  1.0000
  O   O1        1.0  0.8936216766652315  0.4271521872314925  0.37831997938566087  1.0000
  O   O2        1.0  0.8937015529573485  0.41323549499280743  0.7559626900074021  1.0000
  O   O3        1.0  0.8936900920342431  0.6090033020441796  0.5602176526623543  1.0000
  O   O4        1.0  0.893633085517101  0.23138438958516927  0.5740649193598226  1.0000
  O   O5        1.0  0.7779127590446466  0.6091976455562689  0.5602413736674647  1.0000
  O   O6        1.0  0.7779242202079699  0.4134313988262679  0.7559863416237895  1.0000
  O   O7        1.0  0.7778443436243059  0.42734804624452405  0.3783420695107784  1.0000
  O   O8        1.0  0.7778557524923936  0.23158023928224702  0.5740871068595055  1.0000
