data_image0
_chemical_formula_structural       NC9NC5H8C12OCH12C13F3H9Zn2C4O8
_chemical_formula_sum              "N2 C44 H29 O9 F3 Zn2"
_cell_length_a       17.807436237873137
_cell_length_b       10.29979075500242
_cell_length_c       10.2985328690268
_cell_angle_alpha    85.57397699723032
_cell_angle_beta     89.39824995993841
_cell_angle_gamma    88.37243818242351

_space_group_name_H-M_alt    "P 1"
_space_group_IT_number       1

loop_
  _space_group_symop_operation_xyz
  'x, y, z'

loop_
  _atom_site_type_symbol
  _atom_site_label
  _atom_site_symmetry_multiplicity
  _atom_site_fract_x
  _atom_site_fract_y
  _atom_site_fract_z
  _atom_site_occupancy
  N   N1        1.0  0.7070845786516369  0.3873122244217886  0.5569037234155976  1.0000
  C   C1        1.0  0.6465026687359104  0.35211894338948424  0.5458819426030994  1.0000
  C   C2        1.0  0.5711454313135159  0.3083423774668468  0.5321720439999897  1.0000
  C   C3        1.0  0.553060799800746  0.23689443108089026  0.42716730467152475  1.0000
  C   C4        1.0  0.4798928256139428  0.1942792365912247  0.41377325146319555  1.0000
  C   C5        1.0  0.4237608295313145  0.2227344473598516  0.5053515153306292  1.0000
  C   C6        1.0  0.3460021185829626  0.1775604135436475  0.49119917631328547  1.0000
  C   C7        1.0  0.2838127275912142  0.2593249407827818  0.5171331489474178  1.0000
  C   C8        1.0  0.2105024852932516  0.2165067117052457  0.5037527950166327  1.0000
  C   C9        1.0  0.1472625479509068  0.3009627139457327  0.5300504709888265  1.0000
  N   N2        1.0  0.0964306276153469  0.36885949708334054  0.5511930764209942  1.0000
  C   C10       1.0  0.1987981334375475  0.09166596660895832  0.464413138547624  1.0000
  C   C11       1.0  0.2601301565928108  0.009887584415334771  0.43847077675112556  1.0000
  C   C12       1.0  0.3333210254915477  0.05231120807569356  0.45164861029441683  1.0000
  C   C13       1.0  0.4425367901730077  0.29467683005840795  0.6105754591378647  1.0000
  C   C14       1.0  0.5157576607357769  0.3371015810956657  0.6238138658973438  1.0000
  H   H1        1.0  0.5954556946365761  0.21438684234164262  0.35545103382297283  1.0000
  H   H2        1.0  0.46698514989564655  0.14057100384788845  0.330851066685488  1.0000
  H   H3        1.0  0.2922945334481054  0.3567991399500965  0.5460041311864612  1.0000
  H   H4        1.0  0.1423385484829761  0.057626506861332194  0.45382033218957774  1.0000
  H   H5        1.0  0.250949793570608  0.9132331145541653  0.40839922335254486  1.0000
  H   H6        1.0  0.379972446157164  0.986560027152266  0.4326043280508485  1.0000
  H   H7        1.0  0.4008589436068045  0.31664576988193804  0.6835863716025394  1.0000
  H   H8        1.0  0.5291934113911976  0.39203008005566864  0.7056942421745314  1.0000
  C   C15       1.0  0.9018287071557732  0.996714760656572  0.5540863325016534  1.0000
  C   C16       1.0  0.8800892503247469  0.9866188519326996  0.6858532804999884  1.0000
  C   C17       1.0  0.8690140827962439  0.8643697084697296  0.7525883157882678  1.0000
  C   C18       1.0  0.8799542761394396  0.7513429357434859  0.6857894700851728  1.0000
  C   C19       1.0  0.9016936995681772  0.7594466309991973  0.5540215899908889  1.0000
  C   C20       1.0  0.9125109353629023  0.8825795993320109  0.48890847792456005  1.0000
  C   C21       1.0  0.8460195460076242  0.8547426958776976  0.8919915372439458  1.0000
  C   C22       1.0  0.7912061146786584  0.76648796642387  0.9378644876891589  1.0000
  C   C23       1.0  0.7696319123075861  0.7576977038752429  0.06892993648496681  1.0000
  C   C24       1.0  0.8023852259476439  0.8365171627598907  0.15580436875361614  1.0000
  C   C25       1.0  0.8573987660702744  0.9253720605448726  0.11180033173972803  1.0000
  C   C26       1.0  0.8787400383822447  0.9338120153445045  0.9802115595160685  1.0000
  O   O1        1.0  0.8921297552161791  0.006451356457944701  0.19516575032766115  1.0000
  C   C27       1.0  0.8760309572905071  0.008232367936350515  0.3307482953074601  1.0000
  H   H9        1.0  0.9101452507046128  0.3280116607637904  0.5038982804933643  1.0000
  H   H10       1.0  0.8707234014770158  0.07410412389139887  0.7364232571481231  1.0000
  H   H11       1.0  0.8724678134944902  0.6568129513905849  0.7372710662078126  1.0000
  H   H12       1.0  0.9292825860029251  0.8895997424868093  0.3872558361931988  1.0000
  H   H13       1.0  0.9099400298758634  0.43508481186870196  0.503796929846068  1.0000
  H   H14       1.0  0.7643314065474248  0.7055129171403375  0.8720440879808147  1.0000
  H   H15       1.0  0.7272042303434917  0.6897485182745021  0.10323359657599473  1.0000
  H   H16       1.0  0.7845870823956131  0.8276411924029404  0.25673968034299754  1.0000
  H   H17       1.0  0.9217739707068028  0.001306709002387052  0.9474119803807799  1.0000
  H   H18       1.0  0.8890113706921233  0.9111032100262959  0.38118434857828065  1.0000
  H   H19       1.0  0.911484918044114  0.08120365127183082  0.37244581807414734  1.0000
  H   H20       1.0  0.8160583905810318  0.03598967484120008  0.34606450975536984  1.0000
  C   C28       1.0  0.9017396210401852  0.3779597883086765  0.17265682937343096  1.0000
  C   C29       1.0  0.9770788909584318  0.33349793395477656  0.17376850123095866  1.0000
  C   C30       1.0  0.015253842381302674  0.3110874463510742  0.05716092823214103  1.0000
  C   C31       1.0  0.9771231974248386  0.33375144995721606  0.9384671525140713  1.0000
  C   C32       1.0  0.9017827589245735  0.37820165490336377  0.9354511495955342  1.0000
  C   C33       1.0  0.8645721084192285  0.40001679150006964  0.05303632437412498  1.0000
  C   C34       1.0  0.09490538928821346  0.2640928516691714  0.059270667154360135  1.0000
  C   C35       1.0  0.14677005869514548  0.3162350349658245  0.9669635234379519  1.0000
  C   C36       1.0  0.221732824773333  0.27210894218266946  0.9689705481321189  1.0000
  C   C37       1.0  0.24619531065746236  0.17355383385216427  0.06209177366604135  1.0000
  C   C38       1.0  0.19476519202909537  0.12321009403922711  0.1559697116614538  1.0000
  C   C39       1.0  0.11980731046253434  0.16736901017860362  0.15407353341647867  1.0000
  C   C40       1.0  0.32765531564271866  0.12940670864400272  0.06718403487134084  1.0000
  F   F1        1.0  0.3661692495278279  0.20689565722066705  0.14609689327979036  1.0000
  F   F2        1.0  0.35964782740306256  0.13906358064808355  0.9438566094155489  1.0000
  F   F3        1.0  0.33463545460397626  0.0009552391053455622  0.11697894615330373  1.0000
  H   H21       1.0  0.7595194678137146  0.4627879011118319  0.37781594189885404  1.0000
  H   H22       1.0  0.006501801335675683  0.31794396997221175  0.26541719262317387  1.0000
  H   H23       1.0  0.005978590674389883  0.31500241557535924  0.8484147669452247  1.0000
  H   H24       1.0  0.806506399179161  0.43427918422316303  0.051446416792856775  1.0000
  H   H25       1.0  0.7592791225010616  0.46145967331668025  0.7224853127481312  1.0000
  H   H26       1.0  0.1296369190758706  0.3928110273566716  0.8944789082255067  1.0000
  H   H27       1.0  0.26067388084756704  0.31548949278571237  0.8979101561349254  1.0000
  H   H28       1.0  0.21249844382220173  0.04949718499999589  0.23088815024553555  1.0000
  H   H29       1.0  0.08113667460801244  0.12492966655219195  0.22614955274103266  1.0000
  Zn  Zn1       1.0  0.8194414378903645  0.38198370298974327  0.555263265692179  1.0000
  Zn  Zn2       1.0  0.9840737526574582  0.3741774356703742  0.5528442124449047  1.0000
  C   C41       1.0  0.9017738468262078  0.3729822935004148  0.7912671453206497  1.0000
  C   C42       1.0  0.9017431412184878  0.38318039858421593  0.31684043373734894  1.0000
  C   C43       1.0  0.9017150405556603  0.6152726390375969  0.5488583677787291  1.0000
  C   C44       1.0  0.9018018915916797  0.14088849542184856  0.5592492814808268  1.0000
  O   O2        1.0  0.964221429091118  0.3819643795470209  0.3643117508756062  1.0000
  O   O3        1.0  0.9642476766816441  0.36827255642069257  0.7419594489501757  1.0000
  O   O4        1.0  0.9641993477295843  0.5639251149848512  0.5462126582637199  1.0000
  O   O5        1.0  0.9642697018581686  0.18631183290600872  0.5600584450048542  1.0000
  O   O6        1.0  0.8392454325087245  0.5698493084194167  0.5480490339509021  1.0000
  O   O7        1.0  0.8392937611772101  0.3741983101457518  0.743795755254473  1.0000
  O   O8        1.0  0.8392675135563469  0.38789008751842213  0.3661464956666991  1.0000
  O   O9        1.0  0.8393157863274768  0.19223753161957124  0.5618932871718272  1.0000
