data_image0
_chemical_formula_structural       NC10NC3NCH9C12NH11C13OH12Zn2C4O8
_chemical_formula_sum              "N4 C43 H32 O9 Zn2"
_cell_length_a       19.437513618241372
_cell_length_b       10.299770795358612
_cell_length_c       10.299153481560891
_cell_angle_alpha    85.5776922204699
_cell_angle_beta     90.36417058255482
_cell_angle_gamma    89.53989505547142

_space_group_name_H-M_alt    "P 1"
_space_group_IT_number       1

loop_
  _space_group_symop_operation_xyz
  'x, y, z'

loop_
  _atom_site_type_symbol
  _atom_site_label
  _atom_site_symmetry_multiplicity
  _atom_site_fract_x
  _atom_site_fract_y
  _atom_site_fract_z
  _atom_site_occupancy
  N   N1        1.0  0.6478545280828608  0.4099359101778275  0.575614926112141  1.0000
  C   C1        1.0  0.5889234090708835  0.42694480147786873  0.5726389219172348  1.0000
  C   C2        1.0  0.5154857113557357  0.4481958615200168  0.5689449208354402  1.0000
  C   C3        1.0  0.4737043706727673  0.3470034221949123  0.5572852325125495  1.0000
  C   C4        1.0  0.3978146514502353  0.35706578665715427  0.5500638237116051  1.0000
  C   C5        1.0  0.35826659120678955  0.43793404749971443  0.6158073351758491  1.0000
  C   C6        1.0  0.2820812863166003  0.4293232371370006  0.6073631087103051  1.0000
  C   C7        1.0  0.2489263982091322  0.30798149756136106  0.6120062292138255  1.0000
  C   C8        1.0  0.17718924822323012  0.3016075705443526  0.6048380681698009  1.0000
  C   C9        1.0  0.1376363542405383  0.41610281686539463  0.5933890214906232  1.0000
  C   C10       1.0  0.06378464184209601  0.40939066154970183  0.5860527661679102  1.0000
  N   N2        1.0  0.0044129632914724  0.40399467887698925  0.5801548753011081  1.0000
  C   C11       1.0  0.1700747438869745  0.5371342200477818  0.589491185264136  1.0000
  C   C12       1.0  0.2417963530410842  0.5437621543551667  0.5967213691407118  1.0000
  C   C13       1.0  0.3869838095326016  0.5302454468896558  0.7057285986252382  1.0000
  N   N3        1.0  0.4439754007856584  0.5934509401101344  0.6853243230137456  1.0000
  C   C14       1.0  0.4877914890390679  0.5841555034746118  0.5722153911128769  1.0000
  H   H1        1.0  0.4960698620806136  0.25194473764169567  0.545163634691392  1.0000
  H   H2        1.0  0.3730768316113928  0.2875367625882015  0.49174481307238005  1.0000
  H   H3        1.0  0.2783638086071734  0.21807418155753733  0.6230269713806833  1.0000
  H   H4        1.0  0.1525805745027372  0.2073837343561371  0.6087250384669145  1.0000
  H   H5        1.0  0.1399524128280816  0.6263873373142821  0.5807826166667323  1.0000
  H   H6        1.0  0.2659235715203488  0.6383987800129876  0.592818939953935  1.0000
  H   H7        1.0  0.3570012748844352  0.5506563117649788  0.790096307325231  1.0000
  H   H8        1.0  0.5305571411835005  0.6544687589861871  0.5779790445404858  1.0000
  H   H9        1.0  0.45811061531697955  0.6122364432914762  0.4815688140813972  1.0000
  C   C15       1.0  0.8260747037652515  0.025597727621247124  0.5779237603901493  1.0000
  C   C16       1.0  0.8060854843464654  0.03505682614183647  0.4462576955718789  1.0000
  C   C17       1.0  0.7960198892568362  0.9227126036551466  0.3795071704432522  1.0000
  C   C18       1.0  0.8062114019622129  0.7997730888808271  0.44619074541231885  1.0000
  C   C19       1.0  0.8261993764154624  0.7883227194979502  0.5778573449308388  1.0000
  C   C20       1.0  0.8360194289236301  0.901791387426699  0.6429864162209467  1.0000
  C   C21       1.0  0.7748727565081157  0.933773181028059  0.24021211974023982  1.0000
  C   C22       1.0  0.7247687248384982  0.025769019469435994  0.194386602017663  1.0000
  C   C23       1.0  0.7048945436264773  0.03604951763848985  0.06328141502964213  1.0000
  C   C24       1.0  0.7347483586483491  0.9547591076587119  0.9759168008553405  1.0000
  C   C25       1.0  0.7846871560891981  0.8629637703735701  0.020849648128350662  1.0000
  C   C26       1.0  0.804616446735096  0.8524263169185923  0.1519255635372081  1.0000
  N   N4        1.0  0.714390334249723  0.9654066045090308  0.84182092177344  1.0000
  H   H10       1.0  0.8336622643773549  0.3494461253978869  0.6281113952392783  1.0000
  H   H11       1.0  0.7992092615745853  0.13005746719199096  0.39481745376697686  1.0000
  H   H12       1.0  0.7976083135206823  0.7128686098116357  0.3956686271709615  1.0000
  H   H13       1.0  0.8514396833101069  0.8937260939862139  0.7445609472520756  1.0000
  H   H14       1.0  0.8338456311553357  0.4565066532775984  0.6280141054262944  1.0000
  H   H15       1.0  0.7003050101609393  0.08861255443914984  0.26027891597843267  1.0000
  H   H16       1.0  0.6661004479058539  0.10716477090786669  0.029875601549631536  1.0000
  H   H17       1.0  0.8082999029867549  0.7997886018936946  0.9542572198753052  1.0000
  H   H18       1.0  0.8439377523488739  0.7818120110269363  0.18389853476354023  1.0000
  H   H19       1.0  0.7363518535726623  0.9052205677339725  0.7759603602346226  1.0000
  H   H20       1.0  0.6772064300102544  0.03355462474247495  0.8074124337515061  1.0000
  C   C27       1.0  0.8260779305003065  0.40681377251341155  0.1965172866075513  1.0000
  C   C28       1.0  0.7549427741901203  0.383618939748434  0.19628519163822666  1.0000
  C   C29       1.0  0.719000572702372  0.3720193582643776  0.07900153179523794  1.0000
  C   C30       1.0  0.7551051484089241  0.38393353215261494  0.9609792632401106  1.0000
  C   C31       1.0  0.8261961696438753  0.4071066661939373  0.959263850870097  1.0000
  C   C32       1.0  0.8612674557790383  0.41840787084264996  0.07756106058627932  1.0000
  C   C33       1.0  0.6437931715043254  0.3475097911490421  0.0797292217852581  1.0000
  C   C34       1.0  0.6002908342088996  0.413471237498956  0.9865018751470451  1.0000
  C   C35       1.0  0.5295162372170723  0.39045023065991846  0.9872646254120294  1.0000
  C   C36       1.0  0.5010526005910428  0.3002125431803213  0.08037029298017528  1.0000
  C   C37       1.0  0.5440935696778405  0.23535506116240823  0.17451019773108412  1.0000
  C   C38       1.0  0.6148714256585098  0.25834636639602127  0.1739256412636594  1.0000
  C   C39       1.0  0.4248058185734561  0.27819642231629915  0.08331793707389434  1.0000
  O   O1        1.0  0.3939183767907369  0.3662988918181427  0.1624240265072605  1.0000
  H   H21       1.0  0.9602617010247966  0.4514262573634995  0.4041825600071176  1.0000
  H   H22       1.0  0.7272038266250548  0.37631746738831584  0.28740827019956994  1.0000
  H   H23       1.0  0.7278062953714327  0.3733361727530693  0.8704535388939667  1.0000
  H   H24       1.0  0.916101716036473  0.4362856543286735  0.07695372736045525  1.0000
  H   H25       1.0  0.8535311887917401  0.41610593573949695  0.631121867616351  1.0000
  H   H26       1.0  0.6208685770830851  0.48438434787195184  0.9141998714903057  1.0000
  H   H27       1.0  0.4968819261505705  0.44327416362122496  0.9153636074999127  1.0000
  H   H28       1.0  0.5228817790759966  0.16665890559075347  0.24824381207017177  1.0000
  H   H29       1.0  0.6470922167141873  0.20532882420803178  0.24634462524973944  1.0000
  H   H30       1.0  0.4138696962249783  0.176591539640236  0.12200664679622508  1.0000
  H   H31       1.0  0.4030310656354116  0.2919244922991058  0.9829086318389728  1.0000
  H   H32       1.0  0.3439014841792837  0.34777877400210655  0.16108551436939011  1.0000
  Zn  Zn1       1.0  0.7507495965001179  0.40821791284272324  0.5769325667238734  1.0000
  Zn  Zn2       1.0  0.9015179009937355  0.4057020108005003  0.5788479056126696  1.0000
  C   C40       1.0  0.8261714262156835  0.40187766937625335  0.815088860985107  1.0000
  C   C41       1.0  0.8260977179509776  0.4120438654557774  0.3406917595922083  1.0000
  C   C42       1.0  0.8261714712290361  0.6441495252244165  0.5726946615667889  1.0000
  C   C43       1.0  0.826097621246621  0.16977045019598158  0.5830860277321468  1.0000
  O   O2        1.0  0.8833201436937502  0.4128386949912872  0.3898048913953558  1.0000
  O   O3        1.0  0.8833786548243748  0.39917234854232486  0.7674290533155561  1.0000
  O   O4        1.0  0.8833779200863747  0.5948099494748449  0.5716940123900118  1.0000
  O   O5        1.0  0.8833208269711663  0.21720110417006877  0.5855398342907314  1.0000
  O   O6        1.0  0.7689466190728633  0.5967188203331202  0.5702406373853688  1.0000
  O   O7        1.0  0.7689473540520435  0.40108277967219697  0.7659756089288505  1.0000
  O   O8        1.0  0.7688888427177629  0.4147490802650178  0.3883498855945706  1.0000
  O   O9        1.0  0.7688895260059392  0.21911148019246252  0.5840849258596728  1.0000
