data_image0
_chemical_formula_structural       NC12NC2H8C12SCH12C13NH9Zn2C4O8
_chemical_formula_sum              "N3 C44 H29 S1 Zn2 O8"
_cell_length_a       19.240039667572717
_cell_length_b       10.299776766347529
_cell_length_c       10.298528502251457
_cell_angle_alpha    85.54283687761513
_cell_angle_beta     89.99709375093414
_cell_angle_gamma    89.97991714870845

_space_group_name_H-M_alt    "P 1"
_space_group_IT_number       1

loop_
  _space_group_symop_operation_xyz
  'x, y, z'

loop_
  _atom_site_type_symbol
  _atom_site_label
  _atom_site_symmetry_multiplicity
  _atom_site_fract_x
  _atom_site_fract_y
  _atom_site_fract_z
  _atom_site_occupancy
  N   N1        1.0  0.6542492409515719  0.42174713670236463  0.5673527889907568  1.0000
  C   C1        1.0  0.5941008721207521  0.4217472207106534  0.5673527070483795  1.0000
  C   C2        1.0  0.5192828349613007  0.4217473380419092  0.5673525697332424  1.0000
  C   C3        1.0  0.482818416407541  0.35724745026316795  0.6707737848878312  1.0000
  C   C4        1.0  0.4101476867687711  0.3571365406552238  0.6708603315131778  1.0000
  C   C5        1.0  0.3729506000127673  0.42174743068376785  0.5673523420284166  1.0000
  C   C6        1.0  0.4101291916036226  0.48635850763027366  0.4638445471195791  1.0000
  C   C7        1.0  0.4827998985694461  0.48624736248357925  0.463931216247069  1.0000
  C   C8        1.0  0.2957455095904841  0.42174735205600666  0.5673522465962937  1.0000
  C   C9        1.0  0.2585778185805144  0.3084734850563462  0.6092214181949163  1.0000
  C   C10       1.0  0.1859071126113336  0.30858041531891023  0.6091300877461614  1.0000
  C   C11       1.0  0.1494132226898751  0.42174722286371313  0.5673523075064457  1.0000
  C   C12       1.0  0.0745951855495302  0.42174710903713675  0.5673525561915254  1.0000
  N   N2        1.0  0.014446868699445998  0.42174706814282903  0.5673527646344965  1.0000
  C   C13       1.0  0.18586684361223368  0.5349141062533858  0.5255744743739099  1.0000
  C   C14       1.0  0.258537522215674  0.5350212166905088  0.5254829813210571  1.0000
  H   H1        1.0  0.5105404606595801  0.30731000277293696  0.7515221570164423  1.0000
  H   H2        1.0  0.3830613783301134  0.30799678838723343  0.7527243979927272  1.0000
  H   H3        1.0  0.383028969250453  0.5354982869677785  0.3819804297868652  1.0000
  H   H4        1.0  0.5105076257918322  0.5361847096181289  0.383183119942359  1.0000
  H   H5        1.0  0.2856869781140887  0.2193084023121865  0.6403875681678315  1.0000
  H   H6        1.0  0.158207958288211  0.2203141498925909  0.6413293877713271  1.0000
  H   H7        1.0  0.15813617449177636  0.6231803471381383  0.49337518889952325  1.0000
  H   H8        1.0  0.28561484148566574  0.6241863786257382  0.4943167865757694  1.0000
  C   C15       1.0  0.8344169251533287  0.040381976787136065  0.5673511651871406  1.0000
  C   C16       1.0  0.8385898673821681  0.02877416108175246  0.7038814188527629  1.0000
  C   C17       1.0  0.8406374141260612  0.905753765666254  0.7730677443525686  1.0000
  C   C18       1.0  0.838456968288006  0.7934863795897575  0.7038966110243923  1.0000
  C   C19       1.0  0.8342858823242594  0.8031022480370107  0.5673656078865603  1.0000
  C   C20       1.0  0.8322888184532514  0.9269886371753437  0.49985714737419573  1.0000
  C   C21       1.0  0.8450442567784876  0.894537912523217  0.917501347899895  1.0000
  C   C22       1.0  0.8052646685966913  0.8010525135309279  0.9915529172235169  1.0000
  C   C23       1.0  0.8094328970792052  0.7907315401554837  0.12747850938587324  1.0000
  C   C24       1.0  0.8532073780664291  0.8736167880296534  0.191159421070195  1.0000
  C   C25       1.0  0.8931527908310802  0.9665279370598178  0.1184810810986836  1.0000
  C   C26       1.0  0.8890864764733541  0.977198802698898  0.9825450726683183  1.0000
  S   S1        1.0  0.8586324321025087  0.8599130215427118  0.3655706566091381  1.0000
  C   C27       1.0  0.7887908928621812  0.9759682651718129  0.3851017229973466  1.0000
  H   H9        1.0  0.8328541881613586  0.3722585634501119  0.515326940915811  1.0000
  H   H10       1.0  0.8392989061602922  0.11558737707224576  0.7568460966424231  1.0000
  H   H11       1.0  0.8409782233367654  0.698454853860948  0.756665128641506  1.0000
  H   H12       1.0  0.8290700461547819  0.9351750851454647  0.3945298619161406  1.0000
  H   H13       1.0  0.8326618099059429  0.4793125589799875  0.5153460499483178  1.0000
  H   H14       1.0  0.7702785540062654  0.7371043316807767  0.9444331485230144  1.0000
  H   H15       1.0  0.7783575212720716  0.7186504753343069  0.18320668893268244  1.0000
  H   H16       1.0  0.9273991522347813  0.030531458895833197  0.16718997485474074  1.0000
  H   H17       1.0  0.9210390198380052  0.04891044027136049  0.9282301050260857  1.0000
  H   H18       1.0  0.8027056448769098  0.07231444767417372  0.33621820562039606  1.0000
  H   H19       1.0  0.7807346140856716  0.9866121658159936  0.49039361792556657  1.0000
  H   H20       1.0  0.739885360750402  0.9404499685466532  0.34297459489123305  1.0000
  C   C28       1.0  0.8343612503646003  0.4218685886329139  0.18594150280880695  1.0000
  C   C29       1.0  0.7621022885398588  0.44173033129449957  0.18345179530685374  1.0000
  C   C30       1.0  0.7254952840307151  0.45165420607042384  0.06504374715345129  1.0000
  C   C31       1.0  0.7620815866413858  0.44146547475975706  0.9481920866850762  1.0000
  C   C32       1.0  0.8343415355999352  0.42161561161443606  0.9487752174690551  1.0000
  C   C33       1.0  0.8700186648396255  0.41194151508558297  0.06811676130119837  1.0000
  C   C34       1.0  0.6491030286216505  0.47264633999237327  0.06341929718832717  1.0000
  C   C35       1.0  0.6184012919706448  0.5605764422540651  0.14433701378197927  1.0000
  C   C36       1.0  0.5464933484000944  0.5802892965727657  0.14268843965800038  1.0000
  C   C37       1.0  0.5043303117619107  0.5124314873779796  0.060338110262525335  1.0000
  C   C38       1.0  0.5343460359261312  0.4247377170097699  0.9795244055181396  1.0000
  C   C39       1.0  0.6062465767205633  0.40493049908599654  0.980936367625787  1.0000
  C   C40       1.0  0.43030100001691307  0.5327765856166118  0.05876156672115673  1.0000
  N   N3        1.0  0.37078642525859834  0.5491327956842196  0.057494167051488354  1.0000
  H   H21       1.0  0.9708449150571234  0.3835293453521085  0.39803339208441724  1.0000
  H   H22       1.0  0.7340321413406595  0.4477380949566867  0.27396753676398977  1.0000
  H   H23       1.0  0.7342723018205133  0.4508125920176316  0.8564883037188578  1.0000
  H   H24       1.0  0.9257100426655303  0.39663839883421104  0.06930074801896335  1.0000
  H   H25       1.0  0.970953343522259  0.3849191330776054  0.742489197391865  1.0000
  H   H26       1.0  0.6500947256714598  0.615344125906478  0.20764106661797643  1.0000
  H   H27       1.0  0.5238236260400657  0.6486788691128822  0.2053967803236718  1.0000
  H   H28       1.0  0.5021719754495476  0.3714201791558196  0.9156486514807654  1.0000
  H   H29       1.0  0.628234087718347  0.33541075104604423  0.918774785763941  1.0000
  Zn  Zn1       1.0  0.7581945051963267  0.42174364726643243  0.5673602712640426  1.0000
  Zn  Zn2       1.0  0.9105016247721582  0.4217399606887944  0.5673558823935814  1.0000
  C   C41       1.0  0.8343445984846998  0.4164898284061038  0.8045832378375763  1.0000
  C   C42       1.0  0.8343531943879227  0.4269954180699185  0.33013304328558113  1.0000
  C   C43       1.0  0.8343071899567951  0.6589336034944944  0.5621870373745879  1.0000
  C   C44       1.0  0.8343905512103827  0.18455008267272732  0.5725293129679045  1.0000
  O   O1        1.0  0.8921502498259508  0.4287089641409416  0.37852337581498974  1.0000
  O   O2        1.0  0.8921451228358904  0.4147725047191515  0.75618920034547  1.0000
  O   O3        1.0  0.8921141357732193  0.6105489187940771  0.5604525535262563  1.0000
  O   O4        1.0  0.8921811849174398  0.23293255938969581  0.574259925248964  1.0000
  O   O5        1.0  0.7765148930761001  0.6105510485682049  0.5604562284033257  1.0000
  O   O6        1.0  0.7765458798692708  0.41477619480475436  0.7561928059978702  1.0000
  O   O7        1.0  0.7765510069536946  0.4287126094888305  0.37852541986949806  1.0000
  O   O8        1.0  0.7765819420414204  0.23293619541657895  0.574262066683378  1.0000
