data_image0
_chemical_formula_structural       NC12NC2H8C12NCOCH13C12NCOH11Zn2C4O8
_chemical_formula_sum              "N4 C45 H32 O10 Zn2"
_cell_length_a       17.80743265337812
_cell_length_b       10.299155265289647
_cell_length_c       10.299148425239203
_cell_angle_alpha    85.52041506248938
_cell_angle_beta     91.51916060690998
_cell_angle_gamma    89.41399588169462

_space_group_name_H-M_alt    "P 1"
_space_group_IT_number       1

loop_
  _space_group_symop_operation_xyz
  'x, y, z'

loop_
  _atom_site_type_symbol
  _atom_site_label
  _atom_site_symmetry_multiplicity
  _atom_site_fract_x
  _atom_site_fract_y
  _atom_site_fract_z
  _atom_site_occupancy
  N   N1        1.0  0.7073093093377089  0.40732501746273764  0.6008641653630891  1.0000
  C   C1        1.0  0.6564926623598021  0.4369121455114502  0.5321536804064178  1.0000
  C   C2        1.0  0.5932717379898772  0.47371638376005465  0.4466864861534543  1.0000
  C   C3        1.0  0.6050043546502839  0.5277892429733726  0.32004521303208766  1.0000
  C   C4        1.0  0.5436907778775844  0.5630888652833983  0.2369745447285474  1.0000
  C   C5        1.0  0.4704903162834081  0.5445793633353408  0.2798851403665794  1.0000
  C   C6        1.0  0.4577808865879901  0.49038751479047016  0.4069946126823889  1.0000
  C   C7        1.0  0.5199517810628601  0.4550911528790984  0.49004876756378146  1.0000
  C   C8        1.0  0.38001206120848724  0.47076271601279407  0.4527659577980201  1.0000
  C   C9        1.0  0.3612025157055394  0.4979033798324295  0.5798089240405027  1.0000
  C   C10       1.0  0.28797209327307627  0.4794354392489051  0.6227600728705349  1.0000
  C   C11       1.0  0.2326081877401155  0.43357222709903365  0.5395063370390669  1.0000
  C   C12       1.0  0.15724108980549  0.41455088903102233  0.5838586384016864  1.0000
  N   N2        1.0  0.09665128025850421  0.3992590125254021  0.6195148375634221  1.0000
  C   C13       1.0  0.2507262028661053  0.40626243282991203  0.41300641479974143  1.0000
  C   C14       1.0  0.32390380213230624  0.4247452563680476  0.36979936213150566  1.0000
  H   H1        1.0  0.6614714610415968  0.5426271556296478  0.2856023341730627  1.0000
  H   H2        1.0  0.5528929129982355  0.6052260934736806  0.13917876697655052  1.0000
  H   H3        1.0  0.4238533764766216  0.5742419369593745  0.21428273335604353  1.0000
  H   H4        1.0  0.511448358718402  0.41156855170312  0.5877204850901856  1.0000
  H   H5        1.0  0.4028615280181881  0.535060971204695  0.6453747692297969  1.0000
  H   H6        1.0  0.27451033505703654  0.5012458835464781  0.7207676325637018  1.0000
  H   H7        1.0  0.2083499688358214  0.3703720699262063  0.3478531863706953  1.0000
  H   H8        1.0  0.3368374708574895  0.4013990274367947  0.27209558692027214  1.0000
  C   C15       1.0  0.9020677816858927  0.02189267734638567  0.610312386136411  1.0000
  C   C16       1.0  0.8892546502390899  0.031926059845072574  0.474764413541787  1.0000
  C   C17       1.0  0.8826853809748322  0.9198770791122239  0.4059175197246925  1.0000
  C   C18       1.0  0.8890750661826778  0.7966701654668472  0.4744480055914524  1.0000
  C   C19       1.0  0.901900024797124  0.7846812631079548  0.6100781407500828  1.0000
  C   C20       1.0  0.9083207696164215  0.8978117407644822  0.6771754953511548  1.0000
  C   C21       1.0  0.8691315624679861  0.9314648363878766  0.2625241764744555  1.0000
  C   C22       1.0  0.9072433622276256  0.0248271189416025  0.18292681716815284  1.0000
  C   C23       1.0  0.8944945076321318  0.03560095669860619  0.04798442275782633  1.0000
  C   C24       1.0  0.8438460911198071  0.9523359430245724  0.9898039344037284  1.0000
  C   C25       1.0  0.8048166409960319  0.8608089912351256  0.069289171545722  1.0000
  C   C26       1.0  0.8175928632092784  0.8497785858543775  0.20419553899009335  1.0000
  N   N3        1.0  0.8286800870092856  0.9629602914865727  0.8515072072449295  1.0000
  C   C27       1.0  0.8835493816737535  0.9988094563514551  0.7559113299502598  1.0000
  O   O1        1.0  0.9524650040004061  0.9999020428856669  0.7870728659571014  1.0000
  C   C28       1.0  0.8596032117678467  0.02582193793325427  0.61621510893147  1.0000
  H   H9        1.0  0.9070195799899934  0.34550911589636946  0.6624453568060173  1.0000
  H   H10       1.0  0.8833185017091622  0.1271201763033114  0.4226669613615335  1.0000
  H   H11       1.0  0.8850416027532073  0.7099810971043969  0.42162283196071026  1.0000
  H   H12       1.0  0.9182063347958412  0.8893578658945216  0.781726154908875  1.0000
  H   H13       1.0  0.9265563341904799  0.5547602657080499  0.8659636492252911  1.0000
  H   H14       1.0  0.9473534674062329  0.08902437326319501  0.22494320313446226  1.0000
  H   H15       1.0  0.9233240400386754  0.11048927763394722  0.9897810349193237  1.0000
  H   H16       1.0  0.7646345673776863  0.7973177139702478  0.0264022443223364  1.0000
  H   H17       1.0  0.7863492017487539  0.778556207847676  0.2631162858862841  1.0000
  H   H18       1.0  0.7757710939540489  0.9352034451131523  0.8178971945805582  1.0000
  H   H19       1.0  0.8053739853206251  0.08039331025834806  0.6091634318423895  1.0000
  H   H20       1.0  0.8526581117489407  0.932378916363196  0.5706553336589653  1.0000
  H   H21       1.0  0.9023790509927192  0.0850548663746824  0.5628652147048419  1.0000
  C   C29       1.0  0.9020403621216042  0.40344163449463766  0.2288017166416927  1.0000
  C   C30       1.0  0.978254683120645  0.4374242732181559  0.2284726314967931  1.0000
  C   C31       1.0  0.01677765352625049  0.4544424338595834  0.11116799077009087  1.0000
  C   C32       1.0  0.9780963850267416  0.43708737674990417  0.9932079944314656  1.0000
  C   C33       1.0  0.9019274092971342  0.4031322744148793  0.9915887871505902  1.0000
  C   C34       1.0  0.8643462611019209  0.3864995008462262  0.10991280906104417  1.0000
  C   C35       1.0  0.09735786920924605  0.49036866118346567  0.11191035327457288  1.0000
  C   C36       1.0  0.14785210135509375  0.4319473333556165  0.030748148853255053  1.0000
  C   C37       1.0  0.22364166246874162  0.46589321777567694  0.03159404486112094  1.0000
  C   C38       1.0  0.2507118541777893  0.5576122774657117  0.11437240884702149  1.0000
  C   C39       1.0  0.2001426594125859  0.6178815120399648  0.19396207816699684  1.0000
  C   C40       1.0  0.12431912408547374  0.5840430080043131  0.19321136430275843  1.0000
  N   N4        1.0  0.3287249936045442  0.5922057625037143  0.11156333233439386  1.0000
  C   C41       1.0  0.371929901126854  0.627986468287238  0.22235219775732484  1.0000
  O   O2        1.0  0.3465134001540804  0.6143494166124537  0.3354990481953266  1.0000
  H   H22       1.0  0.7583092802220731  0.338534656938855  0.43678167900870135  1.0000
  H   H23       1.0  0.008058482191920957  0.4490031585192158  0.31982310929657465  1.0000
  H   H24       1.0  0.007241473862077186  0.4518764120244547  0.9023666683477649  1.0000
  H   H25       1.0  0.8055961055806731  0.3603055278277396  0.10937901275535356  1.0000
  H   H26       1.0  0.8726329869863036  0.39003588417257107  0.6634929753955525  1.0000
  H   H27       1.0  0.1289275175697182  0.3588241183831564  0.967690560821568  1.0000
  H   H28       1.0  0.2616111701470243  0.419565255425731  0.9684714879569505  1.0000
  H   H29       1.0  0.21864044665687232  0.6931782686738208  0.25459197082595497  1.0000
  H   H30       1.0  0.08643767652121626  0.633035598808819  0.254444774790596  1.0000
  H   H31       1.0  0.35762090292717486  0.5826671408109654  0.025767108779203074  1.0000
  H   H32       1.0  0.4283307127919571  0.6638605559934232  0.20921910749032668  1.0000
  Zn  Zn1       1.0  0.8196649948887439  0.4049938720804094  0.6062538349642947  1.0000
  Zn  Zn2       1.0  0.984295592975286  0.40157955930894107  0.6141357649508594  1.0000
  C   C42       1.0  0.9019482284357448  0.3980166926848969  0.8474072362989538  1.0000
  C   C43       1.0  0.9020141568099639  0.40855834011856507  0.3729825766581032  1.0000
  C   C44       1.0  0.9019286130134684  0.640500135154012  0.6049467386031278  1.0000
  C   C45       1.0  0.9020337163883021  0.16607333835966953  0.6154431413866439  1.0000
  O   O3        1.0  0.9644818173085911  0.4089741731723546  0.424362143480838  1.0000
  O   O4        1.0  0.9644313828629397  0.3950084955905344  0.8020094983912571  1.0000
  O   O5        1.0  0.9644147007489376  0.5908169589251584  0.6062208903162059  1.0000
  O   O6        1.0  0.9644984432576973  0.21316572033326064  0.6201506514825086  1.0000
  O   O7        1.0  0.83946208842599  0.5934077122226438  0.6002389457360979  1.0000
  O   O8        1.0  0.8394787702035877  0.39760080934435416  0.7960274840818866  1.0000
  O   O9        1.0  0.8395292049403666  0.4115664422988663  0.41837856768619375  1.0000
  O   O10       1.0  0.8395458308740259  0.21575798013079672  0.6141671730646971  1.0000
