data_image0
_chemical_formula_structural       NC10NC3NH7C12NH11C12BrH9Zn2C4O8
_chemical_formula_sum              "N4 C41 H27 Br1 Zn2 O8"
_cell_length_a       19.210446455230148
_cell_length_b       10.299770795358612
_cell_length_c       10.299148005577397
_cell_angle_alpha    85.54782545814984
_cell_angle_beta     89.9640022898858
_cell_angle_gamma    89.96457025778629

_space_group_name_H-M_alt    "P 1"
_space_group_IT_number       1

loop_
  _space_group_symop_operation_xyz
  'x, y, z'

loop_
  _atom_site_type_symbol
  _atom_site_label
  _atom_site_symmetry_multiplicity
  _atom_site_fract_x
  _atom_site_fract_y
  _atom_site_fract_z
  _atom_site_occupancy
  N   N1        1.0  0.6560562806878244  0.42039105865970083  0.5671933929147945  1.0000
  C   C1        1.0  0.5958278597919233  0.42259849843524333  0.5674244598109366  1.0000
  C   C2        1.0  0.5210235795250997  0.42533531956676685  0.5677107227765976  1.0000
  C   C3        1.0  0.4854187199008114  0.5415613657633063  0.5828183603064425  1.0000
  C   C4        1.0  0.4127532645321681  0.5417129087754231  0.582765754209039  1.0000
  C   C5        1.0  0.3758568627837295  0.42604426011511487  0.5677971803742901  1.0000
  C   C6        1.0  0.2985346593828132  0.4246878322189058  0.5676466379652154  1.0000
  C   C7        1.0  0.2608032073796303  0.5282668129587524  0.5042776456610734  1.0000
  C   C8        1.0  0.1880247647283856  0.526864624019556  0.5041686248067634  1.0000
  C   C9        1.0  0.1519763952828235  0.42214096785659705  0.567377586383323  1.0000
  C   C10       1.0  0.0770468023482213  0.4208389308283067  0.5672408056268969  1.0000
  N   N2        1.0  0.0168088914233453  0.41979204884393484  0.5671308687780583  1.0000
  C   C11       1.0  0.1889842055481799  0.31868768147922655  0.6307215638450652  1.0000
  C   C12       1.0  0.2617644637461686  0.3198155990615825  0.63088084427449  1.0000
  C   C13       1.0  0.4140716642068866  0.3116383915391603  0.5529776447482031  1.0000
  N   N3        1.0  0.48484176872591134  0.3140832968360374  0.5531431131857498  1.0000
  H   H1        1.0  0.5135240649802979  0.6309914559054342  0.5948636088827672  1.0000
  H   H2        1.0  0.3854885222546824  0.6317246268200019  0.5962057654196726  1.0000
  H   H3        1.0  0.2875483355993443  0.6095270476289081  0.453281307804803  1.0000
  H   H4        1.0  0.1598958356944207  0.6072969514990674  0.45450277546815476  1.0000
  H   H5        1.0  0.1615997490688824  0.23729199019511427  0.6802879641700925  1.0000
  H   H6        1.0  0.2892482061853816  0.2395022211166966  0.6819844803567381  1.0000
  H   H7        1.0  0.3878021547898264  0.2207637753142564  0.539491420386532  1.0000
  C   C14       1.0  0.8363728224631932  0.0387231249864699  0.5672017372687357  1.0000
  C   C15       1.0  0.8162017767255573  0.04795137004051342  0.4357882902905936  1.0000
  C   C16       1.0  0.8060448052798261  0.935491136040774  0.36916495266583693  1.0000
  C   C17       1.0  0.8163292033021482  0.8126695552106269  0.43571971194833736  1.0000
  C   C18       1.0  0.8364989892065496  0.8014500203534123  0.567133709719571  1.0000
  C   C19       1.0  0.8464081862251003  0.9150318661909467  0.6321386964316031  1.0000
  C   C20       1.0  0.7847053143821434  0.9463074883579463  0.2301371530875289  1.0000
  C   C21       1.0  0.7340302445233199  0.03757622337026412  0.1849565265047266  1.0000
  C   C22       1.0  0.71397536325826  0.04762729947093702  0.05410249543971912  1.0000
  C   C23       1.0  0.7442159369308552  0.9668300233186041  0.9663489143966557  1.0000
  C   C24       1.0  0.7947241901711154  0.8757597789608886  0.010638966761811641  1.0000
  C   C25       1.0  0.8148348412736415  0.8654525889348654  0.14146301365418146  1.0000
  N   N4        1.0  0.7236727317055042  0.9772424076982873  0.8325103139804706  1.0000
  H   H8        1.0  0.8440293162163742  0.3626590413043931  0.6172934913895163  1.0000
  H   H9        1.0  0.8092654999612201  0.14287580955871304  0.3844346952623299  1.0000
  H   H10       1.0  0.8076453666211533  0.7256625099332277  0.3853065697863005  1.0000
  H   H11       1.0  0.8619687051752113  0.9071446578383318  0.7335183509975938  1.0000
  H   H12       1.0  0.8442148803260534  0.46972236860539296  0.6171938305536506  1.0000
  H   H13       1.0  0.7092519119285232  0.10001863648812215  0.251167345019339  1.0000
  H   H14       1.0  0.6747382873558065  0.11817849349062692  0.02119608781086124  1.0000
  H   H15       1.0  0.818641824747955  0.8129733423529536  0.9437389900140816  1.0000
  H   H16       1.0  0.8546059125011313  0.7954109934403643  0.17292971450967953  1.0000
  H   H17       1.0  0.7459194101243569  0.9174199691999984  0.7663635492006344  1.0000
  H   H18       1.0  0.6860652028007777  0.044851028621462286  0.7985804051370882  1.0000
  C   C26       1.0  0.8365307969670842  0.42013845118190307  0.18577953194345675  1.0000
  C   C27       1.0  0.771065064655336  0.4810269545128698  0.18034842657307526  1.0000
  C   C28       1.0  0.7377745165358598  0.5118456247223768  0.060456495918207453  1.0000
  C   C29       1.0  0.7708327302980824  0.4809545352756912  0.9450714384118566  1.0000
  C   C30       1.0  0.8363410077414396  0.42003469450109066  0.9485559275286919  1.0000
  C   C31       1.0  0.8687865310595116  0.38999980135184464  0.0693337616444325  1.0000
  C   C32       1.0  0.6685201705520046  0.5762602439573976  0.055755957875228024  1.0000
  C   C33       1.0  0.653915212619126  0.6776022395258023  0.1358274716439034  1.0000
  C   C34       1.0  0.5887015568974902  0.7381194672817339  0.13120851747474238  1.0000
  C   C35       1.0  0.5373516578794036  0.6982610249030023  0.046856328657737256  1.0000
  C   C36       1.0  0.5512576033415696  0.5977070553643791  0.9669324005595197  1.0000
  C   C37       1.0  0.6164120416731131  0.5369679605337778  0.9711588463095517  1.0000
  Br  Br1       1.0  0.4483108016531582  0.7810795087133588  0.040814153606289816  1.0000
  H   H19       1.0  0.8617259617522594  0.39677077042776143  0.5153400501953453  1.0000
  H   H20       1.0  0.7453824522110001  0.5030158311943911  0.2696904323937488  1.0000
  H   H21       1.0  0.7458378561239737  0.5060909904334188  0.8522570587587563  1.0000
  H   H22       1.0  0.9192828926082137  0.3430389158218281  0.07280686641190703  1.0000
  H   H23       1.0  0.9601789333445071  0.30578660512899947  0.7477837218435677  1.0000
  H   H24       1.0  0.6931977860465822  0.7111541204899736  0.20072524798444857  1.0000
  H   H25       1.0  0.5782026631841137  0.8162032183461827  0.19300788304930516  1.0000
  H   H26       1.0  0.5115636048143617  0.566307843336322  0.9017275027204379  1.0000
  H   H27       1.0  0.6257460365928472  0.45819685248059727  0.9095608380755729  1.0000
  Zn  Zn1       1.0  0.7601616881823379  0.42021473229687856  0.5671828495550044  1.0000
  Zn  Zn2       1.0  0.9127034635919622  0.4199577912256214  0.5671520493965307  1.0000
  C   C38       1.0  0.8363744819371112  0.41488063011184795  0.8043753455489471  1.0000
  C   C39       1.0  0.8364923358279818  0.4252935292050437  0.32995968039310775  1.0000
  C   C40       1.0  0.836472849768444  0.6572791045902995  0.5619711741973576  1.0000
  C   C41       1.0  0.8363939156694675  0.18289349450423265  0.5723639211364069  1.0000
  O   O1        1.0  0.8943682357709234  0.4269204469500598  0.3783361673200787  1.0000
  O   O2        1.0  0.8942742598846025  0.4130577203685495  0.7559751082367268  1.0000
  O   O3        1.0  0.8943529124476141  0.6087975551877509  0.560232024857805  1.0000
  O   O4        1.0  0.8942895311815015  0.23118062152199226  0.5740791533290865  1.0000
  O   O5        1.0  0.7785755685377792  0.608991902089604  0.5602557456261277  1.0000
  O   O6        1.0  0.7784969162469293  0.4132536275818579  0.7559987596170195  1.0000
  O   O7        1.0  0.7785908925605537  0.4271163091197996  0.37835825722468797  1.0000
  O   O8        1.0  0.7785121879425225  0.23137647438969444  0.5741013406072897  1.0000
