data_image0
_chemical_formula_structural       NC12NC2H8C12NH11C12IH9Zn2C4O8
_chemical_formula_sum              "N3 C42 H28 I1 Zn2 O8"
_cell_length_a       17.80743265337812
_cell_length_b       10.299770795358612
_cell_length_c       10.29977335064465
_cell_angle_alpha    85.53972113204546
_cell_angle_beta     91.54321816322954
_cell_angle_gamma    89.45311437677636

_space_group_name_H-M_alt    "P 1"
_space_group_IT_number       1

loop_
  _space_group_symop_operation_xyz
  'x, y, z'

loop_
  _atom_site_type_symbol
  _atom_site_label
  _atom_site_symmetry_multiplicity
  _atom_site_fract_x
  _atom_site_fract_y
  _atom_site_fract_z
  _atom_site_occupancy
  N   N1        1.0  0.7075314419466614  0.40703096838614106  0.6012658511638145  1.0000
  C   C1        1.0  0.6567099520506652  0.4366069844395686  0.5325661395503507  1.0000
  C   C2        1.0  0.5934830043280256  0.47339740063211844  0.4471123463370523  1.0000
  C   C3        1.0  0.6052065117786124  0.5274498178724238  0.3204908256119936  1.0000
  C   C4        1.0  0.5438868922040773  0.5627360455008583  0.23743307552459325  1.0000
  C   C5        1.0  0.47068944234128657  0.5442334858299529  0.2803369358309782  1.0000
  C   C6        1.0  0.45798918778137726  0.4900621480185927  0.4074266010546683  1.0000
  C   C7        1.0  0.5201661223597197  0.45477917844247795  0.49046783943694505  1.0000
  C   C8        1.0  0.3802236222180487  0.47044474434850203  0.45319078869455853  1.0000
  C   C9        1.0  0.36145564831919397  0.49759906137286714  0.580232374848775  1.0000
  C   C10       1.0  0.2882282639985439  0.47913806465431685  0.6231767953584899  1.0000
  C   C11       1.0  0.2328259263963915  0.4332682697512542  0.5399176039623133  1.0000
  C   C12       1.0  0.1574619852357169  0.41425409793924306  0.5842629686270158  1.0000
  N   N2        1.0  0.096874713506172  0.3989679826129193  0.6199135911542009  1.0000
  C   C13       1.0  0.2509024339807793  0.405944904650402  0.41341899132281723  1.0000
  C   C14       1.0  0.3240769391151618  0.42442075096460785  0.37021868550956705  1.0000
  H   H1        1.0  0.6616711931689807  0.542282159801525  0.2860533486630674  1.0000
  H   H2        1.0  0.5530821446736559  0.6048574557916502  0.13965263734023603  1.0000
  H   H3        1.0  0.42404844211008413  0.573885331043934  0.21474513508567705  1.0000
  H   H4        1.0  0.5116690005351374  0.4112724962666501  0.5881239109385774  1.0000
  H   H5        1.0  0.40314534132471225  0.5347617494990364  0.645802751732814  1.0000
  H   H6        1.0  0.2747989240795223  0.5009589682511189  0.7211834880648478  1.0000
  H   H7        1.0  0.20849612416192412  0.37004939004356463  0.34826149379634197  1.0000
  H   H8        1.0  0.3369776510461014  0.40106423017856074  0.27251541140574487  1.0000
  C   C15       1.0  0.9021385993988914  0.02163227172347426  0.6106262057435805  1.0000
  C   C16       1.0  0.880321318227041  0.03129746261205457  0.4781708632365247  1.0000
  C   C17       1.0  0.8693352343963988  0.9190573165547546  0.41102290194938873  1.0000
  C   C18       1.0  0.8804588188808724  0.7960130215486343  0.47810889602315765  1.0000
  C   C19       1.0  0.9022747405736193  0.7843565668407468  0.6105647239649308  1.0000
  C   C20       1.0  0.9129928266777008  0.8977236926468  0.6760815361740802  1.0000
  C   C21       1.0  0.8462541461103886  0.9303359258989038  0.270892853179572  1.0000
  C   C22       1.0  0.791546556544702  0.022659872091208566  0.22308546006800434  1.0000
  C   C23       1.0  0.7698548489383567  0.03314540711647673  0.09119554012494291  1.0000
  C   C24       1.0  0.8024602765781461  0.9517355433081832  0.005013215722534881  1.0000
  C   C25       1.0  0.8569875060978417  0.8596136720821599  0.051921411666733475  1.0000
  C   C26       1.0  0.8787393925986221  0.8488708737230624  0.18378424087955758  1.0000
  N   N3        1.0  0.7802404623735801  0.9625929353353119  0.8701134966320154  1.0000
  H   H9        1.0  0.9104200447192267  0.3454023014936134  0.6611134341122367  1.0000
  H   H10       1.0  0.8728167119342913  0.1263730755919874  0.4264591885286162  1.0000
  H   H11       1.0  0.8710684942412952  0.7091931665630927  0.4272470075092383  1.0000
  H   H12       1.0  0.9298232998073531  0.8894994113034755  0.7782649384975961  1.0000
  H   H13       1.0  0.9106202792119037  0.4524618043286712  0.6610234006824256  1.0000
  H   H14       1.0  0.7648284619539008  0.08560507267160422  0.2880090168049094  1.0000
  H   H15       1.0  0.7274961956491677  0.10451332824456028  0.05625519249513533  1.0000
  H   H16       1.0  0.8827764401038886  0.7963423587284633  0.9862640794646644  1.0000
  H   H17       1.0  0.9216738401863641  0.7780017175089564  0.21731262379906213  1.0000
  H   H18       1.0  0.8042262850114181  0.9023200799186778  0.8051226888092669  1.0000
  H   H19       1.0  0.7396401315489728  0.030984720622164286  0.8342341964844304  1.0000
  C   C27       1.0  0.9021708754187842  0.4031012335861761  0.22922456916497924  1.0000
  C   C28       1.0  0.9702845334722727  0.47069411301897257  0.2261435286028568  1.0000
  C   C29       1.0  0.004834361154149702  0.5048353790043123  0.10745404388425173  1.0000
  C   C30       1.0  0.9703567601986164  0.470478460921294  0.9908773936326982  1.0000
  C   C31       1.0  0.9022424733339816  0.4028875994552923  0.9919664456972805  1.0000
  C   C32       1.0  0.8685312336228729  0.3695764037253313  0.11162645815185868  1.0000
  C   C33       1.0  0.07689263359617016  0.5763406917077438  0.10524856388960324  1.0000
  C   C34       1.0  0.08872890497841945  0.6791145972692965  0.18561690850491064  1.0000
  C   C35       1.0  0.15658944850747458  0.7463014492074287  0.18334116919584909  1.0000
  C   C36       1.0  0.21336803972301355  0.7117660299147799  0.10107421846488784  1.0000
  C   C37       1.0  0.2022566048445653  0.6098633103999043  0.020883251723951224  1.0000
  C   C38       1.0  0.1344722336004156  0.5424489092528575  0.022756717812133953  1.0000
  I   I1        1.0  0.31567726787489847  0.8132860214760262  0.09794686988917123  1.0000
  H   H20       1.0  0.876194654701532  0.3774107340934607  0.5578460234883877  1.0000
  H   H21       1.0  0.9971534237039821  0.4953846482433666  0.3164050384841923  1.0000
  H   H22       1.0  0.9962345778318082  0.4981302432267134  0.8990015060738599  1.0000
  H   H23       1.0  0.8159842258696571  0.31743271920833305  0.1132349609371388  1.0000
  H   H24       1.0  0.8762995061773329  0.3770964214115553  0.6649312335338973  1.0000
  H   H25       1.0  0.04517141738201125  0.7085945265632432  0.24891886544511066  1.0000
  H   H26       1.0  0.16491797458935564  0.8254058600849232  0.2453188680155418  1.0000
  H   H27       1.0  0.2461834591998988  0.5826119585847054  0.9573076457687844  1.0000
  H   H28       1.0  0.12744914607729996  0.4627765776173616  0.9610025014750727  1.0000
  Zn  Zn1       1.0  0.819887503263705  0.40470069550112786  0.6066546733627001  1.0000
  Zn  Zn2       1.0  0.9845186487985997  0.40128765912117026  0.6145353629152939  1.0000
  C   C39       1.0  0.9022263365212725  0.397754358713009  0.8477922048387001  1.0000
  C   C40       1.0  0.90218161361248  0.4082355972152705  0.37339804483131744  1.0000
  C   C41       1.0  0.9022446587273908  0.6401869621002776  0.6054010002381016  1.0000
  C   C42       1.0  0.9021632349572443  0.16580143467794262  0.6157893161074552  1.0000
  O   O1        1.0  0.9646618781851125  0.4086578413182089  0.42477466137690145  1.0000
  O   O2        1.0  0.9646973018942495  0.3947407193567509  0.8023964755477024  1.0000
  O   O3        1.0  0.9647112552188756  0.5905081296527812  0.6066638224495788  1.0000
  O   O4        1.0  0.9646478686755465  0.21289044150426917  0.620507214409951  1.0000
  O   O5        1.0  0.8397582272062275  0.5930979142841462  0.6006828191719189  1.0000
  O   O6        1.0  0.8397442741501884  0.39733206430429235  0.796415402898379  1.0000
  O   O7        1.0  0.8397088503363778  0.41124914144629665  0.4187920273247199  1.0000
  O   O8        1.0  0.839694840831221  0.215481732316384  0.6145246777267201  1.0000
