data_image0
_chemical_formula_structural       NC10NC3NCH9C16H10C12NCOH11Zn2C4O8
_chemical_formula_sum              "N4 C47 H30 O9 Zn2"
_cell_length_a       19.437513618241372
_cell_length_b       10.29914801576943
_cell_length_c       10.299148425239203
_cell_angle_alpha    85.5134079146002
_cell_angle_beta     90.33234682354211
_cell_angle_gamma    89.53623586623313

_space_group_name_H-M_alt    "P 1"
_space_group_IT_number       1

loop_
  _space_group_symop_operation_xyz
  'x, y, z'

loop_
  _atom_site_type_symbol
  _atom_site_label
  _atom_site_symmetry_multiplicity
  _atom_site_fract_x
  _atom_site_fract_y
  _atom_site_fract_z
  _atom_site_occupancy
  N   N1        1.0  0.6482193276468986  0.411184197244302  0.5750650212281108  1.0000
  C   C1        1.0  0.5892884790356413  0.4281969175728222  0.5720832168212582  1.0000
  C   C2        1.0  0.5158511121129141  0.44945274247320177  0.5683819703256718  1.0000
  C   C3        1.0  0.47407669988651846  0.34826073383317446  0.5567550666809713  1.0000
  C   C4        1.0  0.3981887282308781  0.3583296799254987  0.5495299060901353  1.0000
  C   C5        1.0  0.3586187267257391  0.439152996057518  0.6152505283835701  1.0000
  C   C6        1.0  0.2824361779055935  0.43054811267974435  0.606808654423791  1.0000
  C   C7        1.0  0.2492841832335315  0.30919216820245143  0.6114921804482587  1.0000
  C   C8        1.0  0.1775493401094951  0.30282335373496894  0.604325706947626  1.0000
  C   C9        1.0  0.1379957707679894  0.4173375901577969  0.5928381198438182  1.0000
  C   C10       1.0  0.0641464259284937  0.4106306508935913  0.5855036540685259  1.0000
  N   N2        1.0  0.0047766507413517  0.40523886161517186  0.5796072018295424  1.0000
  C   C11       1.0  0.1704310611584032  0.5383825822033388  0.5889000244683837  1.0000
  C   C12       1.0  0.242150336536427  0.5450053769892822  0.5961284404293448  1.0000
  C   C13       1.0  0.3873065745385306  0.531401333399308  0.7051465365545713  1.0000
  N   N3        1.0  0.44430188754250305  0.5946284422504367  0.6847201588558349  1.0000
  C   C14       1.0  0.488151184492654  0.5854216033082014  0.5716076646298576  1.0000
  H   H1        1.0  0.49644903954296515  0.25320337760227796  0.5446641977310385  1.0000
  H   H2        1.0  0.37347029463100617  0.2888407164849549  0.4912304698715604  1.0000
  H   H3        1.0  0.2787215336719428  0.2192683353554541  0.6225433055920793  1.0000
  H   H4        1.0  0.1529428313461239  0.20858826469405956  0.6082440693074163  1.0000
  H   H5        1.0  0.14030814072888353  0.6276503319038642  0.5801614249347202  1.0000
  H   H6        1.0  0.2662753801176554  0.6396533035571792  0.5921944817450868  1.0000
  H   H7        1.0  0.3572987982910201  0.5517472835498511  0.7895124448064144  1.0000
  H   H8        1.0  0.5309127021493796  0.655736407621162  0.5773484005383065  1.0000
  H   H9        1.0  0.4584956820427414  0.6135766308952983  0.4809464812443067  1.0000
  C   C15       1.0  0.8264522723598936  0.02681082163580517  0.5775011086232897  1.0000
  C   C16       1.0  0.810761528559297  0.03672708079560505  0.44381789172250596  1.0000
  C   C17       1.0  0.8028565689458551  0.924624299578742  0.37587369206192567  1.0000
  C   C18       1.0  0.8108534249270618  0.8014739025748615  0.44341444374978267  1.0000
  C   C19       1.0  0.8265502898197373  0.789602063757903  0.5771824974599489  1.0000
  C   C20       1.0  0.8342542945791495  0.9027886364476087  0.6434021907496021  1.0000
  C   C21       1.0  0.786257824137827  0.9361601086918993  0.23445297298151901  1.0000
  C   C22       1.0  0.8188201745868064  0.854667688249246  0.14964412559126417  1.0000
  C   C23       1.0  0.8031739722133123  0.8656503713598332  0.016544089107283666  1.0000
  C   C24       1.0  0.7548048214380603  0.958029216439692  0.966446472492871  1.0000
  C   C25       1.0  0.7221171945881206  0.03950457815145625  0.04996969314099853  1.0000
  C   C26       1.0  0.7377143407175974  0.02876396996860131  0.1830900527386481  1.0000
  C   C27       1.0  0.7387224325900164  0.9692117763938216  0.8294078584446871  1.0000
  C   C28       1.0  0.7252536052328903  0.9785770627811572  0.7146400009127971  1.0000
  C   C29       1.0  0.7094817674777624  0.9895436873597533  0.5802480103279484  1.0000
  C   C30       1.0  0.6960152006805654  0.9989075511357919  0.4654986906537082  1.0000
  H   H10       1.0  0.8324522201588869  0.35047178752851726  0.6289350444443798  1.0000
  H   H11       1.0  0.8055784181703869  0.131890536803416  0.3918381455551714  1.0000
  H   H12       1.0  0.803894421230515  0.7147181804617149  0.39190669050685045  1.0000
  H   H13       1.0  0.8463549555852283  0.8944241137009732  0.7465163174782408  1.0000
  H   H14       1.0  0.8557512142102653  0.5598950570705167  0.8298355086898401  1.0000
  H   H15       1.0  0.8570341973132706  0.7836108259298119  0.18598314284068906  1.0000
  H   H16       1.0  0.8289227132720575  0.8023249397442991  0.9526927553899855  1.0000
  H   H17       1.0  0.6844505841647757  0.1111172373636038  0.012267660788360057  1.0000
  H   H18       1.0  0.7111636859567306  0.09171330150498602  0.24612832722061628  1.0000
  H   H19       1.0  0.6841904709285771  0.007129813622054559  0.36473911292912353  1.0000
  C   C31       1.0  0.8265530525473195  0.40836143875203645  0.1959461705614154  1.0000
  C   C32       1.0  0.8963614607741914  0.442759355659613  0.1928511217945752  1.0000
  C   C33       1.0  0.9316464731136582  0.45998742031486883  0.07414842752906003  1.0000
  C   C34       1.0  0.8962163799712629  0.44242159539053283  0.9575922612623335  1.0000
  C   C35       1.0  0.8264495080994348  0.408051461984402  0.9587373710686729  1.0000
  C   C36       1.0  0.792027145187692  0.3912139160585897  0.07842527008598155  1.0000
  C   C37       1.0  0.005453815881038215  0.4963527147863058  0.07196638010128309  1.0000
  C   C38       1.0  0.05167723760186793  0.4382061371855559  0.9889812445441968  1.0000
  C   C39       1.0  0.12109663792672354  0.47256498607295594  0.9870765741724075  1.0000
  C   C40       1.0  0.14591782478087345  0.5644319240861047  0.06886306051584778  1.0000
  C   C41       1.0  0.09962636188658047  0.62442600889669  0.15027815833080926  1.0000
  C   C42       1.0  0.030175883353159128  0.5901743558553307  0.1522792293001718  1.0000
  N   N4        1.0  0.21737379531677714  0.5994504878408355  0.06322276050011744  1.0000
  C   C43       1.0  0.25695272372681854  0.6354666877479527  0.17244167781377429  1.0000
  O   O1        1.0  0.23367175241688165  0.6216911351848895  0.2865112150828708  1.0000
  H   H20       1.0  0.6949024844696887  0.34267129238779126  0.40914250631456506  1.0000
  H   H21       1.0  0.9236596475370858  0.45450062841414685  0.28312016553263053  1.0000
  H   H22       1.0  0.9229123780384564  0.45736944553984227  0.865692991318388  1.0000
  H   H23       1.0  0.7382150171840588  0.3646998239737078  0.08002362920029027  1.0000
  H   H24       1.0  0.799617308682876  0.3947954515182861  0.6317047140784009  1.0000
  H   H25       1.0  0.03432194702062552  0.36497949880754676  0.926618139322259  1.0000
  H   H26       1.0  0.1558538873394142  0.42644361279897103  0.9225835352731551  1.0000
  H   H27       1.0  0.11659150867459678  0.6998238746075884  0.2102287770266733  1.0000
  H   H28       1.0  0.9955001587193082  0.6389608498572021  0.21487961447241388  1.0000
  H   H29       1.0  0.24383356754604435  0.5900692084528414  0.976380509036971  1.0000
  H   H30       1.0  0.30861651283843283  0.6716481442374171  0.15726042171856003  1.0000
  Zn  Zn1       1.0  0.7511140730707919  0.4094650092504173  0.5763833073709743  1.0000
  Zn  Zn2       1.0  0.9018819087076388  0.40694737483687593  0.5782995907636188  1.0000
  C   C44       1.0  0.826466886426869  0.40293596939194587  0.8145556726008705  1.0000
  C   C45       1.0  0.8265307419249291  0.41347802590686333  0.3401273732503023  1.0000
  C   C46       1.0  0.8265289293616787  0.6454204548839082  0.5720671205273886  1.0000
  C   C47       1.0  0.826468647333669  0.17099198081356093  0.5826159945652034  1.0000
  O   O2        1.0  0.8837388614390969  0.41423410394501436  0.3892431239118872  1.0000
  O   O3        1.0  0.8836880655556535  0.40026808543599346  0.766893963231601  1.0000
  O   O4        1.0  0.8837373945330868  0.5960773864364637  0.5710827314179918  1.0000
  O   O5        1.0  0.8836894810292263  0.21842481313420992  0.5850542576862316  1.0000
  O   O6        1.0  0.7693064492995428  0.5979875718136451  0.5696286397875965  1.0000
  O   O7        1.0  0.7692571205288985  0.4021798312750764  0.7654398016990211  1.0000
  O   O8        1.0  0.7693079166642323  0.416145805158163  0.3877874008887767  1.0000
  O   O9        1.0  0.7692585362371375  0.2203365050182544  0.5835986320416209  1.0000
