data_image0
_chemical_formula_structural       NC10NC3NCH9C12NH11C13NH13Zn2C4O8
_chemical_formula_sum              "N5 C43 H33 Zn2 O8"
_cell_length_a       19.437513618241372
_cell_length_b       10.299770795358612
_cell_length_c       10.299780419254978
_cell_angle_alpha    85.56832973562953
_cell_angle_beta     90.33405371402336
_cell_angle_gamma    89.53989505547142

_space_group_name_H-M_alt    "P 1"
_space_group_IT_number       1

loop_
  _space_group_symop_operation_xyz
  'x, y, z'

loop_
  _atom_site_type_symbol
  _atom_site_label
  _atom_site_symmetry_multiplicity
  _atom_site_fract_x
  _atom_site_fract_y
  _atom_site_fract_z
  _atom_site_occupancy
  N   N1        1.0  0.6482502265571086  0.41016296119011986  0.575688651360851  1.0000
  C   C1        1.0  0.5893199342880822  0.42717232687365336  0.572712801201994  1.0000
  C   C2        1.0  0.5158832627775884  0.4484239757500288  0.5690189913193022  1.0000
  C   C3        1.0  0.4741051611912408  0.34723339501224393  0.5573599064943264  1.0000
  C   C4        1.0  0.39821744809787785  0.35729691058748814  0.5501388714688236  1.0000
  C   C5        1.0  0.3586511241084442  0.43815469172824306  0.6158789800915025  1.0000
  C   C6        1.0  0.2824681650498633  0.4295452273991285  0.6074351906936499  1.0000
  C   C7        1.0  0.24931198706950014  0.3082027476969389  0.6120780708722613  1.0000
  C   C8        1.0  0.1775768284203793  0.30182996330508916  0.6049102808476086  1.0000
  C   C9        1.0  0.1380271150174235  0.4163270346365766  0.5934618267636704  1.0000
  C   C10       1.0  0.0641774406528607  0.40961604874074653  0.5861259511607801  1.0000
  N   N2        1.0  0.0048074005541276  0.4042210062085314  0.5802283655649889  1.0000
  C   C11       1.0  0.1704665874945324  0.5373590591450905  0.5895641922866612  1.0000
  C   C12       1.0  0.2421861880817308  0.5439858409407017  0.5967940019336035  1.0000
  C   C13       1.0  0.38734336203576614  0.5304517574142817  0.7057955892745467  1.0000
  N   N3        1.0  0.44434062165819554  0.5936605031340443  0.6853923697751414  1.0000
  C   C14       1.0  0.4881881319144029  0.5843830963824048  0.5722892923193159  1.0000
  H   H1        1.0  0.4964740200155612  0.2521766426760286  0.5452389360792196  1.0000
  H   H2        1.0  0.3734958294562765  0.2877771827338944  0.49182287938381  1.0000
  H   H3        1.0  0.27874633587209174  0.2182936749556208  0.6230982426126435  1.0000
  H   H4        1.0  0.1529670748878016  0.20760550752280693  0.6087970499576576  1.0000
  H   H5        1.0  0.1403466757022901  0.6266135645820736  0.5808560744391271  1.0000
  H   H6        1.0  0.2663144906676064  0.6386230886567801  0.5928917747340336  1.0000
  H   H7        1.0  0.3573373897833869  0.5508491738380472  0.79015893115659  1.0000
  H   H8        1.0  0.5309521828985108  0.6546954331513108  0.5780526474239573  1.0000
  H   H9        1.0  0.45853244008510796  0.6124784855202101  0.4816474070959429  1.0000
  C   C15       1.0  0.8264697608383657  0.02582441059882079  0.5779973661350928  1.0000
  C   C16       1.0  0.8065171186499325  0.03530449706280381  0.4463381162670448  1.0000
  C   C17       1.0  0.7964700670577274  0.9229709147987473  0.3795910461023573  1.0000
  C   C18       1.0  0.8066430548646364  0.8000207704738393  0.4462711695727808  1.0000
  C   C19       1.0  0.8265944519389918  0.7885494130623362  0.5779309541134032  1.0000
  C   C20       1.0  0.8363964113945074  0.9020076992327828  0.6430566543649718  1.0000
  C   C21       1.0  0.7753616308946731  0.9340536961969956  0.24030320522093418  1.0000
  C   C22       1.0  0.7252703296922423  0.026056839355600436  0.19448005939746893  1.0000
  C   C23       1.0  0.7054325698970196  0.03635823606253452  0.06338165832899678  1.0000
  C   C24       1.0  0.7353106550724938  0.9550817522495284  0.9760215660905303  1.0000
  C   C25       1.0  0.7852369700327022  0.8632792525413555  0.020952087668473007  1.0000
  C   C26       1.0  0.805129847393535  0.8527209052144704  0.15202121867285978  1.0000
  N   N4        1.0  0.7149898829139593  0.9657506243625119  0.8419326277244634  1.0000
  H   H10       1.0  0.834043379173974  0.34966480832441627  0.6281824033047536  1.0000
  H   H11       1.0  0.7996551861325422  0.13031333783309584  0.39490053697573546  1.0000
  H   H12       1.0  0.7980540016200974  0.7131243447732912  0.39575166632353587  1.0000
  H   H13       1.0  0.8517884480695741  0.8939262145245596  0.744625927964174  1.0000
  H   H14       1.0  0.8342267729793584  0.45672535171239975  0.628085118527427  1.0000
  H   H15       1.0  0.7007883099309129  0.08888987090397005  0.26036896281475275  1.0000
  H   H16       1.0  0.6666477544122449  0.10747881431313  0.02997757391225142  1.0000
  H   H17       1.0  0.8088682165078938  0.8001146990830236  0.954363106196376  1.0000
  H   H18       1.0  0.8444422708193685  0.7821015027407059  0.1839925349989131  1.0000
  H   H19       1.0  0.7369696984997505  0.9055750859473719  0.7760754750856469  1.0000
  H   H20       1.0  0.6778155374563546  0.03390412940633536  0.8075259206635796  1.0000
  C   C27       1.0  0.8265789434434386  0.40710125276242204  0.19661063370450327  1.0000
  C   C28       1.0  0.8764071962722101  0.5052999149828343  0.18857466414144608  1.0000
  C   C29       1.0  0.9016025336802311  0.5551541235329027  0.06735817089925722  1.0000
  C   C30       1.0  0.8763127326550622  0.505473721678628  0.9532732702033995  1.0000
  C   C31       1.0  0.826485296750889  0.40727252650139656  0.9593176970397232  1.0000
  C   C32       1.0  0.801895530202045  0.3586396484449661  0.08144421300401383  1.0000
  C   C33       1.0  0.9543188660317196  0.6590372623634542  0.05994841139704454  1.0000
  C   C34       1.0  0.9496850950067808  0.7636920290754801  0.9640537995409075  1.0000
  C   C35       1.0  0.9993251967715108  0.8613812854712009  0.957165531522941  1.0000
  C   C36       1.0  0.054167190805560095  0.856764255035535  0.046538591517229166  1.0000
  C   C37       1.0  0.05946045646335407  0.7518196607870582  0.141384852500001  1.0000
  C   C38       1.0  0.00983457602189719  0.6541054684407261  0.14844607445758862  1.0000
  C   C39       1.0  0.10851320864541414  0.9600762315797484  0.036765811278803184  1.0000
  N   N5        1.0  0.16124954615789555  0.9265454933870039  0.9445622892933541  1.0000
  H   H21       1.0  0.8076199990047237  0.36963563594417104  0.5271298931672983  1.0000
  H   H22       1.0  0.8950632631862386  0.5444948271316294  0.27667855702331523  1.0000
  H   H23       1.0  0.8962634075377254  0.5422961925805572  0.8597164778743283  1.0000
  H   H24       1.0  0.7634555310976556  0.28288280167735147  0.08687503654573647  1.0000
  H   H25       1.0  0.8074857088002599  0.3698765817562293  0.634165423033342  1.0000
  H   H26       1.0  0.9072551735885662  0.7707455279849842  0.8952113046109385  1.0000
  H   H27       1.0  0.9949069785239681  0.9408549149616539  0.8822629432481368  1.0000
  H   H28       1.0  0.10214595844279684  0.7454141611047778  0.2097040190334949  1.0000
  H   H29       1.0  0.015451733789209054  0.5735947019717547  0.2218981308963961  1.0000
  H   H30       1.0  0.084756244441345  0.05549852293021518  0.0031743334545741853  1.0000
  H   H31       1.0  0.1322412665303463  0.9709911298019653  0.1339235975682449  1.0000
  H   H32       1.0  0.1959804339657829  0.0036580731796203025  0.9350580543867522  1.0000
  H   H33       1.0  0.18883815530513037  0.8457824662842672  0.9856931763376364  1.0000
  Zn  Zn1       1.0  0.7511449289298252  0.40844475381937295  0.5770062237723586  1.0000
  Zn  Zn2       1.0  0.9019127013365166  0.4059285464667097  0.5789214635244548  1.0000
  C   C40       1.0  0.8265005981077671  0.40206654756553095  0.8151501912180787  1.0000
  C   C41       1.0  0.8265586787902006  0.412308363885729  0.34077764431183444  1.0000
  C   C42       1.0  0.8265679809615919  0.6443770417351431  0.5727685379665002  1.0000
  C   C43       1.0  0.8264912442262808  0.16999631029353002  0.5831593662814769  1.0000
  O   O1        1.0  0.8837674607566685  0.41309536464902163  0.3898882340510954  1.0000
  O   O2        1.0  0.883721066754931  0.39936882383983874  0.767492850389299  1.0000
  O   O3        1.0  0.8837747078022933  0.5950376254918825  0.5717679405826759  1.0000
  O   O4        1.0  0.8837137682759553  0.21742657312390645  0.5856130458326234  1.0000
  O   O5        1.0  0.7693438105407462  0.5969467280222465  0.5703146408037818  1.0000
  O   O6        1.0  0.7692901697538386  0.4012794866528604  0.7660394812319333  1.0000
  O   O7        1.0  0.7693365639856858  0.4150059818547953  0.3884333035604679  1.0000
  O   O8        1.0  0.7692828714886834  0.21933718106282218  0.5841582127066829  1.0000
