data_image0
_chemical_formula_structural       NC12NC2H8C12NH11C12NCOH11Zn2C4O8
_chemical_formula_sum              "N4 C43 H30 O9 Zn2"
_cell_length_a       19.240039667572717
_cell_length_b       10.299770795358612
_cell_length_c       10.299148425239203
_cell_angle_alpha    85.53227456119625
_cell_angle_beta     89.98519547309932
_cell_angle_gamma    90.01598423534

_space_group_name_H-M_alt    "P 1"
_space_group_IT_number       1

loop_
  _space_group_symop_operation_xyz
  'x, y, z'

loop_
  _atom_site_type_symbol
  _atom_site_label
  _atom_site_symmetry_multiplicity
  _atom_site_fract_x
  _atom_site_fract_y
  _atom_site_fract_z
  _atom_site_occupancy
  N   N1        1.0  0.6548876352842887  0.4218701824128557  0.5672768297040132  1.0000
  C   C1        1.0  0.5947392664908894  0.42187026642820635  0.5672767477570009  1.0000
  C   C2        1.0  0.5199212293862437  0.421870383771086  0.5672766104366289  1.0000
  C   C3        1.0  0.48342357720345563  0.3573619553101368  0.6706991902285442  1.0000
  C   C4        1.0  0.4107528005668469  0.35725103804466496  0.6707857441450993  1.0000
  C   C5        1.0  0.373588994494244  0.4218704764313066  0.5672763827341305  1.0000
  C   C6        1.0  0.4108008668098614  0.486490101722604  0.46376721586835834  1.0000
  C   C7        1.0  0.48347152668485077  0.4863789489068393  0.46385389230586127  1.0000
  C   C8        1.0  0.2963839040560723  0.4218703978101874  0.5672762873156691  1.0000
  C   C9        1.0  0.2591733851421129  0.30859229184120185  0.6091554254226839  1.0000
  C   C10       1.0  0.1865027253615346  0.30869923009393196  0.6090640883716314  1.0000
  C   C11       1.0  0.15005161710515416  0.42187026861204635  0.5672763482364753  1.0000
  C   C12       1.0  0.0752335798988039  0.42187015476530365  0.5672765969203795  1.0000
  N   N2        1.0  0.015085263011766199  0.42187011385458084  0.5672768053564772  1.0000
  C   C13       1.0  0.1865480197240306  0.5350413829797827  0.525488555203173  1.0000
  C   C14       1.0  0.2592187445948689  0.5351485014212061  0.5253970555373697  1.0000
  H   H1        1.0  0.5111198158720182  0.3074178432809598  0.751448582221873  1.0000
  H   H2        1.0  0.3836408313395254  0.308104542490367  0.7526506839015736  1.0000
  H   H3        1.0  0.38372630526013135  0.535636624350575  0.38190222525854955  1.0000
  H   H4        1.0  0.5112050594262311  0.5363229605581994  0.3831047761323325  1.0000
  H   H5        1.0  0.2862490312860871  0.21942401028185032  0.6403295177192108  1.0000
  H   H6        1.0  0.15877024569813297  0.22042969436670612  0.6412711776817397  1.0000
  H   H7        1.0  0.1588506759339642  0.6233108941641015  0.49328148044570574  1.0000
  H   H8        1.0  0.2863295772861253  0.6243168621757837  0.4942229184623421  1.0000
  C   C15       1.0  0.8349267992415265  0.04050160392532187  0.5673163960000258  1.0000
  C   C16       1.0  0.8147721587568254  0.04973212706365149  0.4358966902835135  1.0000
  C   C17       1.0  0.8046233978456834  0.9372731629552505  0.3692701916244221  1.0000
  C   C18       1.0  0.8148993816832978  0.8144505424488365  0.43582813256163044  1.0000
  C   C19       1.0  0.8350527643340429  0.8032287272658846  0.5672483888646884  1.0000
  C   C20       1.0  0.8449539518771273  0.9168093323143751  0.6322564596442428  1.0000
  C   C21       1.0  0.7833012622846376  0.9480919258593181  0.23023577071694734  1.0000
  C   C22       1.0  0.7326991175932135  0.03928882766248876  0.18504541874911307  1.0000
  C   C23       1.0  0.7126605251382101  0.04934222244995823  0.054185160834752555  1.0000
  C   C24       1.0  0.7428448149294923  0.9686190341081232  0.9664349688114195  1.0000
  C   C25       1.0  0.7932803005116844  0.8776205883938303  0.010734698931619047  1.0000
  C   C26       1.0  0.8133745736774668  0.8673111804293565  0.1415649816987381  1.0000
  N   N3        1.0  0.7223183175756513  0.9790337387532007  0.8325899941703918  1.0000
  H   H9        1.0  0.8425770892883547  0.3644365983655655  0.6174105302240993  1.0000
  H   H10       1.0  0.807840837380776  0.14465902757126914  0.3845408132968211  1.0000
  H   H11       1.0  0.8062232932939085  0.7274428009468064  0.38541242564720735  1.0000
  H   H12       1.0  0.8605018157464752  0.9089203656082843  0.7336409424545589  1.0000
  H   H13       1.0  0.8427623568568099  0.4715002608596973  0.6173108994208505  1.0000
  H   H14       1.0  0.7079662691129074  0.10167208435656061  0.25125334057532345  1.0000
  H   H15       1.0  0.6734801453448065  0.1198372317979004  0.021271266667299837  1.0000
  H   H16       1.0  0.8171536982861642  0.8148920668601528  0.9438374553365168  1.0000
  H   H17       1.0  0.8530879671475419  0.7973270479654645  0.17303923124955345  1.0000
  H   H18       1.0  0.7445234134207582  0.9192662362506008  0.7664456890719067  1.0000
  H   H19       1.0  0.6847648641729186  0.04658915889880233  0.7986528594003741  1.0000
  C   C27       1.0  0.8350420862654134  0.4220210005901275  0.18588618945765445  1.0000
  C   C28       1.0  0.9055644684634404  0.4575798572299339  0.18191357838945899  1.0000
  C   C29       1.0  0.9412103569507433  0.47539473840382374  0.06276726346892514  1.0000
  C   C30       1.0  0.9054178944232214  0.45723970717365336  0.9466564537279059  1.0000
  C   C31       1.0  0.8349374736568022  0.4217093241693892  0.9486786060980483  1.0000
  C   C32       1.0  0.8001630562285608  0.40429931088420323  0.06879926998380936  1.0000
  C   C33       1.0  0.015772573168778115  0.5129874766389799  0.059657382068114106  1.0000
  C   C34       1.0  0.062465892031278836  0.45561658961081775  0.9760644448667719  1.0000
  C   C35       1.0  0.13259529309268037  0.49112989572487487  0.9732871528205105  1.0000
  C   C36       1.0  0.15767315471454757  0.5834027523183096  0.054787913262252186  1.0000
  C   C37       1.0  0.11091116522465572  0.6426198528065508  0.1368122893175765  1.0000
  C   C38       1.0  0.04075037242604962  0.6072132151325116  0.13968641310719332  1.0000
  N   N4        1.0  0.22985994311175828  0.6196096718635484  0.048249276277632536  1.0000
  C   C39       1.0  0.26984425314863647  0.6562826600687288  0.15697610043950183  1.0000
  O   O1        1.0  0.24632509149475101  0.6421201349782362  0.2713375421523425  1.0000
  H   H20       1.0  0.7020450170643673  0.35414152710652247  0.4007372353039349  1.0000
  H   H21       1.0  0.933141790347769  0.4697752563975792  0.271838891598994  1.0000
  H   H22       1.0  0.9323869924041568  0.4726313670280238  0.85442218041376  1.0000
  H   H23       1.0  0.7458005582119803  0.37689030299642656  0.07107410253796043  1.0000
  H   H24       1.0  0.8078308434436958  0.40800708724643364  0.6219832455964567  1.0000
  H   H25       1.0  0.04493081354114081  0.3821069031621749  0.9138981530169352  1.0000
  H   H26       1.0  0.16770579233182903  0.4455920022135684  0.9083362912314734  1.0000
  H   H27       1.0  0.12805219316547678  0.718294074552297  0.19657177972724438  1.0000
  H   H28       1.0  0.00572232449372545  0.6554173588121306  0.20274446306312943  1.0000
  H   H29       1.0  0.2565895439387136  0.6106703614978526  0.9610669942969263  1.0000
  H   H30       1.0  0.3220368187586302  0.6933223797994585  0.14114892016082026  1.0000
  Zn  Zn1       1.0  0.7588328975213128  0.4218666923695771  0.5672843119489059  1.0000
  Zn  Zn2       1.0  0.911140016342665  0.4218630060967934  0.567279923714342  1.0000
  C   C40       1.0  0.8349548487216503  0.416594562427399  0.8044949968437729  1.0000
  C   C41       1.0  0.835019728584478  0.4271367745646413  0.3300693661011338  1.0000
  C   C42       1.0  0.8350260906215803  0.6590591731468849  0.5620857401500332  1.0000
  C   C43       1.0  0.8349484344455829  0.1846706035170378  0.5724786921789828  1.0000
  O   O2        1.0  0.8928119820442593  0.42884661038636973  0.37845689250494163  1.0000
  O   O3        1.0  0.8927601741898997  0.41488094924112584  0.7561037660859531  1.0000
  O   O4        1.0  0.8928169235714929  0.6106741882476783  0.5603565761221825  1.0000
  O   O5        1.0  0.8927551807054523  0.23305338071107862  0.5742039850877407  1.0000
  O   O6        1.0  0.7772176811835818  0.6106763177579664  0.5603602505701726  1.0000
  O   O7        1.0  0.7771609320660106  0.41488463908220563  0.7561073711445003  1.0000
  O   O8        1.0  0.7772127401732557  0.42885025560956325  0.3784589360550119  1.0000
  O   O9        1.0  0.7771559388167193  0.23305701660568534  0.574206126013449  1.0000
