data_image0
_chemical_formula_structural       NC9NC5H8C12OCH12C13OH12Zn2C4O8
_chemical_formula_sum              "N2 C44 H32 O10 Zn2"
_cell_length_a       17.807436237873137
_cell_length_b       10.29979075500242
_cell_length_c       10.299153481560891
_cell_angle_alpha    85.5777986716743
_cell_angle_beta     89.40949667369763
_cell_angle_gamma    88.37243818242351

_space_group_name_H-M_alt    "P 1"
_space_group_IT_number       1

loop_
  _space_group_symop_operation_xyz
  'x, y, z'

loop_
  _atom_site_type_symbol
  _atom_site_label
  _atom_site_symmetry_multiplicity
  _atom_site_fract_x
  _atom_site_fract_y
  _atom_site_fract_z
  _atom_site_occupancy
  N   N1        1.0  0.7069221650124403  0.38722348961998154  0.5570004493407117  1.0000
  C   C1        1.0  0.6463390146475757  0.3520295308674499  0.5459794072813813  1.0000
  C   C2        1.0  0.5709802342411399  0.3082521219344365  0.5322704276069996  1.0000
  C   C3        1.0  0.5528837849431507  0.23679771889351908  0.42727272639561464  1.0000
  C   C4        1.0  0.4797143033192066  0.19418170081455033  0.41387957094595085  1.0000
  C   C5        1.0  0.4235926139356859  0.222642542655217  0.5054516966281255  1.0000
  C   C6        1.0  0.345832310208723  0.1774676386233398  0.4913003061948136  1.0000
  C   C7        1.0  0.2836458379625514  0.25923376052109726  0.5172325405613503  1.0000
  C   C8        1.0  0.2103340897692367  0.21641470869661594  0.5038530834710138  1.0000
  C   C9        1.0  0.1470971121055539  0.3008723279595449  0.5301489967977917  1.0000
  N   N2        1.0  0.0962675712699249  0.3687704111385519  0.5512901851117094  1.0000
  C   C10       1.0  0.198625310421843  0.09157154463724404  0.4645160638078283  1.0000
  C   C11       1.0  0.2599544138873689  0.009791567269154422  0.43857544084122324  1.0000
  C   C12       1.0  0.3331467658887494  0.052216001223647446  0.45175239111833076  1.0000
  C   C13       1.0  0.4423804170330224  0.29459139548743685  0.6106685876257361  1.0000
  C   C14       1.0  0.5156027775156632  0.33701696054342634  0.6239061070590115  1.0000
  H   H1        1.0  0.5952706084529528  0.21428572037982807  0.35556126244924724  1.0000
  H   H2        1.0  0.4667972951024357  0.1404683692543498  0.33096294416542316  1.0000
  H   H3        1.0  0.292130893111516  0.35670973494133773  0.5461015876748501  1.0000
  H   H4        1.0  0.1421645332971733  0.057531433546677  0.4539239674502247  1.0000
  H   H5        1.0  0.2507706664545049  0.913135248332927  0.4085059030384619  1.0000
  H   H6        1.0  0.3797960432107542  0.9864636492829857  0.43270938534941483  1.0000
  H   H7        1.0  0.4007107874986186  0.3165648246918582  0.6836746064127224  1.0000
  H   H8        1.0  0.5290477434189543  0.3919504942603462  0.7057809951679648  1.0000
  C   C15       1.0  0.9016659764325963  0.9966258526157175  0.5541832472670738  1.0000
  C   C16       1.0  0.8799413493464022  0.986538046132981  0.6859413633668368  1.0000
  C   C17       1.0  0.8688736925294984  0.8642930061523818  0.7526719256285204  1.0000
  C   C18       1.0  0.8798063679795353  0.7512621260201174  0.6858775572290199  1.0000
  C   C19       1.0  0.9015309615585378  0.7593577189773789  0.5541185090957832  1.0000
  C   C20       1.0  0.9123408691814273  0.8824866835585455  0.4890097613439526  1.0000
  C   C21       1.0  0.8458948449120586  0.8546745653496526  0.8920658033517124  1.0000
  C   C22       1.0  0.7910865763660222  0.7664226565857765  0.937935679086221  1.0000
  C   C23       1.0  0.7695271247893753  0.7576404531436769  0.06899234300260604  1.0000
  C   C24       1.0  0.8022902157346115  0.836465253865633  0.15586095236812236  1.0000
  C   C25       1.0  0.8572988034116522  0.9253174458786116  0.11185986479791188  1.0000
  C   C26       1.0  0.8786252660316282  0.9337493093929891  0.9802799125302972  1.0000
  O   O1        1.0  0.8920391749398938  0.006401867862630084  0.19521969568018283  1.0000
  C   C27       1.0  0.8759556361863915  0.008191216200088336  0.3307931530146839  1.0000
  H   H9        1.0  0.9099768715542981  0.3279196667009423  0.5039985591963394  1.0000
  H   H10       1.0  0.8705811919096149  0.07402642759790523  0.7365079504782825  1.0000
  H   H11       1.0  0.8723256993439765  0.6567353072281722  0.7373557027121622  1.0000
  H   H12       1.0  0.9291010792989118  0.8895005761761042  0.3873639330497616  1.0000
  H   H13       1.0  0.9097716393190143  0.4349928115738861  0.503897215342239  1.0000
  H   H14       1.0  0.7642044604610847  0.7054435600600619  0.8721196910995033  1.0000
  H   H15       1.0  0.7271033035394713  0.6896933768467495  0.10329370383383318  1.0000
  H   H16       1.0  0.7845034319730153  0.8275954899378826  0.2567894986005774  1.0000
  H   H17       1.0  0.9216555069191711  0.0012419862317576413  0.9474825318412845  1.0000
  H   H18       1.0  0.8889417259265107  0.9110651595614205  0.38122582572525276  1.0000
  H   H19       1.0  0.9114142897983528  0.0811650634819101  0.37248788093564233  1.0000
  H   H20       1.0  0.8159847932441847  0.035949464886352755  0.3461083408678781  1.0000
  C   C28       1.0  0.9015339622361136  0.37784742648174197  0.17277931008490355  1.0000
  C   C29       1.0  0.8238663175259696  0.3571483910679296  0.1745920134214467  1.0000
  C   C30       1.0  0.7846234267431873  0.3468098538023483  0.058341522202723484  1.0000
  C   C31       1.0  0.824043509878615  0.3574572903986184  0.9392814193394425  1.0000
  C   C32       1.0  0.9016629690965539  0.37813617547238443  0.9355224772872108  1.0000
  C   C33       1.0  0.9399549716900171  0.38820689200430114  0.05281155296490314  1.0000
  C   C34       1.0  0.702509569827859  0.3249389601111905  0.06123106831225078  1.0000
  C   C35       1.0  0.654983827835268  0.39242788464107736  0.969254760304576  1.0000
  C   C36       1.0  0.5777098333482814  0.37189002565882934  0.9720519448934182  1.0000
  C   C37       1.0  0.5466611054888745  0.2826497948285609  0.06597524861183324  1.0000
  C   C38       1.0  0.5936826648867756  0.21628104043233964  0.1588773855316279  1.0000
  C   C39       1.0  0.6709602285802125  0.2367890830112782  0.15625830084768455  1.0000
  C   C40       1.0  0.46341141224982724  0.26330885628307343  0.07111464562878789  1.0000
  O   O2        1.0  0.4296526081134345  0.3524964735594325  0.15110927962953546  1.0000
  H   H21       1.0  0.04803980007628539  0.41775204799923027  0.3765874425272624  1.0000
  H   H22       1.0  0.793579425277365  0.3508201734364911  0.26651246716625776  1.0000
  H   H23       1.0  0.7942383497879038  0.34781769398032947  0.8495403958242562  1.0000
  H   H24       1.0  0.9998247760408009  0.4041607997224981  0.0506279948566406  1.0000
  H   H25       1.0  0.9315081888841877  0.38617638931122045  0.6065947424945515  1.0000
  H   H26       1.0  0.6774284404763922  0.4626199692506765  0.896361686983111  1.0000
  H   H27       1.0  0.5420560817349491  0.4258598820934558  0.9010894463561772  1.0000
  H   H28       1.0  0.5705449168833023  0.14832819224237026  0.2332203121168932  1.0000
  H   H29       1.0  0.7061625066821217  0.18264012494820436  0.22775065179223852  1.0000
  H   H30       1.0  0.4515058599820552  0.16208621956563785  0.1101170407877412  1.0000
  H   H31       1.0  0.4396296335268476  0.27780120798175667  0.9713314049073438  1.0000
  H   H32       1.0  0.3750433470871867  0.3357311800310452  0.15120850064149138  1.0000
  Zn  Zn1       1.0  0.8192788396254341  0.3818948673175415  0.5553601015716971  1.0000
  Zn  Zn2       1.0  0.983910882139562  0.3740884512525804  0.5529412104654854  1.0000
  C   C41       1.0  0.9016378096782153  0.37290796951244687  0.7913481626481016  1.0000
  C   C42       1.0  0.9015537095950117  0.383076902488394  0.3169532503032313  1.0000
  C   C43       1.0  0.9015517214498576  0.615183409533496  0.5489556329571694  1.0000
  C   C44       1.0  0.9016397419339147  0.14079990484647564  0.5593458501910156  1.0000
  O   O3        1.0  0.9640373401391595  0.3818638024234018  0.3644213855976013  1.0000
  O   O4        1.0  0.9641060901863642  0.3681952005430744  0.7420437712078836  1.0000
  O   O5        1.0  0.9640357308617282  0.5638357227982504  0.5463101007752353  1.0000
  O   O6        1.0  0.9641076432679192  0.1862232920854343  0.5601549594795137  1.0000
  O   O7        1.0  0.8390820223162395  0.5697600291500453  0.5481463533762865  1.0000
  O   O8        1.0  0.8391523813494924  0.3741210671810964  0.7438799544307002  1.0000
  O   O9        1.0  0.8390836310962098  0.3877896232117495  0.36625600741187636  1.0000
  O   O10       1.0  0.8391539342400081  0.19214910362193094  0.5619896786631424  1.0000
