data_image0
_chemical_formula_structural       NC11NC3H8C13OH12C12NCOCH13Zn2C4O8
_chemical_formula_sum              "N3 C45 H33 O10 Zn2"
_cell_length_a       17.807433833752565
_cell_length_b       10.299150109392551
_cell_length_c       10.299158637457994
_cell_angle_alpha    85.56061603079257
_cell_angle_beta     88.50589662061448
_cell_angle_gamma    90.66566965777596

_space_group_name_H-M_alt    "P 1"
_space_group_IT_number       1

loop_
  _space_group_symop_operation_xyz
  'x, y, z'

loop_
  _atom_site_type_symbol
  _atom_site_label
  _atom_site_symmetry_multiplicity
  _atom_site_fract_x
  _atom_site_fract_y
  _atom_site_fract_z
  _atom_site_occupancy
  N   N1        1.0  0.7074148803326596  0.4380619052040491  0.5341455687924399  1.0000
  C   C1        1.0  0.6565896405600782  0.40335625957209587  0.600720601043174  1.0000
  C   C2        1.0  0.5933579176848818  0.36018529607271543  0.6835314457920407  1.0000
  C   C3        1.0  0.6050743219379044  0.29667398141242374  0.806273085953235  1.0000
  C   C4        1.0  0.5437500995232871  0.255182105426613  0.8867994000747024  1.0000
  C   C5        1.0  0.4705550658325613  0.2768884800233422  0.8452249846098356  1.0000
  C   C6        1.0  0.4578619239817726  0.3405541941040071  0.7220230888642574  1.0000
  C   C7        1.0  0.3800989344273172  0.3635897985456875  0.6776675341302774  1.0000
  C   C8        1.0  0.3613422493611545  0.34667032544455845  0.5480912847001806  1.0000
  C   C9        1.0  0.2881172884103163  0.3683379535726323  0.5064728103551022  1.0000
  C   C10       1.0  0.2327060301321926  0.40724331436836825  0.5936101924043866  1.0000
  C   C11       1.0  0.1573444754027913  0.4295689723748044  0.5506301821509489  1.0000
  N   N2        1.0  0.096759158576635  0.44751714277555044  0.5160773819953266  1.0000
  C   C12       1.0  0.2507712100956644  0.42437319124328177  0.7226552292931543  1.0000
  C   C13       1.0  0.32394336895190534  0.40267072127012726  0.7645291480853351  1.0000
  C   C14       1.0  0.5200434561168205  0.3820415106542403  0.6415131923340409  1.0000
  H   H1        1.0  0.6615372199337414  0.27927008430071676  0.839644982520813  1.0000
  H   H2        1.0  0.5529399842389251  0.20575986941005286  0.9815535912423454  1.0000
  H   H3        1.0  0.4239105706804037  0.24235246514329578  0.9086766353410831  1.0000
  H   H4        1.0  0.40303906899081904  0.3150018113259254  0.47938468865775374  1.0000
  H   H5        1.0  0.2746967262971807  0.3544207051774504  0.40644175583870457  1.0000
  H   H6        1.0  0.20835792809096124  0.4548184079735762  0.7908474671771135  1.0000
  H   H7        1.0  0.3368352457051687  0.4181334249965627  0.8643769192427742  1.0000
  H   H8        1.0  0.5115517533735636  0.43282628030582493  0.5469928558501864  1.0000
  C   C15       1.0  0.90216138977349  0.06139173430944411  0.5252521274581108  1.0000
  C   C16       1.0  0.9007522767649893  0.04960120514554989  0.6621292199502742  1.0000
  C   C17       1.0  0.899972506939414  0.926486878055822  0.7312681461728048  1.0000
  C   C18       1.0  0.900607498528389  0.8143422172941842  0.6617725410849851  1.0000
  C   C19       1.0  0.902019828143731  0.8241774486184833  0.5249816989045772  1.0000
  C   C20       1.0  0.9027905864568149  0.9481627515325972  0.45752079129254586  1.0000
  C   C21       1.0  0.8984752915260596  0.9149953952557676  0.8759787704897211  1.0000
  C   C22       1.0  0.8522672268117693  0.8210167918829249  0.9461450342428883  1.0000
  C   C23       1.0  0.8508334589144204  0.8102841229076211  0.08231874215204626  1.0000
  C   C24       1.0  0.8960745842781429  0.8923836171194814  0.15076503750570014  1.0000
  C   C25       1.0  0.9415637784572394  0.9872986221367741  0.08127471042329804  1.0000
  C   C26       1.0  0.9430149853327489  0.9982075115486042  0.9450999045109552  1.0000
  C   C27       1.0  0.8929542883807452  0.8831665038689086  0.2969971483772873  1.0000
  O   O1        1.0  0.8367960638650942  0.9649921897315609  0.33984421632124673  1.0000
  H   H9        1.0  0.9043330753357116  0.2909278935216095  0.2669128514617829  1.0000
  H   H10       1.0  0.8992164794458845  0.1363545057335116  0.7152094450942008  1.0000
  H   H11       1.0  0.9010263668643794  0.7192469512361387  0.7145869924758947  1.0000
  H   H12       1.0  0.9038778327355823  0.9564651166889311  0.35201002026480843  1.0000
  H   H13       1.0  0.90251249424427  0.5004837275463874  0.472369490063115  1.0000
  H   H14       1.0  0.8163487992280883  0.7571191175482854  0.8957028314052302  1.0000
  H   H15       1.0  0.814278832199303  0.7380829697717615  0.13439104594085383  1.0000
  H   H16       1.0  0.9760982451575517  0.0527158970798165  0.13252734955925438  1.0000
  H   H17       1.0  0.979594634288507  0.07085496474339492  0.8938330885070178  1.0000
  H   H18       1.0  0.9482076635009926  0.9123504324661601  0.33460330491868306  1.0000
  H   H19       1.0  0.8807384694860394  0.7808607022928198  0.33537689625726597  1.0000
  H   H20       1.0  0.8370564609432168  0.9553523358002218  0.43645949866351963  1.0000
  C   C28       1.0  0.9021610683223587  0.44264834729256974  0.14374058995765515  1.0000
  C   C29       1.0  0.9038812199218823  0.5794043762548102  0.1322975687436605  1.0000
  C   C30       1.0  0.9046943711386213  0.6488800110348409  0.009340853078293021  1.0000
  C   C31       1.0  0.9037373372094777  0.5797607807592171  0.8969926365969894  1.0000
  C   C32       1.0  0.9020201502816803  0.4429209081566734  0.9064932445538432  1.0000
  C   C33       1.0  0.901245874036973  0.37520616790834604  0.03025416295456962  1.0000
  C   C34       1.0  0.9065149807605536  0.7935511302897313  0.9982090375705095  1.0000
  C   C35       1.0  0.9526130351508211  0.8625099810664743  0.078612517954737  1.0000
  C   C36       1.0  0.9543324474445267  0.9986532829377217  0.0680057510745471  1.0000
  C   C37       1.0  0.9104643229809796  0.06857902202513122  0.9758661940182396  1.0000
  C   C38       1.0  0.8634715302486754  0.999958859526406  0.8972871840923737  1.0000
  C   C39       1.0  0.8617829562082079  0.8638442182557937  0.9076315228729261  1.0000
  N   N3        1.0  0.910151433097561  0.2086286611211614  0.9645944714247108  1.0000
  C   C40       1.0  0.9745028794338206  0.2891856793522418  0.9848110021804262  1.0000
  O   O2        1.0  0.039285185022813085  0.24134227648222772  0.9903387404517323  1.0000
  C   C41       1.0  0.9656637435365167  0.4327977370899707  0.9897715247160019  1.0000
  H   H21       1.0  0.901522961604273  0.39004483852399474  0.47561674712257096  1.0000
  H   H22       1.0  0.9035430074628212  0.6322176580505876  0.21924493593050065  1.0000
  H   H23       1.0  0.9053562156935572  0.6328179615367664  0.8019266465850103  1.0000
  H   H24       1.0  0.8999216526775113  0.2697231101361184  0.03836541607811128  1.0000
  H   H25       1.0  0.8992351346288727  0.18463850445867624  0.7171117688943038  1.0000
  H   H26       1.0  0.9877841928723752  0.8111328699605844  0.1491918446931464  1.0000
  H   H27       1.0  0.9889901602998143  0.04883849356122072  0.1334109927835303  1.0000
  H   H28       1.0  0.828321600866375  0.052211563860387944  0.8272758449829505  1.0000
  H   H29       1.0  0.8246640216418852  0.8135524530759879  0.8460247575502788  1.0000
  H   H30       1.0  0.8614433445471881  0.25490459875935834  0.9318908904505814  1.0000
  H   H31       1.0  0.9128338896272444  0.4532311905664752  0.04363310640489426  1.0000
  H   H32       1.0  0.9636352338526624  0.4794195691889156  0.8891299165916968  1.0000
  H   H33       1.0  0.013585449136986005  0.47473243586461455  0.040187583881461375  1.0000
  Zn  Zn1       1.0  0.8197712277954353  0.44078701029447376  0.5289389662731829  1.0000
  Zn  Zn2       1.0  0.9844027963684584  0.4447814210693932  0.5212945744990074  1.0000
  C   C42       1.0  0.9020460687865907  0.43769525619030825  0.7623185475018408  1.0000
  C   C43       1.0  0.902129752821235  0.44787485758195245  0.287915036681724  1.0000
  C   C44       1.0  0.902043674892685  0.6799928074592736  0.5198577047515358  1.0000
  C   C45       1.0  0.902132090814693  0.20557574455365724  0.5303759518337572  1.0000
  O   O3        1.0  0.9645960663933806  0.451139114080237  0.33340029322192133  1.0000
  O   O4        1.0  0.9645313066970826  0.4374616851153388  0.711031000978338  1.0000
  O   O5        1.0  0.9645285311305413  0.6331200020838075  0.5152421936354894  1.0000
  O   O6        1.0  0.9645987857985857  0.25548080500488135  0.5291890057934321  1.0000
  O   O7        1.0  0.8395751821846343  0.6300876249973006  0.5210445375805823  1.0000
  O   O8        1.0  0.8395779574709494  0.4344308684264775  0.7168332751235269  1.0000
  O   O9        1.0  0.8396427175140893  0.4481082515752772  0.3392010059498656  1.0000
  O   O10       1.0  0.839645436899957  0.252449933245124  0.5349898158945383  1.0000
