data_image0
_chemical_formula_structural       NC11NC3H8C12NH11C12ClH9Zn2C4O8
_chemical_formula_sum              "N3 C42 H28 Cl1 Zn2 O8"
_cell_length_a       17.807433833752565
_cell_length_b       10.299770795358612
_cell_length_c       10.299771906710086
_cell_angle_alpha    85.53968522419491
_cell_angle_beta     88.53397753802528
_cell_angle_gamma    90.70213480944165

_space_group_name_H-M_alt    "P 1"
_space_group_IT_number       1

loop_
  _space_group_symop_operation_xyz
  'x, y, z'

loop_
  _atom_site_type_symbol
  _atom_site_label
  _atom_site_symmetry_multiplicity
  _atom_site_fract_x
  _atom_site_fract_y
  _atom_site_fract_z
  _atom_site_occupancy
  N   N1        1.0  0.7075305901111065  0.4388862596791152  0.534548956174443  1.0000
  C   C1        1.0  0.656711241336169  0.404140946496502  0.6011135392350981  1.0000
  C   C2        1.0  0.5934868455389384  0.36092064174011007  0.6839113861213741  1.0000
  C   C3        1.0  0.6052142834171363  0.29733615915059697  0.8066338834587372  1.0000
  C   C4        1.0  0.5438973637032496  0.2557962675753622  0.8871476838276311  1.0000
  C   C5        1.0  0.470698663463453  0.27752741110511536  0.8455798022527483  1.0000
  C   C6        1.0  0.4579944161126693  0.3412665735753766  0.722397099572543  1.0000
  C   C7        1.0  0.3802274700033975  0.3643286128187413  0.6780484842271832  1.0000
  C   C8        1.0  0.3614285585179271  0.34749249319557696  0.5484708488374512  1.0000
  C   C9        1.0  0.28819990464482553  0.3691849210001046  0.5068588994258381  1.0000
  C   C10       1.0  0.23282706742521814  0.4080322247742503  0.5940042929931826  1.0000
  C   C11       1.0  0.1574616804535335  0.4303834974699292  0.5510310080645406  1.0000
  N   N2        1.0  0.0968732827711931  0.4483522602190466  0.5164836145718983  1.0000
  C   C12       1.0  0.250934402578925  0.4250790695261004  0.7230507821102021  1.0000
  C   C13       1.0  0.3241103127666882  0.40335164051836125  0.7649181611623663  1.0000
  C   C14       1.0  0.5201686484560685  0.38280189564184086  0.6418997152465828  1.0000
  H   H1        1.0  0.661680131797577  0.2799123785027571  0.8400005403649129  1.0000
  H   H2        1.0  0.5530956231488819  0.20631757590442534  0.9818869961028929  1.0000
  H   H3        1.0  0.4240592517553782  0.24295369584575077  0.9090211188990949  1.0000
  H   H4        1.0  0.4030947223601865  0.31586982843292377  0.4797576806555859  1.0000
  H   H5        1.0  0.2747464327227729  0.35533208260198945  0.4068265549114485  1.0000
  H   H6        1.0  0.2085511877118965  0.45547885192177673  0.791249289297135  1.0000
  H   H7        1.0  0.3370356111250685  0.418749937925855  0.8647676239726014  1.0000
  H   H8        1.0  0.5116691322659963  0.4336428735682454  0.5473946027197689  1.0000
  C   C15       1.0  0.9021374520693874  0.062249140204138964  0.5255588463085792  1.0000
  C   C16       1.0  0.8803202244307345  0.07093215951246834  0.3951607365837113  1.0000
  C   C17       1.0  0.8693341676266123  0.9581974416054191  0.3290486940116084  1.0000
  C   C18       1.0  0.8804577248864329  0.8356539090283085  0.39508580374507396  1.0000
  C   C19       1.0  0.902273593047961  0.8249795646940391  0.5254845270967268  1.0000
  C   C20       1.0  0.9129916527837474  0.938829197615839  0.5899906910948409  1.0000
  C   C21       1.0  0.8462531359751189  0.9684369852314394  0.19109504710818626  1.0000
  C   C22       1.0  0.7915456364933473  0.0582979222792106  0.14844629237904128  1.0000
  C   C23       1.0  0.7698539821426625  0.06780693892656431  0.018601764379855723  1.0000
  C   C24       1.0  0.8024593739004412  0.9878650877814453  0.9293448968839235  1.0000
  C   C25       1.0  0.8569865137483684  0.8981981061175193  0.9711114613052874  1.0000
  C   C26       1.0  0.8787383469067681  0.8884345355213669  0.10092322400490183  1.0000
  N   N3        1.0  0.7802396142168561  0.9977221869741604  0.7965403669158868  1.0000
  H   H9        1.0  0.9104188770369447  0.3863919844089052  0.5752651863637288  1.0000
  H   H10       1.0  0.872815637507143  0.16566993359771498  0.3441566979753019  1.0000
  H   H11       1.0  0.8710674223332675  0.7484113159962571  0.3451093651574866  1.0000
  H   H12       1.0  0.9298220846158088  0.9313625914480153  0.6905870853592853  1.0000
  H   H13       1.0  0.9106191112410597  0.4934605022373115  0.5751562718208434  1.0000
  H   H14       1.0  0.7648275721903283  0.12004018253513293  0.21588924244051588  1.0000
  H   H15       1.0  0.7274953982807667  0.13726781529086685  0.9876556157031482  1.0000
  H   H16       1.0  0.8827754189844877  0.8360879009816243  0.9030223507573658  1.0000
  H   H17       1.0  0.921672724416484  0.8194983483147983  0.13040311321707687  1.0000
  H   H18       1.0  0.8042254107056637  0.9385292598621698  0.72928780511974  1.0000
  H   H19       1.0  0.7396393503086225  0.06428609110135164  0.7644894646615539  1.0000
  C   C27       1.0  0.9021697872670172  0.44371979641632486  0.14415409141708024  1.0000
  C   C28       1.0  0.970323884688618  0.5142598191259744  0.13465793227859302  1.0000
  C   C29       1.0  0.004894735805475836  0.5498957525643611  0.012714125003624677  1.0000
  C   C30       1.0  0.9703963161716714  0.5140464177554014  0.8993848143737946  1.0000
  C   C31       1.0  0.9022412532820857  0.44350893146489434  0.9068893621209977  1.0000
  C   C32       1.0  0.8685099997653788  0.4087398086527154  0.029724264575486048  1.0000
  C   C33       1.0  0.07699658658423014  0.6245198309121576  0.0037217049127200585  1.0000
  C   C34       1.0  0.08888844331049861  0.7278141777236833  0.08296285107995205  1.0000
  C   C35       1.0  0.15678622778509577  0.797952349695338  0.07431004395175589  1.0000
  C   C36       1.0  0.21356264792331725  0.7658619007256702  0.9866905494467826  1.0000
  C   C37       1.0  0.20238814904158664  0.6634444624743085  0.9075448366804868  1.0000
  C   C38       1.0  0.134557666649747  0.5931076047860702  0.9158189076273393  1.0000
  Cl  Cl1       1.0  0.29870566012377764  0.853982280288063  0.9760726665208694  1.0000
  H   H20       1.0  0.8761798532005841  0.4168973393833655  0.4752224559384486  1.0000
  H   H21       1.0  0.9972071506383396  0.5401129613797719  0.22238911638303005  1.0000
  H   H22       1.0  0.9962905057080597  0.5428170938101913  0.8050712580137476  1.0000
  H   H23       1.0  0.8159317944588869  0.3543225370112648  0.03628193281260317  1.0000
  H   H24       1.0  0.8762853483272209  0.41658533232615635  0.582298404249928  1.0000
  H   H25       1.0  0.04534141721214824  0.7554085874247751  0.15035480532538137  1.0000
  H   H26       1.0  0.1651072621197882  0.8774286862243341  0.13555050528340828  1.0000
  H   H27       1.0  0.2462783986537762  0.6380055464701317  0.839793190572061  1.0000
  H   H28       1.0  0.12748347639507274  0.513121304054581  0.85474017626  1.0000
  Zn  Zn1       1.0  0.8198864808276825  0.44161446623808853  0.529343173652574  1.0000
  Zn  Zn2       1.0  0.9845173763904591  0.4456134311053894  0.5216999841054546  1.0000
  C   C39       1.0  0.9022251522305376  0.4383750272868423  0.7627166187814503  1.0000
  C   C40       1.0  0.9021805030563016  0.44885455231506666  0.28832658281964174  1.0000
  C   C41       1.0  0.9022435120490406  0.6808086088776892  0.5203236389218164  1.0000
  C   C42       1.0  0.9021620867887561  0.2064194090326723  0.530719634677693  1.0000
  O   O1        1.0  0.9646606652466946  0.4520897438671152  0.33381163791770896  1.0000
  O   O2        1.0  0.9646960302627591  0.43817397791689205  0.7114301859191241  1.0000
  O   O3        1.0  0.9647100139609304  0.6339421402114325  0.5156961786818057  1.0000
  O   O4        1.0  0.9646466253636837  0.25632158952517625  0.5295455503878883  1.0000
  O   O5        1.0  0.8397571756740123  0.6309063064550666  0.5214976099715549  1.0000
  O   O6        1.0  0.8397431922444382  0.4351397044888392  0.71723154781187  1.0000
  O   O7        1.0  0.8397078271239429  0.4490554256158834  0.33961143841716046  1.0000
  O   O8        1.0  0.8396937872453262  0.25328726195810813  0.535345448255893  1.0000
