data_image0
_chemical_formula_structural       NC10NC5H10C12NH11C13F3H9Zn2C4O8
_chemical_formula_sum              "N3 C44 H30 F3 Zn2 O8"
_cell_length_a       19.4436361288709
_cell_length_b       10.299770795358612
_cell_length_c       10.2985328690268
_cell_angle_alpha    85.57387741516429
_cell_angle_beta     89.71035499971406
_cell_angle_gamma    89.43566516156574

_space_group_name_H-M_alt    "P 1"
_space_group_IT_number       1

loop_
  _space_group_symop_operation_xyz
  'x, y, z'

loop_
  _atom_site_type_symbol
  _atom_site_label
  _atom_site_symmetry_multiplicity
  _atom_site_fract_x
  _atom_site_fract_y
  _atom_site_fract_z
  _atom_site_occupancy
  N   N1        1.0  0.6477988959631922  0.40885560862715153  0.5618964939235738  1.0000
  C   C1        1.0  0.5889661504742065  0.418759316032717  0.5762809553666433  1.0000
  C   C2        1.0  0.5156408507288696  0.4311105738326686  0.594273883520759  1.0000
  C   C3        1.0  0.47344142541964684  0.3991014801981527  0.4995948855776735  1.0000
  C   C4        1.0  0.3975390059835398  0.4095403785989158  0.5049227252699042  1.0000
  C   C5        1.0  0.3578075013601379  0.3848067864258604  0.612004880921861  1.0000
  C   C6        1.0  0.2816861611275393  0.38872166580616785  0.5990442679699097  1.0000
  C   C7        1.0  0.2411426540555583  0.44639481526179825  0.6928185580139623  1.0000
  C   C8        1.0  0.1694786834556927  0.4500311493921616  0.6822736255007198  1.0000
  C   C9        1.0  0.1373634325203529  0.39559836383131475  0.578240975972834  1.0000
  C   C10       1.0  0.0635702100438687  0.3992959202567501  0.5675407457916475  1.0000
  N   N2        1.0  0.0042454642877379  0.40226856161805546  0.5589384701354962  1.0000
  C   C11       1.0  0.177181977933378  0.33721818051874464  0.4848499938553883  1.0000
  C   C12       1.0  0.24886234154256887  0.3335275897908663  0.49514313301735036  1.0000
  C   C13       1.0  0.3859481280909468  0.34436360667035504  0.7431120422935886  1.0000
  C   C14       1.0  0.44462370245793587  0.3874912974973921  0.7903554954768814  1.0000
  C   C15       1.0  0.4888385920792572  0.4853388346525982  0.7159763387069444  1.0000
  H   H1        1.0  0.4955260152255869  0.36997278985747606  0.40928295168797235  1.0000
  H   H2        1.0  0.3728340457400885  0.4320226037347559  0.4117558576122766  1.0000
  H   H3        1.0  0.2650287550618933  0.48969592222965996  0.7736704027192574  1.0000
  H   H4        1.0  0.1391489796189404  0.495354923483571  0.7551972732497616  1.0000
  H   H5        1.0  0.1528240617716318  0.29411277315850803  0.4043326456536498  1.0000
  H   H6        1.0  0.2785261480502109  0.28596053844088587  0.4229160098405602  1.0000
  H   H7        1.0  0.3549794208467256  0.2801555626293952  0.8073678264330058  1.0000
  H   H8        1.0  0.4597788425351554  0.3534372387459219  0.8882995277622785  1.0000
  H   H9        1.0  0.458741270809671  0.5760489456228188  0.6907169062990368  1.0000
  H   H10       1.0  0.5321345935049776  0.5109328707406109  0.7790645697782073  1.0000
  C   C16       1.0  0.8259631453063383  0.024194653514262976  0.5604575916283965  1.0000
  C   C17       1.0  0.8059937419308623  0.033698485652250865  0.4292031700369636  1.0000
  C   C18       1.0  0.7959381716040536  0.9213768180419235  0.36265989854133696  1.0000
  C   C19       1.0  0.8061196271013322  0.798414524795787  0.42913356745253584  1.0000
  C   C20       1.0  0.8260877858451775  0.786919424014493  0.560388549960696  1.0000
  C   C21       1.0  0.8358980574284949  0.9003660868297038  0.6253154238688272  1.0000
  C   C22       1.0  0.7748120029844994  0.9324847204401595  0.22380033614624506  1.0000
  C   C23       1.0  0.7247283502575341  0.024574234726828514  0.17902544820974664  1.0000
  C   C24       1.0  0.7048738913366174  0.034899221851663276  0.048329522397368985  1.0000
  C   C25       1.0  0.7347273820891632  0.9535604410608978  0.9603313093695607  1.0000
  C   C26       1.0  0.7846459442201421  0.8616717850003458  0.004216942530753887  1.0000
  C   C27       1.0  0.8045554983717582  0.8510897447282663  0.1348824358987335  1.0000
  N   N3        1.0  0.7143895394003584  0.9642534969082379  0.8266546683755505  1.0000
  H   H11       1.0  0.8335431625023553  0.3480260575861729  0.6104889877313553  1.0000
  H   H12       1.0  0.79912496940222  0.12871491403268442  0.3779041248986148  1.0000
  H   H13       1.0  0.7975244338706018  0.7115288995039466  0.37878902189247743  1.0000
  H   H14       1.0  0.8513030247855726  0.8922662843681644  0.7265724018022703  1.0000
  H   H15       1.0  0.833726482010867  0.45508625984296397  0.6103878353540977  1.0000
  H   H16       1.0  0.7002654886263504  0.08745777714085334  0.24543658742421326  1.0000
  H   H17       1.0  0.6660953605244396  0.1060868708543592  0.015737318505624875  1.0000
  H   H18       1.0  0.8082581761293824  0.7984581949922527  0.9371235381180791  1.0000
  H   H19       1.0  0.8438612220143783  0.7804021817474773  0.16603061564642196  1.0000
  H   H20       1.0  0.7363509842643011  0.9040319802207343  0.7603279037201451  1.0000
  H   H21       1.0  0.6772208002730618  0.03247106312642689  0.7930258619321346  1.0000
  C   C28       1.0  0.826005680278667  0.40543545468553943  0.179025787259379  1.0000
  C   C29       1.0  0.8949655238417609  0.3632697922107202  0.180670277612063  1.0000
  C   C30       1.0  0.9299080125432687  0.3420228011221125  0.0643326870672889  1.0000
  C   C31       1.0  0.895006169644954  0.36352465747780793  0.9453692410156993  1.0000
  C   C32       1.0  0.8260452524343218  0.40567863497772816  0.9418204113915936  1.0000
  C   C33       1.0  0.7919854029782865  0.4263596651474455  0.05914242361284594  1.0000
  C   C34       1.0  0.0028149907859511547  0.297455827941276  0.0670057419518928  1.0000
  C   C35       1.0  0.05031490373089209  0.35117841566068164  0.9750650355908852  1.0000
  C   C36       1.0  0.11893016125032152  0.3093370392142669  0.9776022155513195  1.0000
  C   C37       1.0  0.14129388177792768  0.21152783255556207  0.07089681479961807  1.0000
  C   C38       1.0  0.09419239246527611  0.15961692442075281  0.16441137968440422  1.0000
  C   C39       1.0  0.025581617478921848  0.20149127295207525  0.16198508056113137  1.0000
  C   C40       1.0  0.21585745938537992  0.16986343155168182  0.07656516468042285  1.0000
  F   F1        1.0  0.25114280912732734  0.24852581129410378  0.1557499640630018  1.0000
  F   F2        1.0  0.2451502628174611  0.18049525887090545  0.9534638732997558  1.0000
  F   F3        1.0  0.22220607832018935  0.041625195776530344  0.12640998637134038  1.0000
  H   H22       1.0  0.6958284493049928  0.4859289750654283  0.3831790787288474  1.0000
  H   H23       1.0  0.9218976097004741  0.34861257314303806  0.27252704738052946  1.0000
  H   H24       1.0  0.9214176444355667  0.34565508520703636  0.8555209356734963  1.0000
  H   H25       1.0  0.7388364626992667  0.45885232996439806  0.05714186057827342  1.0000
  H   H26       1.0  0.6956079769612922  0.4845934278490762  0.7278467562398787  1.0000
  H   H27       1.0  0.03465416366142504  0.4272319603432857  0.9024589590627401  1.0000
  H   H28       1.0  0.15459544600229957  0.35390417305234245  0.9068169336759957  1.0000
  H   H29       1.0  0.11040347683157137  0.08644474056603779  0.2394555096254014  1.0000
  H   H30       1.0  0.9901642131580087  0.1578735835995433  0.23378789741839956  1.0000
  Zn  Zn1       1.0  0.7506616770014174  0.4069512601878085  0.5610503851676889  1.0000
  Zn  Zn2       1.0  0.9013826735853652  0.4041623058223627  0.5597952618259527  1.0000
  C   C41       1.0  0.8260353943694732  0.4004590226656901  0.7976363669935507  1.0000
  C   C42       1.0  0.8260106023603035  0.41065615154277824  0.32320939362190027  1.0000
  C   C43       1.0  0.8260604214646475  0.6427466154340684  0.5552261114760537  1.0000
  C   C44       1.0  0.8259855235831945  0.1683669994518795  0.5656197189526073  1.0000
  O   O1        1.0  0.8832100860444977  0.41134420573429087  0.37112241679611735  1.0000
  O   O2        1.0  0.8832296594665241  0.397653236805094  0.7487703604592875  1.0000
  O   O3        1.0  0.8832490981783105  0.5933035468085306  0.5530223703350015  1.0000
  O   O4        1.0  0.8831905958983107  0.21569390594167692  0.566870309965934  1.0000
  O   O5        1.0  0.7688537032547929  0.5954196610216391  0.5539753374491876  1.0000
  O   O6        1.0  0.7688342647912619  0.3997709112938679  0.7497232581817435  1.0000
  O   O7        1.0  0.7688146913265687  0.4134618344686636  0.3720737530053546  1.0000
  O   O8        1.0  0.768795201181103  0.21781152541837168  0.567821743551121  1.0000
