data_image0
_chemical_formula_structural       NC8NC6H8C12OCH12C12IH9Zn2C4O8
_chemical_formula_sum              "N2 C43 H29 O9 I1 Zn2"
_cell_length_a       17.457602349358154
_cell_length_b       10.29979075500242
_cell_length_c       10.29977335064465
_cell_angle_alpha    85.53982299009832
_cell_angle_beta     92.8856157993103
_cell_angle_gamma    91.67079993281202

_space_group_name_H-M_alt    "P 1"
_space_group_IT_number       1

loop_
  _space_group_symop_operation_xyz
  'x, y, z'

loop_
  _atom_site_type_symbol
  _atom_site_label
  _atom_site_symmetry_multiplicity
  _atom_site_fract_x
  _atom_site_fract_y
  _atom_site_fract_z
  _atom_site_occupancy
  N   N1        1.0  0.7220304700526283  0.4531870864212131  0.6263441821119653  1.0000
  C   C1        1.0  0.6609598217572665  0.40726557759792836  0.6157330484036692  1.0000
  C   C2        1.0  0.5849853521273779  0.3501449322707124  0.6025423395384435  1.0000
  C   C3        1.0  0.5264566507107852  0.3902854281788908  0.6774366354897925  1.0000
  C   C4        1.0  0.4519199398084199  0.3352828401029413  0.6648601541485171  1.0000
  C   C5        1.0  0.3898003609006392  0.37766522601036456  0.7441760671143498  1.0000
  C   C6        1.0  0.3152450056484319  0.39614871260503337  0.6884101333215689  1.0000
  C   C7        1.0  0.2567163450056966  0.4361052563440364  0.7634124027882261  1.0000
  C   C8        1.0  0.18072251224481772  0.4551951974695443  0.705430924791361  1.0000
  N   N2        1.0  0.11963638838036521  0.47053713050354773  0.6588139681830201  1.0000
  C   C9        1.0  0.2722508817589804  0.4578213104460498  0.894689103698203  1.0000
  C   C10       1.0  0.34602149987176695  0.4397266969356304  0.950842599591329  1.0000
  C   C11       1.0  0.4045385669730276  0.39995007808499117  0.8762980374441609  1.0000
  C   C12       1.0  0.4372005611043928  0.23946274379285737  0.5759565125863304  1.0000
  C   C13       1.0  0.4957175323803312  0.19960081271685115  0.5014621953277694  1.0000
  C   C14       1.0  0.5694695100911576  0.2547156226443468  0.514588620279838  1.0000
  H   H1        1.0  0.5387934905037138  0.4654600938772968  0.7440603048850556  1.0000
  H   H2        1.0  0.3028929187687803  0.3812068619157105  0.5863862006435918  1.0000
  H   H3        1.0  0.2273899732676065  0.48868731238503416  0.9535223505599519  1.0000
  H   H4        1.0  0.3578595582643879  0.4562262848300984  0.052493108983503234  1.0000
  H   H5        1.0  0.46103131732662517  0.3849457892173709  0.9224064657121074  1.0000
  H   H6        1.0  0.3807230807510754  0.19413090313361447  0.5653092013881  1.0000
  H   H7        1.0  0.48389418550129354  0.12554292064232042  0.4336400790886943  1.0000
  H   H8        1.0  0.614330668798068  0.22297979629187403  0.4562665921614075  1.0000
  C   C15       1.0  0.9209060453505944  0.08049749359209879  0.6426239564811895  1.0000
  C   C16       1.0  0.8987104121949979  0.0683241425558836  0.7722497388384975  1.0000
  C   C17       1.0  0.8874028305769981  0.9450168806757105  0.8378939851148914  1.0000
  C   C18       1.0  0.8985725720551787  0.8330358539019732  0.7721726971385212  1.0000
  C   C19       1.0  0.9207681710642471  0.8432169889544875  0.6425459794759485  1.0000
  C   C20       1.0  0.931812410797884  0.967383392605575  0.578498248016124  1.0000
  C   C21       1.0  0.8639257822296846  0.9331924718985737  0.9750324233591212  1.0000
  C   C22       1.0  0.8079512197777544  0.8398704478536654  0.015527011782362488  1.0000
  C   C23       1.0  0.7859243202114582  0.8290183559185151  0.1444675498943554  1.0000
  C   C24       1.0  0.819375823181413  0.9107975986623487  0.23454766434829444  1.0000
  C   C25       1.0  0.8755548111754801  0.004737076262228523  0.195941479707479  1.0000
  C   C26       1.0  0.8973438190146715  0.015217755166974767  0.066454813773421  1.0000
  O   O1        1.0  0.9110258126002965  0.08896008995142446  0.2827067640778369  1.0000
  C   C27       1.0  0.8945906523329737  0.08918002747893228  0.416701005853515  1.0000
  H   H9        1.0  0.9293971099576284  0.41258899896777335  0.593255003025263  1.0000
  H   H10       1.0  0.8891477955533772  0.15491810078616153  0.8218976930237258  1.0000
  H   H11       1.0  0.8909292481699224  0.7377868167523446  0.8229165021249116  1.0000
  H   H12       1.0  0.9489359944649459  0.9760062479001893  0.47849748181123797  1.0000
  H   H13       1.0  0.9291875314372  0.5196433410020387  0.5931335352436882  1.0000
  H   H14       1.0  0.7805038428104984  0.7764635841729042  0.9470759019662025  1.0000
  H   H15       1.0  0.7425978325914168  0.7571476091181601  0.17460823854801721  1.0000
  H   H16       1.0  0.8012039418533593  0.9002249606107179  0.33373049156633405  1.0000
  H   H17       1.0  0.9412894762229749  0.08668885636782697  0.037877549312317016  1.0000
  H   H18       1.0  0.9078483754018492  0.9932143135232686  0.46840636149784676  1.0000
  H   H19       1.0  0.9307983719625802  0.1653863459789089  0.4618722485218978  1.0000
  H   H20       1.0  0.8333463348332628  0.11141388909431393  0.42613511340008736  1.0000
  C   C28       1.0  0.9208005009628407  0.4619617357466057  0.2612127968966329  1.0000
  C   C29       1.0  0.9903346116731887  0.5339992533469018  0.26054793121812536  1.0000
  C   C30       1.0  0.025604999183334476  0.5703950107689966  0.14308402596991243  1.0000
  C   C31       1.0  0.9904084489503224  0.5337883194202173  0.0252843663603306  1.0000
  C   C32       1.0  0.9208736953562483  0.4617527787074618  0.02395722116178356  1.0000
  C   C33       1.0  0.8864593846235352  0.42624181217644996  0.14242140117854163  1.0000
  C   C34       1.0  0.09916598660883458  0.6466023606202862  0.14343464701076591  1.0000
  C   C35       1.0  0.11121604258521778  0.7501469925126973  0.2242203101977398  1.0000
  C   C36       1.0  0.18049181650492296  0.821761968841733  0.2243517714492178  1.0000
  C   C37       1.0  0.23848747415804694  0.7909331639629875  0.14410145195937418  1.0000
  C   C38       1.0  0.2271773153876322  0.6883070133432365  0.0635188743015127  1.0000
  C   C39       1.0  0.15797941232616552  0.6164694637198009  0.06298785034334764  1.0000
  I   I1        1.0  0.34293027716722513  0.8991291662079657  0.14460328742452022  1.0000
  H   H21       1.0  0.8942825365307273  0.434576201637785  0.5889128022799501  1.0000
  H   H22       1.0  0.017764546192740927  0.5604431065289857  0.3517626081729994  1.0000
  H   H23       1.0  0.01682521062037967  0.5631286783751479  0.9343263795355021  1.0000
  H   H24       1.0  0.8328165529553957  0.370669264127125  0.14216592004417605  1.0000
  H   H25       1.0  0.8943897264958246  0.4342687383429893  0.6960017433903221  1.0000
  H   H26       1.0  0.06672380270015288  0.7767833527420953  0.28597513237471617  1.0000
  H   H27       1.0  0.18896830626151684  0.9014085755125971  0.2866229242966314  1.0000
  H   H28       1.0  0.2720459487882745  0.663923299656197  0.0015034534663482813  1.0000
  H   H29       1.0  0.15083626150607987  0.5363401537564658  0.0009865395142869549  1.0000
  Zn  Zn1       1.0  0.8367709507029321  0.45819044964302513  0.6357217598749267  1.0000
  Zn  Zn2       1.0  0.004895896425495039  0.4655231166651268  0.6494470241268762  1.0000
  C   C40       1.0  0.9208590800053157  0.4566185765584734  0.8797825510042061  1.0000
  C   C41       1.0  0.9208096027582673  0.46709670838895634  0.40538651017717586  1.0000
  C   C42       1.0  0.9207897676034636  0.6990480375171249  0.6373852165616898  1.0000
  C   C43       1.0  0.9208788580795663  0.22466568462365566  0.6477839093348687  1.0000
  O   O2        1.0  0.9846151991394928  0.4715970953570616  0.45898119222996026  1.0000
  O   O3        1.0  0.9846564274223337  0.4576825345843847  0.8366046531885094  1.0000
  O   O4        1.0  0.9845995968220764  0.6534473523652851  0.640867020270518  1.0000
  O   O5        1.0  0.9846719723590709  0.275832284390817  0.6547187230879945  1.0000
  O   O6        1.0  0.8569948173965625  0.6478812794164714  0.630450056223218  1.0000
  O   O7        1.0  0.8570516477045791  0.45211802194135653  0.8261876197354427  1.0000
  O   O8        1.0  0.8570104193311173  0.4660325378885497  0.4485625973715732  1.0000
  O   O9        1.0  0.8570671925585807  0.27026771760678603  0.6443002255989749  1.0000
