data_image0
_chemical_formula_structural       NC12NC2H8C12SCH12C12OCH12Zn2C4O8
_chemical_formula_sum              "N2 C44 H32 S1 O9 Zn2"
_cell_length_a       17.80743265337812
_cell_length_b       10.299776766347529
_cell_length_c       10.299794127170987
_cell_angle_alpha    85.57877721711455
_cell_angle_beta     91.52773436804358
_cell_angle_gamma    89.41689066054833

_space_group_name_H-M_alt    "P 1"
_space_group_IT_number       1

loop_
  _space_group_symop_operation_xyz
  'x, y, z'

loop_
  _atom_site_type_symbol
  _atom_site_label
  _atom_site_symmetry_multiplicity
  _atom_site_fract_x
  _atom_site_fract_y
  _atom_site_fract_z
  _atom_site_occupancy
  N   N1        1.0  0.7072433691207392  0.40621917839515054  0.6014691395569796  1.0000
  C   C1        1.0  0.6564221298807826  0.43575537642376605  0.5327758330919918  1.0000
  C   C2        1.0  0.5931954933688889  0.4724962640036754  0.44733000721974814  1.0000
  C   C3        1.0  0.6049196302217186  0.5264752926378162  0.3207202503083231  1.0000
  C   C4        1.0  0.5436004852873431  0.5617133810290909  0.23767020137026762  1.0000
  C   C5        1.0  0.47040289052620543  0.5432356882740437  0.2805700586849995  1.0000
  C   C6        1.0  0.4577019747606687  0.4891380102912357  0.40764792392928073  1.0000
  C   C7        1.0  0.5198784361616422  0.45390317038739103  0.49068146235301424  1.0000
  C   C8        1.0  0.3799362114050894  0.46954713121116165  0.4534078524520899  1.0000
  C   C9        1.0  0.36113796053763403  0.49677497005247817  0.5804450051485266  1.0000
  C   C10       1.0  0.2879104096705031  0.4783388636783239  0.6233854242295835  1.0000
  C   C11       1.0  0.2325381407210879  0.4324209228446052  0.5401265963580082  1.0000
  C   C12       1.0  0.1571740097087399  0.4134324532898681  0.5844678335011024  1.0000
  N   N2        1.0  0.09658658536215971  0.3981670008102902  0.6201151377822127  1.0000
  C   C13       1.0  0.2506448997225266  0.40502435054399677  0.41363237241193707  1.0000
  C   C14       1.0  0.3238196070551048  0.42347515833302674  0.37043608325420063  1.0000
  H   H1        1.0  0.661384434851331  0.5412876747607589  0.2862859847016095  1.0000
  H   H2        1.0  0.5527960851157933  0.6037781182098492  0.13989888198344258  1.0000
  H   H3        1.0  0.4237616146168927  0.5728495148781856  0.21498450134451197  1.0000
  H   H4        1.0  0.5113814915304085  0.41045309118844586  0.5883282963699921  1.0000
  H   H5        1.0  0.40280359496557894  0.5339755738690333  0.6460151897435016  1.0000
  H   H6        1.0  0.2744573946204806  0.5002164847655077  0.721388775742088  1.0000
  H   H7        1.0  0.2082621206508755  0.3690911575922158  0.3484751595156801  1.0000
  H   H8        1.0  0.3367445047888406  0.40006209781993785  0.27273599483543554  1.0000
  C   C15       1.0  0.901989408915633  0.02082642359628939  0.6107940890597232  1.0000
  C   C16       1.0  0.9064947430666026  0.009211322560262358  0.7475166835546068  1.0000
  C   C17       1.0  0.9087053006717948  0.8861887348790165  0.8167970047603836  1.0000
  C   C18       1.0  0.906351089792082  0.7739265215566041  0.7475249934278658  1.0000
  C   C19       1.0  0.9018477621356898  0.7835496333661716  0.6108017456822894  1.0000
  C   C20       1.0  0.8996917075619215  0.9074381431172857  0.5432016118018892  1.0000
  C   C21       1.0  0.9134631567105916  0.8749653459014808  0.9614336867066162  1.0000
  C   C22       1.0  0.8704619289133236  0.7824158521268849  0.03341318163294826  1.0000
  C   C23       1.0  0.8749621912147273  0.7720873179227865  0.1695309754680363  1.0000
  C   C24       1.0  0.9222762504340266  0.854034112764645  0.23546687697920632  1.0000
  C   C25       1.0  0.9654566676478551  0.9460065146072344  0.16486895735749063  1.0000
  C   C26       1.0  0.9610665663036483  0.9566826562545222  0.028746024754459087  1.0000
  S   S1        1.0  0.9281335511811007  0.840318931353858  0.4101287012364402  1.0000
  C   C27       1.0  0.8526399969356189  0.9579477638734424  0.42604095866489367  1.0000
  H   H9        1.0  0.9003022280191233  0.352705175047036  0.5586979896629201  1.0000
  H   H10       1.0  0.9072591120865418  0.09604205031287494  0.8005088807819221  1.0000
  H   H11       1.0  0.9090743190036038  0.6788718724855544  0.8004148758142244  1.0000
  H   H12       1.0  0.896216547479676  0.9156302007873152  0.4377259681715058  1.0000
  H   H13       1.0  0.9000942826471658  0.45976348317103977  0.558707136715376  1.0000
  H   H14       1.0  0.8326467125289534  0.7192200938044632  0.9844904903973744  1.0000
  H   H15       1.0  0.8413701877882545  0.7007360365103171  0.22364084098483394  1.0000
  H   H16       1.0  0.002472212091326531  0.009275150852950942  0.21534220395963177  1.0000
  H   H17       1.0  0.9956066592416014  0.02764579177699411  0.9760945335917939  1.0000
  H   H18       1.0  0.8676825524885189  0.05395209490856545  0.3778862303116163  1.0000
  H   H19       1.0  0.843927781082308  0.9688380828678339  0.530897552814839  1.0000
  H   H20       1.0  0.7997788741277609  0.9234961999592579  0.3813894886922582  1.0000
  C   C28       1.0  0.9019439338591773  0.4020740325506782  0.22944768564995144  1.0000
  C   C29       1.0  0.8283367552513758  0.3544742514618753  0.22872829771235548  1.0000
  C   C30       1.0  0.7910187375313933  0.3304580813848863  0.11121592194741181  1.0000
  C   C31       1.0  0.8282856385612166  0.3547017726652908  0.9934209623364358  1.0000
  C   C32       1.0  0.9018932377206581  0.40230205247844286  0.9921481085892383  1.0000
  C   C33       1.0  0.9383109769245396  0.4257187447595645  0.11066145038988151  1.0000
  C   C34       1.0  0.7131486643663886  0.28009306988176075  0.11150965008065095  1.0000
  C   C35       1.0  0.6593579218666472  0.3298720352692637  0.01778616911023234  1.0000
  C   C36       1.0  0.586172163023718  0.2824561808469339  0.018331585444833598  1.0000
  C   C37       1.0  0.5657132579710309  0.18494657771000256  0.11203664270883928  1.0000
  C   C38       1.0  0.6187631043327054  0.13377835527095328  0.20658719736058595  1.0000
  C   C39       1.0  0.6920508664741998  0.18183163843285088  0.2055953024044075  1.0000
  O   O1        1.0  0.6010982486135303  0.035572007102646186  0.3025610079031986  1.0000
  C   C40       1.0  0.5290975550499507  0.9777882418744644  0.31514892572255127  1.0000
  H   H21       1.0  0.9300014290958618  0.42015307343435926  0.5571798396336347  1.0000
  H   H22       1.0  0.7994779001269638  0.33764247142564985  0.31962291933056286  1.0000
  H   H23       1.0  0.8001276114776943  0.3346899227219402  0.9027405355069624  1.0000
  H   H24       1.0  0.995096137551198  0.46243912814725374  0.11044805172571137  1.0000
  H   H25       1.0  0.9299257520426878  0.42050140340708553  0.6642049990609245  1.0000
  H   H26       1.0  0.6736310103401683  0.406642017766103  0.9451524689690993  1.0000
  H   H27       1.0  0.5450901397314141  0.3217007400324956  0.9460269849527725  1.0000
  H   H28       1.0  0.5086462628346629  0.1500930334138273  0.11013143339375664  1.0000
  H   H29       1.0  0.7328020540480641  0.14084392297724602  0.2777102595919114  1.0000
  H   H30       1.0  0.5136221731852442  0.92965313932908  0.22554635033726478  1.0000
  H   H31       1.0  0.531041825411008  0.903273109102387  0.3989125218444831  1.0000
  H   H32       1.0  0.4862953125024319  0.05293088876746421  0.3333775572871207  1.0000
  Zn  Zn1       1.0  0.8195994145364711  0.4038920288597363  0.6068574583997237  1.0000
  Zn  Zn2       1.0  0.9842305387157422  0.4004835601173262  0.6147374113652195  1.0000
  C   C41       1.0  0.9019020837682371  0.39708532300722843  0.8479812787413563  1.0000
  C   C42       1.0  0.9019296669378944  0.407291867397203  0.3736138045490298  1.0000
  C   C43       1.0  0.9018709935377628  0.6393772505498627  0.6056251762092804  1.0000
  C   C44       1.0  0.9019607012764842  0.16499838074522755  0.6159699736118491  1.0000
  O   O2        1.0  0.9644015335248735  0.40774385860581464  0.4249876720523049  1.0000
  O   O3        1.0  0.9643814313352517  0.3940454030614182  0.8025877393716787  1.0000
  O   O4        1.0  0.9643554832759801  0.5896992165923418  0.6068834315682867  1.0000
  O   O5        1.0  0.9644274254114443  0.2120900554990286  0.6206918797970011  1.0000
  O   O6        1.0  0.8394024716602464  0.5922855346425893  0.6009029872720704  1.0000
  O   O7        1.0  0.8394284194308799  0.3966332813855613  0.7966072258488468  1.0000
  O   O8        1.0  0.8394485217827055  0.4103316912064936  0.41900559720726527  1.0000
  O   O9        1.0  0.8394744136614545  0.21467787884012512  0.614709902314786  1.0000
