data_image0
_chemical_formula_structural       NC11NC3H8C12OCH12C12ClH9Zn2C4O8
_chemical_formula_sum              "N2 C43 H29 O9 Cl1 Zn2"
_cell_length_a       17.807433833752565
_cell_length_b       10.29979075500242
_cell_length_c       10.299771906710086
_cell_angle_alpha    85.53978707277841
_cell_angle_beta     88.53397753802528
_cell_angle_gamma    90.66694566819858

_space_group_name_H-M_alt    "P 1"
_space_group_IT_number       1

loop_
  _space_group_symop_operation_xyz
  'x, y, z'

loop_
  _atom_site_type_symbol
  _atom_site_label
  _atom_site_symmetry_multiplicity
  _atom_site_fract_x
  _atom_site_fract_y
  _atom_site_fract_z
  _atom_site_occupancy
  N   N1        1.0  0.7070190160240497  0.43887087014041337  0.5345751144857536  1.0000
  C   C1        1.0  0.6562120204158419  0.4041259285746239  0.6011390658920908  1.0000
  C   C2        1.0  0.593002990939472  0.3609060860789204  0.6839361270524769  1.0000
  C   C3        1.0  0.6047530353116946  0.2973222835541791  0.8066574684522674  1.0000
  C   C4        1.0  0.5434508844733643  0.2557828362668546  0.8871705136444346  1.0000
  C   C5        1.0  0.4702444580565768  0.2775137473722078  0.845603027132062  1.0000
  C   C6        1.0  0.45751754921769344  0.34125222812332656  0.7224214832014404  1.0000
  C   C7        1.0  0.37974240375173723  0.36431402070776087  0.6780732871136821  1.0000
  C   C8        1.0  0.3609494780920871  0.3474780811545035  0.5484953456507944  1.0000
  C   C9        1.0  0.2877131118067809  0.36917027694871374  0.5068837905978567  1.0000
  C   C10       1.0  0.2323264630201861  0.4080171652333928  0.5940298903918813  1.0000
  C   C11       1.0  0.156953129394034  0.4303681988721111  0.5510570117994213  1.0000
  N   N2        1.0  0.0963583431918664  0.4483367694371916  0.5165099449708825  1.0000
  C   C12       1.0  0.25042773742796365  0.42506382766153594  0.7230766894129452  1.0000
  C   C13       1.0  0.32361137247207594  0.4033366310384674  0.7649436734701278  1.0000
  C   C14       1.0  0.5196770143101553  0.3827871059507535  0.6419248539691351  1.0000
  H   H1        1.0  0.6612250784518795  0.2798986892615458  0.8400238086018714  1.0000
  H   H2        1.0  0.5526667353139729  0.2063046737928811  0.9819089264191196  1.0000
  H   H3        1.0  0.4236173385062045  0.24294040189435018  0.9090437152436648  1.0000
  H   H4        1.0  0.4026268848910065  0.3158557546105383  0.4797816025829684  1.0000
  H   H5        1.0  0.27426456505036184  0.3553175867129652  0.4068511942450348  1.0000
  H   H6        1.0  0.2080337143814692  0.4554632849178035  0.791275749254382  1.0000
  H   H7        1.0  0.3365311962004182  0.4187347637542127  0.8647934162145514  1.0000
  H   H8        1.0  0.5111594223849841  0.433627540109927  0.5474206657086553  1.0000
  C   C15       1.0  0.901759785571795  0.06223777896961158  0.5255781575248144  1.0000
  C   C16       1.0  0.8800255996202567  0.05050446140443543  0.6580249911088891  1.0000
  C   C17       1.0  0.8689531026804327  0.9274213751483703  0.7251064239280958  1.0000
  C   C18       1.0  0.8798906253136587  0.8152189060204751  0.6579654686322225  1.0000
  C   C19       1.0  0.9016247778287512  0.8249600082796312  0.5255177040826629  1.0000
  C   C20       1.0  0.9124394077527983  0.9489074570822736  0.46006625668191314  1.0000
  C   C21       1.0  0.8459641421539825  0.9160624041712939  0.8652287804819807  1.0000
  C   C22       1.0  0.7911533352425435  0.8238502696849535  0.9128376449215903  1.0000
  C   C23       1.0  0.7695843748625071  0.8134348658492372  0.04457778838456472  1.0000
  C   C24       1.0  0.8023403768385882  0.894550744416109  0.13040629354315525  1.0000
  C   C25       1.0  0.8573513588072852  0.9873762777251929  0.08465985113102725  1.0000
  C   C26       1.0  0.8786873735292381  0.9974249860121377  0.9524038153573595  1.0000
  O   O1        1.0  0.8920848725513727  0.07089588485884946  0.16691685086717156  1.0000
  C   C27       1.0  0.8759913933651966  0.07144162913346985  0.3029999987923122  1.0000
  H   H9        1.0  0.9100743209150538  0.3941609469207288  0.4751299950596395  1.0000
  H   H10       1.0  0.8706617907358802  0.1372880046033167  0.7088883467299889  1.0000
  H   H11       1.0  0.8724062051820389  0.7201213956421828  0.7096807365485192  1.0000
  H   H12       1.0  0.9292069921220131  0.9571908334373193  0.3578890935994643  1.0000
  H   H13       1.0  0.9098690997406034  0.501219444747714  0.4750351643141846  1.0000
  H   H14       1.0  0.7642766247010065  0.7609877011623872  0.8478750348298763  1.0000
  H   H15       1.0  0.7271586794640866  0.7424232174808306  0.08022520304063108  1.0000
  H   H16       1.0  0.7845462899924678  0.8843383724327245  0.23189875426029516  1.0000
  H   H17       1.0  0.9217193651773022  0.06802471032747603  0.9182411298390634  1.0000
  H   H18       1.0  0.8889734683535157  0.9752129961348611  0.3530203313861433  1.0000
  H   H19       1.0  0.9114463147253824  0.1469299590572739  0.3435693130811095  1.0000
  H   H20       1.0  0.8160203991997108  0.09488989350761434  0.32021815282347466  1.0000
  C   C28       1.0  0.9016564946896163  0.44370435518076334  0.14418033759993576  1.0000
  C   C29       1.0  0.9697855126808756  0.514243623432997  0.1346854608476422  1.0000
  C   C30       1.0  0.004343693984541375  0.5498791757289732  0.012742301418070978  1.0000
  C   C31       1.0  0.9698580200355352  0.514030224344848  0.8994123390633022  1.0000
  C   C32       1.0  0.9017280356745055  0.44349349248462855  0.9069156044704223  1.0000
  C   C33       1.0  0.8680091437896793  0.408724741543929  0.029749874837744494  1.0000
  C   C34       1.0  0.07641901330919576  0.6245024559385337  0.003751237959673581  1.0000
  C   C35       1.0  0.08827414530422661  0.7277956979703468  0.08299426197212179  1.0000
  C   C36       1.0  0.15614699322039005  0.797933119782561  0.07434272992465196  1.0000
  C   C37       1.0  0.21293482262881946  0.7658430140347448  0.9867226520296102  1.0000
  C   C38       1.0  0.20179673670684783  0.6634266711841619  0.9075750773599038  1.0000
  C   C39       1.0  0.13399126151312224  0.5930905657803978  0.9158478696140127  1.0000
  Cl  Cl1       1.0  0.29804650497091023  0.8539624511098602  0.9761063710929481  1.0000
  H   H21       1.0  0.87567609693912  0.4168821850261015  0.47524821450098176  1.0000
  H   H22       1.0  0.9966595869397621  0.5400964891757565  0.22241711495069016  1.0000
  H   H23       1.0  0.9957419805963962  0.5428005926842576  0.8050993057413307  1.0000
  H   H24       1.0  0.8154502857150292  0.35430805191978654  0.03630655379310088  1.0000
  H   H25       1.0  0.8757817029951122  0.416570181305949  0.5823241571403117  1.0000
  H   H26       1.0  0.04471730843392985  0.7553898125367584  0.15038671787162894  1.0000
  H   H27       1.0  0.16443977095451445  0.8774086062762263  0.13558463610070337  1.0000
  H   H28       1.0  0.24569603073804114  0.6379880272606862  0.8398229687833161  1.0000
  H   H29       1.0  0.1269455091690177  0.5131051205385366  0.8547676841313523  1.0000
  Zn  Zn1       1.0  0.8193739367683498  0.44159904751998447  0.5293693815614644  1.0000
  Zn  Zn2       1.0  0.9840034105600954  0.4455979696165493  0.5217262647137455  1.0000
  C   C40       1.0  0.9017137599043691  0.43835964321600174  0.7627427677987835  1.0000
  C   C41       1.0  0.9016653848946729  0.44883905616097075  0.28835292235007226  1.0000
  C   C42       1.0  0.9016459261566049  0.6807906318701509  0.5203541952736812  1.0000
  C   C43       1.0  0.90173316274863  0.20640650583197706  0.5307415668452011  1.0000
  O   O2        1.0  0.9641443968620002  0.4520742131111839  0.3338380362624809  1.0000
  O   O3        1.0  0.9641847094166306  0.4381585959963654  0.7114563312814692  1.0000
  O   O4        1.0  0.9641290907273812  0.6339246644619532  0.5157258830221447  1.0000
  O   O5        1.0  0.9641999593635828  0.2563081525981128  0.5295683897548107  1.0000
  O   O6        1.0  0.839177331784902  0.6308888631752014  0.5215272591217883  1.0000
  O   O7        1.0  0.8392329501879976  0.43512435502123736  0.7172576380124756  1.0000
  O   O8        1.0  0.8391926375448725  0.4490399273133572  0.3396377815993781  1.0000
  O   O9        1.0  0.8392482000541613  0.2532738574845492  0.5353682324600921  1.0000
