data_image0
_chemical_formula_structural       NC9NC5H8C12ClH9C13NH13Zn2C4O8
_chemical_formula_sum              "N3 C43 H30 Cl1 Zn2 O8"
_cell_length_a       17.807436237873137
_cell_length_b       10.299768534541528
_cell_length_c       10.299780419254978
_cell_angle_alpha    85.5745780732884
_cell_angle_beta     89.37921623596309
_cell_angle_gamma    88.408414792471

_space_group_name_H-M_alt    "P 1"
_space_group_IT_number       1

loop_
  _space_group_symop_operation_xyz
  'x, y, z'

loop_
  _atom_site_type_symbol
  _atom_site_label
  _atom_site_symmetry_multiplicity
  _atom_site_fract_x
  _atom_site_fract_y
  _atom_site_fract_z
  _atom_site_occupancy
  N   N1        1.0  0.7078631888825321  0.38740702712797304  0.5572056506241183  1.0000
  C   C1        1.0  0.6472706130817955  0.3522155400779601  0.5461814883121732  1.0000
  C   C2        1.0  0.5719001084762887  0.30844120567323396  0.5324686273879045  1.0000
  C   C3        1.0  0.5538095856733611  0.23700418565914116  0.4274682091180615  1.0000
  C   C4        1.0  0.4806287054074262  0.19439116770650267  0.4140712774820796  1.0000
  C   C5        1.0  0.42448956374591434  0.22283764032026498  0.5056423068063538  1.0000
  C   C6        1.0  0.3467171630020034  0.1776659096797819  0.49148691143242584  1.0000
  C   C7        1.0  0.2845524896614293  0.2594262401269467  0.5174263807602135  1.0000
  C   C8        1.0  0.2112292650086194  0.21661019112291013  0.5040431260988072  1.0000
  C   C9        1.0  0.148014952425086  0.3010619016187319  0.530346533994382  1.0000
  N   N2        1.0  0.0972036324143487  0.36895523439415623  0.5514937473752766  1.0000
  C   C10       1.0  0.19948712437854  0.09177583115333277  0.46469504860152466  1.0000
  C   C11       1.0  0.2607944264562532  0.010001646814981058  0.4387471896225976  1.0000
  C   C12       1.0  0.3339981731765584  0.05242311747587891  0.4519279059408601  1.0000
  C   C13       1.0  0.4432715532478027  0.29476906576942463  0.6108619558817496  1.0000
  C   C14       1.0  0.516505290486299  0.3371916584409276  0.6241032388196504  1.0000
  H   H1        1.0  0.5962099950836899  0.21450344512779074  0.3557575808245874  1.0000
  H   H2        1.0  0.4677173620620442  0.1406915000929736  0.33115278289617645  1.0000
  H   H3        1.0  0.293064152495637  0.35689561650809987  0.5463041424756023  1.0000
  H   H4        1.0  0.1430172103233484  0.0577381006104174  0.4540999313290779  1.0000
  H   H5        1.0  0.2515847328799033  0.9133520864246887  0.40866907369689787  1.0000
  H   H6        1.0  0.3806293716846246  0.9866751517981016  0.4328790028876577  1.0000
  H   H7        1.0  0.401587749717242  0.31673105583957817  0.6838670271930825  1.0000
  H   H8        1.0  0.5299453502244069  0.3921116556007531  0.7059801652658066  1.0000
  C   C15       1.0  0.9024661431592523  0.9968189385378864  0.5543485857891302  1.0000
  C   C16       1.0  0.9074324230529921  0.006120100593313138  0.4178124040790818  1.0000
  C   C17       1.0  0.9100210989653601  0.8936902849539896  0.34863476394614135  1.0000
  C   C18       1.0  0.9075759046940874  0.770825586518377  0.41782578843440255  1.0000
  C   C19       1.0  0.9026078574863841  0.7595329791693528  0.5543619340248822  1.0000
  C   C20       1.0  0.9000813513119625  0.8730852613016731  0.6218587212408948  1.0000
  C   C21       1.0  0.9152760079650449  0.9045837594950523  0.20419085125510916  1.0000
  C   C22       1.0  0.8725469448495438  0.00013295147163683296  0.13035696704653033  1.0000
  C   C23       1.0  0.8775599502096311  0.010187234734578166  0.9944092539532918  1.0000
  C   C24       1.0  0.9252296975698049  0.9252175266108014  0.9306046977031466  1.0000
  C   C25       1.0  0.9679466526162639  0.8299808298466123  0.0029276010724834656  1.0000
  C   C26       1.0  0.9630670573304113  0.8195279758537873  0.13888799961955223  1.0000
  Cl  Cl1       1.0  0.931435551123125  0.9380821291164129  0.7600356559329917  1.0000
  H   H9        1.0  0.9005351997304066  0.3207303143403535  0.6063729047032669  1.0000
  H   H10       1.0  0.910335919274538  0.10098359308130966  0.3650393834854573  1.0000
  H   H11       1.0  0.9085188796499546  0.6839357916070614  0.36486798338920945  1.0000
  H   H12       1.0  0.8962493341452938  0.8651416902762764  0.7271901114460266  1.0000
  H   H13       1.0  0.9007447103313351  0.4277748047677635  0.6063930589873816  1.0000
  H   H14       1.0  0.8345561694101306  0.0659193365824613  0.1776558627321687  1.0000
  H   H15       1.0  0.8442121410595662  0.08386959010982675  0.9387890313594616  1.0000
  H   H16       1.0  0.005099829688891555  0.7641871642639328  0.9539515848695514  1.0000
  H   H17       1.0  0.9973683760637887  0.7460934210348767  0.19299998983417566  1.0000
  C   C27       1.0  0.9025881365366377  0.37808868359121517  0.1730003765605077  1.0000
  C   C28       1.0  0.9569985114973764  0.4745382807556868  0.16354258294796886  1.0000
  C   C29       1.0  0.9845107711193765  0.5235080840256265  0.041607175395903306  1.0000
  C   C30       1.0  0.9568953637824156  0.47471540021757064  0.9282439238155695  1.0000
  C   C31       1.0  0.9024858808391631  0.3782632414561884  0.9357101509381485  1.0000
  C   C32       1.0  0.8756348795545993  0.3304935117687722  0.05853830460275411  1.0000
  C   C33       1.0  0.04207480847491252  0.6255407808580782  0.03269318116735964  1.0000
  C   C34       1.0  0.03701575096890353  0.730357226793912  0.9369432251248124  1.0000
  C   C35       1.0  0.09122067180316895  0.8263040237761212  0.9286384867072557  1.0000
  C   C36       1.0  0.15110502379421398  0.819762902054993  0.016434343712988797  1.0000
  C   C37       1.0  0.15688421039108902  0.7146334927027593  0.11111695684832013  1.0000
  C   C38       1.0  0.10269481826394533  0.6186612610285755  0.11959423761999255  1.0000
  C   C39       1.0  0.21044858226499463  0.9211672639944268  0.0051104131422403665  1.0000
  N   N3        1.0  0.26803346506271675  0.8857865591621255  0.9113870660480035  1.0000
  H   H18       1.0  0.8818857587828266  0.3412885621305741  0.5040606087444586  1.0000
  H   H19       1.0  0.9773701765325574  0.5130783091868916  0.25111439974906613  1.0000
  H   H20       1.0  0.9786806509540957  0.5108375864185788  0.8341175763983397  1.0000
  H   H21       1.0  0.8336600029220271  0.2560859810218492  0.06506599395673351  1.0000
  H   H22       1.0  0.8817391231535054  0.34153421744897217  0.6111000257604151  1.0000
  H   H23       1.0  0.9906847047375114  0.7388993186654949  0.869321354330534  1.0000
  H   H24       1.0  0.08639680277562078  0.9059319855527364  0.8538716055913778  1.0000
  H   H25       1.0  0.203494340990527  0.7067304274653554  0.17820822215318644  1.0000
  H   H26       1.0  0.1088278545489978  0.5379541063770361  0.19287600425388596  1.0000
  H   H27       1.0  0.18450800185106386  0.01742225071545711  0.9722123710176427  1.0000
  H   H28       1.0  0.23635837172634644  0.9312495700219032  0.10158721426653927  1.0000
  H   H29       1.0  0.3059582097790119  0.9616799454539666  0.9008927498219754  1.0000
  H   H30       1.0  0.29815809370914126  0.8040562778748805  0.95171596003867  1.0000
  Zn  Zn1       1.0  0.8202184278254147  0.3820787748213472  0.5555648291860127  1.0000
  Zn  Zn2       1.0  0.9848483718757925  0.3742729031616847  0.5531452448472565  1.0000
  C   C40       1.0  0.9025025512135055  0.37305677027254225  0.7915416363467724  1.0000
  C   C41       1.0  0.9025660465289169  0.3832964610898093  0.3171685387552545  1.0000
  C   C42       1.0  0.9025778912435556  0.615362824415369  0.5491845231572015  1.0000
  C   C43       1.0  0.9024906500230014  0.14098884935200307  0.5595257219791478  1.0000
  O   O1        1.0  0.9650348376588513  0.3820762855385835  0.3646344712339551  1.0000
  O   O2        1.0  0.9649840782083132  0.36835149005925927  0.7422389214908196  1.0000
  O   O3        1.0  0.965044073845165  0.5640167334000505  0.5465338502753887  1.0000
  O   O4        1.0  0.9649747858597352  0.18641105412917258  0.5603394459040987  1.0000
  O   O5        1.0  0.840091957661353  0.569940626519033  0.548370628948025  1.0000
  O   O6        1.0  0.8400319623202473  0.3742769434383937  0.7440756309479888  1.0000
  O   O7        1.0  0.8400827220217207  0.38800169330278766  0.3664696193462631  1.0000
  O   O8        1.0  0.84002267020475  0.19233645262716936  0.562174691380549  1.0000
