data_image0
_chemical_formula_structural       NC12NC2H8C16H10C12IH9Zn2C4O8
_chemical_formula_sum              "N2 C46 H27 I1 Zn2 O8"
_cell_length_a       17.80743265337812
_cell_length_b       10.29914801576943
_cell_length_c       10.29977335064465
_cell_angle_alpha    85.52085607386434
_cell_angle_beta     91.54321816322954
_cell_angle_gamma    89.44985071264975

_space_group_name_H-M_alt    "P 1"
_space_group_IT_number       1

loop_
  _space_group_symop_operation_xyz
  'x, y, z'

loop_
  _atom_site_type_symbol
  _atom_site_label
  _atom_site_symmetry_multiplicity
  _atom_site_fract_x
  _atom_site_fract_y
  _atom_site_fract_z
  _atom_site_occupancy
  N   N1        1.0  0.7074776013168611  0.40715336022723725  0.600798564435945  1.0000
  C   C1        1.0  0.656654979682213  0.4367319489767445  0.5320890303807047  1.0000
  C   C2        1.0  0.5934266241588761  0.4735255654163921  0.4466230187631306  1.0000
  C   C3        1.0  0.6051480632710597  0.5275826844543197  0.3199835467791776  1.0000
  C   C4        1.0  0.5438270934542332  0.5628719814866701  0.23691407784107876  1.0000
  C   C5        1.0  0.470630351599644  0.5443678123541442  0.27982408300195516  1.0000
  C   C6        1.0  0.4579321699286836  0.4901917624007499  0.40693173897905344  1.0000
  C   C7        1.0  0.5201104546246466  0.45490572370412297  0.4899846951300024  1.0000
  C   C8        1.0  0.38016735503352944  0.4705726522933402  0.4527024417224321  1.0000
  C   C9        1.0  0.3613983420633513  0.4977293313601401  0.5797350097013312  1.0000
  C   C10       1.0  0.2881716641604793  0.4792667287953596  0.6226855612621343  1.0000
  C   C11       1.0  0.2327710817852563  0.4333929438673614  0.5394416036076806  1.0000
  C   C12       1.0  0.1574078682098365  0.41437711809069233  0.5837932830375365  1.0000
  N   N2        1.0  0.096821181409902  0.3990896730880218  0.6194489822112015  1.0000
  C   C13       1.0  0.2508486349096631  0.4060672020192775  0.4129520652857783  1.0000
  C   C14       1.0  0.3240224330580416  0.42454465547141873  0.3697456234897656  1.0000
  H   H1        1.0  0.6616121770956466  0.542416316587885  0.2855411438857043  1.0000
  H   H2        1.0  0.5530207341303907  0.6049970557458257  0.13911965078481292  1.0000
  H   H3        1.0  0.4239882167281551  0.5740222368602723  0.2142224346313797  1.0000
  H   H4        1.0  0.5116149976014948  0.4113952570608239  0.5876552155638985  1.0000
  H   H5        1.0  0.4030866130230308  0.5348952521158126  0.6452930445464784  1.0000
  H   H6        1.0  0.27474148925543473  0.5010895305028826  0.7206850070642876  1.0000
  H   H7        1.0  0.2084436986477209  0.37016856500915307  0.3478064889592938  1.0000
  H   H8        1.0  0.3369240387360397  0.40118610299762314  0.27205010628143333  1.0000
  C   C15       1.0  0.9020995062117693  0.021721139315921567  0.6102869131394617  1.0000
  C   C16       1.0  0.8849336492113054  0.03171386754802574  0.4759907643401098  1.0000
  C   C17       1.0  0.8762853870390825  0.9196495366250198  0.407737806314741  1.0000
  C   C18       1.0  0.8850338977055366  0.7964600926113647  0.47559097648939863  1.0000
  C   C19       1.0  0.9022064591649184  0.7845117589919847  0.6099721992699132  1.0000
  C   C20       1.0  0.9106348713787275  0.8976608591890057  0.6764928017038914  1.0000
  C   C21       1.0  0.8581261659804428  0.9312662397855692  0.26566868592499193  1.0000
  C   C22       1.0  0.8936620666005518  0.849569676245398  0.18215330991196366  1.0000
  C   C23       1.0  0.8765449877521755  0.8606286369124685  0.04844206938539175  1.0000
  C   C24       1.0  0.8237162061781992  0.9532886303475329  0.9964335298493312  1.0000
  C   C25       1.0  0.7880431988685307  0.03496871830458037  0.07865839835685118  1.0000
  C   C26       1.0  0.8051067157120892  0.024152126632390747  0.21238801971125998  1.0000
  C   C27       1.0  0.8061218804112196  0.964549565724479  0.8587666860675727  1.0000
  C   C28       1.0  0.7913868222993049  0.9739804907472177  0.7434726928736435  1.0000
  C   C29       1.0  0.774132243240977  0.9850239773694102  0.6084646036536916  1.0000
  C   C30       1.0  0.7593996580332858  0.9944534686734099  0.4931892366650965  1.0000
  H   H9        1.0  0.90866359547278  0.3453529039118406  0.6619552079086919  1.0000
  H   H10       1.0  0.8792613727468974  0.1269016023054086  0.42380901259946047  1.0000
  H   H11       1.0  0.8774225502880472  0.7097392617318361  0.4238109202964211  1.0000
  H   H12       1.0  0.9238731402181026  0.8892373659471816  0.7800796188603316  1.0000
  H   H13       1.0  0.9341535471219947  0.5546629260746885  0.863765665186081  1.0000
  H   H14       1.0  0.935398633860503  0.7782902862147557  0.22000224298800264  1.0000
  H   H15       1.0  0.9046458467415716  0.7971421816907155  0.985613360214844  1.0000
  H   H16       1.0  0.7469040480533716  0.10680048120674357  0.039468191268998476  1.0000
  H   H17       1.0  0.776130010897572  0.08726714513967915  0.27437198735574797  1.0000
  H   H18       1.0  0.746463262092258  0.0027333573575860637  0.39196774707585913  1.0000
  C   C31       1.0  0.9021171851619333  0.4032232835957925  0.22875858753483458  1.0000
  C   C32       1.0  0.9702282567455569  0.47082204265536665  0.2256550988133137  1.0000
  C   C33       1.0  0.004776777997579362  0.5049662784491156  0.10695427549532699  1.0000
  C   C34       1.0  0.9703004917239184  0.47060637179899834  0.9903890354630165  1.0000
  C   C35       1.0  0.9021887912519301  0.4030096308817541  0.9915005350168138  1.0000
  C   C36       1.0  0.8684788262076893  0.3696955375477844  0.111171610397514  1.0000
  C   C37       1.0  0.0768323142588363  0.5764778111058149  0.10472504798953697  1.0000
  C   C38       1.0  0.08866465295450832  0.6792606565470154  0.18505926053304234  1.0000
  C   C39       1.0  0.156522625550511  0.7464533527932622  0.18276120790970185  1.0000
  C   C40       1.0  0.213302538278346  0.7119149294064284  0.1005057266797249  1.0000
  C   C41       1.0  0.20219500275017532  0.6100033457927982  0.020348602682433325  1.0000
  C   C42       1.0  0.13441321114634364  0.542583080544067  0.022244457655887118  1.0000
  I   I1        1.0  0.3156078817251988  0.8134437517744977  0.09734466246751161  1.0000
  H   H19       1.0  0.876141947502413  0.3775305493921135  0.5573885738875415  1.0000
  H   H20       1.0  0.9970962021835861  0.49551472560794285  0.3159084087618309  1.0000
  H   H21       1.0  0.9961772512500694  0.498260559419313  0.8985039645164883  1.0000
  H   H22       1.0  0.8159338137544191  0.31754731726597885  0.11279743053562008  1.0000
  H   H23       1.0  0.8762468110055205  0.3772162093694398  0.6644738883189154  1.0000
  H   H24       1.0  0.0451060372962484  0.7087431501788504  0.24835142694268075  1.0000
  H   H25       1.0  0.1648481246689515  0.8255646446383433  0.2447126354943263  1.0000
  H   H26       1.0  0.24612289988990899  0.5827496234945073  0.9567820471286468  1.0000
  H   H27       1.0  0.1273931723183952  0.4629038185398926  0.9605167011651168  1.0000
  Zn  Zn1       1.0  0.8198337518027734  0.4048228846413626  0.6061881605379045  1.0000
  Zn  Zn2       1.0  0.984465027938936  0.4014095513753979  0.6140699835883654  1.0000
  C   C43       1.0  0.9021728508648299  0.39787594361995593  0.8473279989503268  1.0000
  C   C44       1.0  0.9021277268870526  0.4083580938420768  0.37293035803616004  1.0000
  C   C45       1.0  0.9021818962857573  0.6403296352230043  0.6048562804587687  1.0000
  C   C46       1.0  0.9021186250766691  0.16590284295334579  0.6154021437210644  1.0000
  O   O1        1.0  0.9646079753023374  0.40878037467429484  0.4243068343509526  1.0000
  O   O2        1.0  0.9646439315559799  0.3948620421195963  0.8019332705141116  1.0000
  O   O3        1.0  0.96465039375859  0.5906464814180516  0.6061356014251278  1.0000
  O   O4        1.0  0.9646014569143865  0.21299594585884152  0.6201044033713818  1.0000
  O   O5        1.0  0.8396972666467474  0.5932364913241377  0.600153738058377  1.0000
  O   O6        1.0  0.8396908046530183  0.39745361247758404  0.7959513372575036  1.0000
  O   O7        1.0  0.8396548482964172  0.41137190020893044  0.4183233397063717  1.0000
  O   O8        1.0  0.839648329913232  0.21558746207669421  0.6141210060988447  1.0000
