data_image0
_chemical_formula_structural       NC10NC5H10C12OCH12C13NH9Zn2C4O8
_chemical_formula_sum              "N3 C45 H31 O9 Zn2"
_cell_length_a       19.4436361288709
_cell_length_b       10.29979075500242
_cell_length_c       10.298528502251457
_cell_angle_alpha    85.53676387981383
_cell_angle_beta     89.70161212865115
_cell_angle_gamma    89.4004616021446

_space_group_name_H-M_alt    "P 1"
_space_group_IT_number       1

loop_
  _space_group_symop_operation_xyz
  'x, y, z'

loop_
  _atom_site_type_symbol
  _atom_site_label
  _atom_site_symmetry_multiplicity
  _atom_site_fract_x
  _atom_site_fract_y
  _atom_site_fract_z
  _atom_site_occupancy
  N   N1        1.0  0.6474515640365351  0.4097958263240764  0.561828544166745  1.0000
  C   C1        1.0  0.5886144821129549  0.4196902243798899  0.5762137904752775  1.0000
  C   C2        1.0  0.5152837701054248  0.4320298373529783  0.5942077002234567  1.0000
  C   C3        1.0  0.4731020880867319  0.4000821496089033  0.49952368173269224  1.0000
  C   C4        1.0  0.3971958586270521  0.41051762675769043  0.5048518418153487  1.0000
  C   C5        1.0  0.3574641209717411  0.38571434296715146  0.6119394085512508  1.0000
  C   C6        1.0  0.2813425090714627  0.38963766107300746  0.5989781447117688  1.0000
  C   C7        1.0  0.24077297503902353  0.4472500942932116  0.6927575211915973  1.0000
  C   C8        1.0  0.16910863656217642  0.45089329607379125  0.6822120610852758  1.0000
  C   C9        1.0  0.1370191514295911  0.3965279065834981  0.5781738105637921  1.0000
  C   C10       1.0  0.0632255531620023  0.4002324318310122  0.567473045053166  1.0000
  N   N2        1.0  0.0039005052780925  0.40321067566344904  0.5588703390278611  1.0000
  C   C11       1.0  0.1768639242902875  0.33820818759002136  0.4847777586681836  1.0000
  C   C12       1.0  0.2485446929156093  0.33451089263966294  0.4950714122067117  1.0000
  C   C13       1.0  0.3856077695832609  0.34518579529429205  0.7430531504935569  1.0000
  C   C14       1.0  0.44426565114371647  0.38828295305527516  0.7902992279182939  1.0000
  C   C15       1.0  0.48845444529836113  0.48617921753133087  0.7159166662926613  1.0000
  H   H1        1.0  0.4952031457771366  0.37101203837743535  0.40920696502343445  1.0000
  H   H2        1.0  0.3724907877562382  0.4330604909244402  0.41168027046329114  1.0000
  H   H3        1.0  0.26463872686302  0.4904988264954573  0.7736137232356  1.0000
  H   H4        1.0  0.1387585384857995  0.4961698560174259  0.7551396663840544  1.0000
  H   H5        1.0  0.1525262677341135  0.2951549383785417  0.40425607122730667  1.0000
  H   H6        1.0  0.2782295699674794  0.28699059387250947  0.42284035754699856  1.0000
  H   H7        1.0  0.3546549912800254  0.28093573647565306  0.8073119651701526  1.0000
  H   H8        1.0  0.45942429892440273  0.3541651047059453  0.8882481594006353  1.0000
  H   H9        1.0  0.4583295519184586  0.5769061042078618  0.69065632960093  1.0000
  H   H10       1.0  0.5317372353830033  0.51173235342809  0.7790082614465961  1.0000
  C   C16       1.0  0.8257411319460847  0.025134282392450524  0.5603878812025562  1.0000
  C   C17       1.0  0.8058283429615656  0.014290309676233681  0.692007919546016  1.0000
  C   C18       1.0  0.7956838019242582  0.8916603208021061  0.7586680914119126  1.0000
  C   C19       1.0  0.8057047782686497  0.7790103221315308  0.6919431515523111  1.0000
  C   C20       1.0  0.8256175367452916  0.7878620809675564  0.5603221808286978  1.0000
  C   C21       1.0  0.8355258143518104  0.9113669811180568  0.49528219216643476  1.0000
  C   C22       1.0  0.7746213894089151  0.8812420375349846  0.8979159231999916  1.0000
  C   C23       1.0  0.7244358346200876  0.7912872634003901  0.943403698138213  1.0000
  C   C24       1.0  0.7046743912949872  0.7817544282728359  0.07432336949686946  1.0000
  C   C25       1.0  0.734653514426206  0.8615154597292393  0.16143385102866403  1.0000
  C   C26       1.0  0.7850221253680232  0.952075285128471  0.117816500656729  1.0000
  C   C27       1.0  0.8045703603919971  0.9612510549592782  0.9863718320416215  1.0000
  O   O1        1.0  0.816812093054379  0.03415869631296542  0.20143177012914348  1.0000
  C   C28       1.0  0.8020630639949331  0.035361041698318996  0.33690748251877545  1.0000
  H   H11       1.0  0.8333588570771081  0.35671721527792255  0.5102560415997401  1.0000
  H   H12       1.0  0.7972499433552865  0.10145732704083121  0.7425142847130266  1.0000
  H   H13       1.0  0.7988468968271851  0.6842187578824059  0.7433744707540844  1.0000
  H   H14       1.0  0.8508882190720982  0.9189642416608266  0.3937428891143153  1.0000
  H   H15       1.0  0.8331709840893191  0.4637841789250068  0.5101532347831743  1.0000
  H   H16       1.0  0.6998369793168457  0.7295360865552203  0.877389897104504  1.0000
  H   H17       1.0  0.6658289550243405  0.7124901257153107  0.10832882703930313  1.0000
  H   H18       1.0  0.7183514051375601  0.8520315597047121  0.2622485294896595  1.0000
  H   H19       1.0  0.8439707059380166  0.03007836123926899  0.953874819272676  1.0000
  H   H20       1.0  0.8139428040954437  0.9385946338302993  0.38743790917242193  1.0000
  H   H21       1.0  0.8345181396810862  0.10938555045194764  0.37885781993642  1.0000
  H   H22       1.0  0.7471566554701455  0.06128095792579069  0.35180047047991825  1.0000
  C   C29       1.0  0.825689080304523  0.40662448984200816  0.17893808752328977  1.0000
  C   C30       1.0  0.7541823034180445  0.42780739762134234  0.1770396885919927  1.0000
  C   C31       1.0  0.7179563610917125  0.43840058494615186  0.05893121709814886  1.0000
  C   C32       1.0  0.7541618148589176  0.427542917766903  0.9417801781627277  1.0000
  C   C33       1.0  0.8256695687005086  0.40637187153742627  0.9417719910053535  1.0000
  C   C34       1.0  0.8609753153154885  0.3960454640315252  0.06082156813956585  1.0000
  C   C35       1.0  0.6423593163965626  0.46078945607231403  0.05793189982536595  1.0000
  C   C36       1.0  0.611977805940431  0.5492814384831441  0.13909239694542475  1.0000
  C   C37       1.0  0.5408183929398894  0.5703090396339079  0.13803226451981  1.0000
  C   C38       1.0  0.49909362163506993  0.5032215922133447  0.05603541595208461  1.0000
  C   C39       1.0  0.5287962610826022  0.41497848490266076  0.9749845393671555  1.0000
  C   C40       1.0  0.5999483475976425  0.39385665484598653  0.9758081306111097  1.0000
  C   C41       1.0  0.425834923389073  0.5249202241910107  0.05506466843187785  1.0000
  N   N3        1.0  0.3669398699215498  0.5423645841152411  0.05428428790059181  1.0000
  H   H23       1.0  0.9607520017503113  0.3657898071752437  0.3899131931815534  1.0000
  H   H24       1.0  0.7264043408391474  0.4343283774232507  0.2677853150101013  1.0000
  H   H25       1.0  0.7266420264077373  0.437398504669845  0.850303782550283  1.0000
  H   H26       1.0  0.9160869697158551  0.3797241003325851  0.061549821417235195  1.0000
  H   H27       1.0  0.9608593128477355  0.36717762201369863  0.7343679601602524  1.0000
  H   H28       1.0  0.643341831002979  0.6034700761135687  0.2021303425833907  1.0000
  H   H29       1.0  0.5183851486447821  0.6391135198255817  0.20091950237260803  1.0000
  H   H30       1.0  0.4969566228798442  0.3622487896388411  0.9113786853530401  1.0000
  H   H31       1.0  0.6217064715461652  0.3239344636356747  0.9134733744220052  1.0000
  Zn  Zn1       1.0  0.7503150303952967  0.4078920202334222  0.5609823834489822  1.0000
  Zn  Zn2       1.0  0.9010370318804382  0.4051038705341228  0.5597271831843516  1.0000
  C   C42       1.0  0.8256725588122363  0.4012459976980538  0.7975805315813178  1.0000
  C   C43       1.0  0.8256811490742342  0.41175150120031545  0.32312914868673204  1.0000
  C   C44       1.0  0.8256374739642655  0.6436920949147413  0.5551588433637253  1.0000
  C   C45       1.0  0.8257161827424295  0.1693038446095576  0.5655509067142974  1.0000
  O   O2        1.0  0.8828767022684492  0.41240841902638814  0.3710446445435882  1.0000
  O   O3        1.0  0.8828715174438739  0.3984719591649286  0.7487119939581575  1.0000
  O   O4        1.0  0.8828424148915979  0.5942502626331334  0.5529547718539634  1.0000
  O   O5        1.0  0.8829057533905013  0.21663012583205865  0.56680176968836  1.0000
  O   O6        1.0  0.7684462574512118  0.596365765888361  0.5539077973664799  1.0000
  O   O7        1.0  0.7684753597492414  0.40058902274710184  0.7496649500822081  1.0000
  O   O8        1.0  0.7684805446668407  0.4145254378688199  0.3719960390737318  1.0000
  O   O9        1.0  0.7685095957850947  0.21874713535349022  0.5677532615994318  1.0000
