data_image0
_chemical_formula_structural       NC11NC3H8C12ClH9C12SCH12Zn2C4O8
_chemical_formula_sum              "N2 C43 H29 Cl1 S1 Zn2 O8"
_cell_length_a       17.807433833752565
_cell_length_b       10.299768534541528
_cell_length_c       10.299780138516091
_cell_angle_alpha    85.57853540926422
_cell_angle_beta     88.51639907153644
_cell_angle_gamma    90.7030232555817

_space_group_name_H-M_alt    "P 1"
_space_group_IT_number       1

loop_
  _space_group_symop_operation_xyz
  'x, y, z'

loop_
  _atom_site_type_symbol
  _atom_site_label
  _atom_site_symmetry_multiplicity
  _atom_site_fract_x
  _atom_site_fract_y
  _atom_site_fract_z
  _atom_site_occupancy
  N   N1        1.0  0.707794339784345  0.4380446205774984  0.534759979035144  1.0000
  C   C1        1.0  0.6569632335734491  0.40333729075179714  0.6013183148503403  1.0000
  C   C2        1.0  0.5937242130148592  0.36016423245688345  0.684108390789399  1.0000
  C   C3        1.0  0.6054299776216696  0.29664977447415475  0.8068194220198166  1.0000
  C   C4        1.0  0.5440988401345278  0.2551558221041761  0.8873257190361841  1.0000
  C   C5        1.0  0.4709074823574887  0.2768632457279614  0.8457617423683454  1.0000
  C   C6        1.0  0.45822498894265856  0.34053212167473945  0.7225905396595507  1.0000
  C   C7        1.0  0.3804658755852499  0.36356885522768567  0.6782460770509093  1.0000
  C   C8        1.0  0.36168923697744265  0.346659474493217  0.5486713920193911  1.0000
  C   C9        1.0  0.288467932901787  0.3683281577417117  0.5070633449210236  1.0000
  C   C10       1.0  0.2330803166956534  0.4072245108720274  0.5942097554989023  1.0000
  C   C11       1.0  0.1577225196003201  0.42955126261671417  0.5512404950060474  1.0000
  N   N2        1.0  0.0971402236259301  0.44750031230613674  0.5166963368631978  1.0000
  C   C12       1.0  0.25116547230507175  0.42434431418502605  0.7232533368535818  1.0000
  C   C13       1.0  0.32433398829383553  0.4026407746972531  0.765116800341336  1.0000
  C   C14       1.0  0.5204134361888157  0.3820215138711902  0.6421006575815122  1.0000
  H   H1        1.0  0.6618899323309351  0.2792450337026571  0.8401829466126021  1.0000
  H   H2        1.0  0.5532803653904715  0.20573119118545313  0.9820561368821072  1.0000
  H   H3        1.0  0.4242568542679526  0.24232574333957468  0.9091969458426061  1.0000
  H   H4        1.0  0.40336704666684503  0.31499814283573135  0.4799573137697335  1.0000
  H   H5        1.0  0.2750316491423678  0.3544187695418328  0.40703318475779793  1.0000
  H   H6        1.0  0.2087706916431964  0.4547824817867836  0.7914526397766506  1.0000
  H   H7        1.0  0.3372421413434836  0.41809550589436517  0.8649642540701787  1.0000
  H   H8        1.0  0.5119306236236981  0.43280855275237307  0.547604579375365  1.0000
  C   C15       1.0  0.9024000148788821  0.06140543634819151  0.5257291332308236  1.0000
  C   C16       1.0  0.9073588621674152  0.0710529356883911  0.3890364724139801  1.0000
  C   C17       1.0  0.9099437733356098  0.9588037892414532  0.31977725175861105  1.0000
  C   C18       1.0  0.9075023466661902  0.8357687072981885  0.3890453046904172  1.0000
  C   C19       1.0  0.9025417320355719  0.8241296359810805  0.5257379854562376  1.0000
  C   C20       1.0  0.9000188991201707  0.9375055865030667  0.5933143941074126  1.0000
  C   C21       1.0  0.9151908192725646  0.9700637313563316  0.1751677655277999  1.0000
  C   C22       1.0  0.8724570652557576  0.06254489589874979  0.10269004855738295  1.0000
  C   C23       1.0  0.8774626710525807  0.07294890728875658  0.9665843693451839  1.0000
  C   C24       1.0  0.9251296157338805  0.9913916513295796  0.9012679874679672  1.0000
  C   C25       1.0  0.967851178436719  0.8992220073608421  0.9722351196451098  1.0000
  C   C26       1.0  0.9629789853844446  0.8884289889481412  0.1083492517595086  1.0000
  Cl  Cl1       1.0  0.931326184063815  0.004689039493373626  0.7305034093496592  1.0000
  H   H9        1.0  0.9004719029207138  0.3851820774130108  0.5778143012955692  1.0000
  H   H10       1.0  0.9102595001411502  0.1661208224427333  0.3361717542130054  1.0000
  H   H11       1.0  0.9084424242226038  0.7489427637741887  0.33605800128188834  1.0000
  H   H12       1.0  0.8961926158556374  0.9292947776692212  0.6987665248779373  1.0000
  H   H13       1.0  0.900681417727966  0.49224158694782355  0.577827808670254  1.0000
  H   H14       1.0  0.8344683282372705  0.12561144993605233  0.15119383342096682  1.0000
  H   H15       1.0  0.8441113110281836  0.14423696849296608  0.9120225488760219  1.0000
  H   H16       1.0  0.005002212502241532  0.8360880154749089  0.9220808004052108  1.0000
  H   H17       1.0  0.9972837861783536  0.8174569691623955  0.1613726015307968  1.0000
  C   C27       1.0  0.9025010455196186  0.4426569877490598  0.14438006114477164  1.0000
  C   C28       1.0  0.8310585950146496  0.3829109345853101  0.15118787236282105  1.0000
  C   C29       1.0  0.7948284371891962  0.35275067792764814  0.037491908049261946  1.0000
  C   C30       1.0  0.8309971313354597  0.38313487870463026  0.9158868320490701  1.0000
  C   C31       1.0  0.9024407014731469  0.44287813560389355  0.9070871305313388  1.0000
  C   C32       1.0  0.9377925614746604  0.47230542362546135  0.021875300353647154  1.0000
  C   C33       1.0  0.7192472883467502  0.2895593641841152  0.04575685863057877  1.0000
  C   C34       1.0  0.6636156032036322  0.3298688730435533  0.9573822595676313  1.0000
  C   C35       1.0  0.5924950883555749  0.2703635098625161  0.9653969749437552  1.0000
  C   C36       1.0  0.5759690477298235  0.17015329739113128  0.06172440431606763  1.0000
  C   C37       1.0  0.6309319672397505  0.1290286215395866  0.149724364074715  1.0000
  C   C38       1.0  0.7020989280262017  0.1883616845065481  0.14206989824176497  1.0000
  S   S1        1.0  0.48474244109591047  0.0936672831830554  0.07155673722551881  1.0000
  C   C39       1.0  0.44623730636629055  0.20694631140466435  0.18207445786760879  1.0000
  H   H18       1.0  0.9297348362634161  0.46537571342742434  0.4692424740295653  1.0000
  H   H19       1.0  0.802978320208998  0.36130685589146205  0.2450395780237069  1.0000
  H   H20       1.0  0.8037496324624825  0.35847196956247696  0.8280782827988831  1.0000
  H   H21       1.0  0.9929075454571172  0.5183961810923439  0.0158549836087698  1.0000
  H   H22       1.0  0.9296473412949278  0.4657010492611713  0.5762769712560263  1.0000
  H   H23       1.0  0.6748014913812265  0.40850760386001594  0.8831866254726064  1.0000
  H   H24       1.0  0.5501716045090081  0.30266859756867803  0.8970299441874334  1.0000
  H   H25       1.0  0.6185979666300048  0.051057975709183356  0.22409814349925705  1.0000
  H   H26       1.0  0.7440178278023305  0.1539958021497183  0.21035484293107576  1.0000
  H   H27       1.0  0.4780042120020648  0.20168775748506929  0.2736146211234165  1.0000
  H   H28       1.0  0.3866137155874524  0.18036977459789116  0.20561253007120905  1.0000
  H   H29       1.0  0.4491599907965528  0.30773834415855283  0.13534961047831473  1.0000
  Zn  Zn1       1.0  0.8201511500880373  0.44076985650378253  0.5295546862766758  1.0000
  Zn  Zn2       1.0  0.9847833957509895  0.4447644599073388  0.5219122150840372  1.0000
  C   C40       1.0  0.9024494631115826  0.4376626329234523  0.7629191581804089  1.0000
  C   C41       1.0  0.9024868808008059  0.44787336575741166  0.2885477872051787  1.0000
  C   C42       1.0  0.9025114807224717  0.6799569675240331  0.520561566101656  1.0000
  C   C43       1.0  0.9024248067170668  0.20557746951861833  0.5309054511094049  1.0000
  O   O1        1.0  0.9649592051800523  0.45113429532816673  0.33403151500486117  1.0000
  O   O2        1.0  0.9649292037072125  0.4374325350809025  0.7116345977378848  1.0000
  O   O3        1.0  0.9649784413845636  0.6330882544569918  0.5159291665275736  1.0000
  O   O4        1.0  0.9649099113342987  0.2554785838509368  0.5297368514524015  1.0000
  O   O5        1.0  0.8400245783238235  0.6300557311984345  0.521730052509481  1.0000
  O   O6        1.0  0.8399753409384176  0.43440157209880703  0.7174354144954882  1.0000
  O   O7        1.0  0.840005342576362  0.44810328663883525  0.33983077042195586  1.0000
  O   O8        1.0  0.8399560487181063  0.25244756590099615  0.5355362042334368  1.0000
