data_image0
_chemical_formula_structural       NC9NC5H8C12NH11C12BrH9Zn2C4O8
_chemical_formula_sum              "N3 C42 H28 Br1 Zn2 O8"
_cell_length_a       17.807436237873137
_cell_length_b       10.299770795358612
_cell_length_c       10.299148005577397
_cell_angle_alpha    85.54782545814984
_cell_angle_beta     89.3653557848841
_cell_angle_gamma    88.40764042794568

_space_group_name_H-M_alt    "P 1"
_space_group_IT_number       1

loop_
  _space_group_symop_operation_xyz
  'x, y, z'

loop_
  _atom_site_type_symbol
  _atom_site_label
  _atom_site_symmetry_multiplicity
  _atom_site_fract_x
  _atom_site_fract_y
  _atom_site_fract_z
  _atom_site_occupancy
  N   N1        1.0  0.7080470844926988  0.3879277705607618  0.5569223567042956  1.0000
  C   C1        1.0  0.6474562460750369  0.35273986835182103  0.5459010340360417  1.0000
  C   C2        1.0  0.5720879025850368  0.30896999310061846  0.5321917053142513  1.0000
  C   C3        1.0  0.5540120138872046  0.23756938689025686  0.4271895108984818  1.0000
  C   C4        1.0  0.4808332438383127  0.1949607266721174  0.4137960133883445  1.0000
  C   C5        1.0  0.4246815853914778  0.22337515141385955  0.5053722912789989  1.0000
  C   C6        1.0  0.3469114153947163  0.17820802396180868  0.49122054042861873  1.0000
  C   C7        1.0  0.2847426616276295  0.2599599104185326  0.5171534422644977  1.0000
  C   C8        1.0  0.2114215468263697  0.21714821257855976  0.5037736451646166  1.0000
  C   C9        1.0  0.1482030853617105  0.3015913739016558  0.5300702246662188  1.0000
  N   N2        1.0  0.0973884297906167  0.3694778333481554  0.55121194859052  1.0000
  C   C10       1.0  0.1996856017546439  0.09232665448433641  0.4644356185992693  1.0000
  C   C11       1.0  0.2609969854872577  0.01056091697582695  0.43849432786053755  1.0000
  C   C12       1.0  0.3341986524473447  0.05297810450251261  0.4516716112525645  1.0000
  C   C13       1.0  0.4434489077285459  0.2952700900018961  0.6105936824792568  1.0000
  C   C14       1.0  0.51668055705639  0.33768837818992425  0.6238315378959183  1.0000
  H   H1        1.0  0.5964222270018683  0.21509374159507955  0.35547479684159144  1.0000
  H   H2        1.0  0.4679334373069789  0.14128983827817865  0.3308758196057284  1.0000
  H   H3        1.0  0.2932497350416042  0.3574199418031734  0.5460231879497122  1.0000
  H   H4        1.0  0.143217359032166  0.05829236740795318  0.4538432540435451  1.0000
  H   H5        1.0  0.2517920367526252  0.9139211319440382  0.4084240288243437  1.0000
  H   H6        1.0  0.3808328888621614  0.9872362906434865  0.4326281547101658  1.0000
  H   H7        1.0  0.4017551303839206  0.3172065237120816  0.6836030165665432  1.0000
  H   H8        1.0  0.5301092111493872  0.39257997394268696  0.7057099351211733  1.0000
  C   C15       1.0  0.9026532569326621  0.9973373282294  0.5541077150059046  1.0000
  C   C16       1.0  0.8808837067490586  0.007563686537310765  0.42301006035728306  1.0000
  C   C17       1.0  0.8699218209610196  0.8956060446168822  0.3565457374765033  1.0000
  C   C18       1.0  0.881021231560112  0.7722755663251138  0.42293948705968365  1.0000
  C   C19       1.0  0.9027894220718786  0.7600579805536971  0.5540377122249984  1.0000
  C   C20       1.0  0.9134838979349744  0.8731494948036654  0.6188875632811575  1.0000
  C   C21       1.0  0.8468912292885767  0.9074783277456152  0.2178520230829204  1.0000
  C   C22       1.0  0.7922002880900778  0.0012545906037697563  0.17346475141921713  1.0000
  C   C23       1.0  0.7705561081202046  0.012298031852773006  0.04292469404478161  1.0000
  C   C24       1.0  0.8031931709036279  0.9300043772885428  0.9546976749197111  1.0000
  C   C25       1.0  0.8577040756877284  0.8364348595840442  0.9981969840007459  1.0000
  C   C26       1.0  0.879408445113877  0.8251325447801376  0.1287061840853474  1.0000
  N   N3        1.0  0.7810219685325522  0.9414332902944091  0.8211806932593566  1.0000
  H   H9        1.0  0.910916508484332  0.32089438229136436  0.6040796011719085  1.0000
  H   H10       1.0  0.873397747564163  0.10283135019277334  0.37176505776523205  1.0000
  H   H11       1.0  0.8716492227474795  0.685698218773775  0.37266229664999195  1.0000
  H   H12       1.0  0.930277548724002  0.86449231347081  0.720023606653573  1.0000
  H   H13       1.0  0.9111167780811829  0.4279485274210619  0.6039770351955145  1.0000
  H   H14       1.0  0.7654583351985629  0.06492309692935216  0.24006349267583915  1.0000
  H   H15       1.0  0.7282095930199698  0.08479077347543007  0.010632571255885681  1.0000
  H   H16       1.0  0.8835171224164912  0.7724649192360049  0.9309225593618216  1.0000
  H   H17       1.0  0.9223312733204024  0.7531229782726802  0.1595502400173343  1.0000
  H   H18       1.0  0.8050316400467107  0.880510031101288  0.7546856406171378  1.0000
  H   H19       1.0  0.7404341379152625  0.010902824802990763  0.7878395575175174  1.0000
  C   C27       1.0  0.9028237505171256  0.3787448374554925  0.17268303647535688  1.0000
  C   C28       1.0  0.83217002421042  0.4428727472081395  0.1682768445566325  1.0000
  C   C29       1.0  0.7962412842059093  0.4753387161119622  0.04890610154262354  1.0000
  C   C30       1.0  0.831919277941962  0.4428118244498409  0.9330034937580405  1.0000
  C   C31       1.0  0.9026189209745369  0.37865047201517443  0.9354624033483696  1.0000
  C   C32       1.0  0.9376356700956877  0.34701009408969696  0.055732279298511544  1.0000
  C   C33       1.0  0.7214987061592402  0.5431802117476177  0.04528979044216919  1.0000
  C   C34       1.0  0.7057363421854184  0.6452448967727114  0.1255899554046478  1.0000
  C   C35       1.0  0.6353546689021377  0.7089890575769129  0.12199196824556324  1.0000
  C   C36       1.0  0.5799354200373421  0.6716715352606  0.03844369928687841  1.0000
  C   C37       1.0  0.5949433765670444  0.570429465131959  0.9583020635413324  1.0000
  C   C38       1.0  0.6652611396315828  0.5064663674760754  0.9615084693724167  1.0000
  Br  Br1       1.0  0.4838383007694209  0.7588959809576696  0.0337955233258056  1.0000
  H   H20       1.0  0.9300155684976701  0.3541304376054466  0.5018491061754131  1.0000
  H   H21       1.0  0.8044521295744553  0.46613246310186995  0.2580209302752672  1.0000
  H   H22       1.0  0.8049436230977084  0.4691850878284427  0.8405804269621995  1.0000
  H   H23       1.0  0.9921337408016987  0.2975505236432201  0.058414826954908516  1.0000
  H   H24       1.0  0.03627068951022827  0.2582745756625413  0.7327514252506591  1.0000
  H   H25       1.0  0.7481319603746385  0.6768529788038002  0.18987273460852672  1.0000
  H   H26       1.0  0.6240237643700429  0.7875923198805201  0.1839557016048341  1.0000
  H   H27       1.0  0.5521037288777016  0.5409944103689417  0.8937186039968208  1.0000
  H   H28       1.0  0.6753348300818267  0.4272333902584451  0.8997643306880012  1.0000
  Zn  Zn1       1.0  0.8204025826812593  0.38260005103909567  0.5552819677938101  1.0000
  Zn  Zn2       1.0  0.9850329086479397  0.3747949654747247  0.5528630156658081  1.0000
  C   C39       1.0  0.9026550479156982  0.3734947512399023  0.7912812973058501  1.0000
  C   C40       1.0  0.9027822414298577  0.3839018186309633  0.31686378706199547  1.0000
  C   C41       1.0  0.902761211149301  0.6158883582346608  0.5488755859346197  1.0000
  C   C42       1.0  0.9026760217222765  0.14150665400312357  0.5592695686441549  1.0000
  O   O1        1.0  0.96524466031567  0.3826648936400119  0.3643341848598356  1.0000
  O   O2        1.0  0.9651432370776327  0.3688068172178893  0.7419745970370448  1.0000
  O   O3        1.0  0.9652281226576775  0.5645427601136566  0.546230282295286  1.0000
  O   O4        1.0  0.9651597185862533  0.1869289627097741  0.5600784030461916  1.0000
  O   O5        1.0  0.8402757165626975  0.5704660564689534  0.5480665812320646  1.0000
  O   O6        1.0  0.8401908312763827  0.3747316738711741  0.7438108265815324  1.0000
  O   O7        1.0  0.8402922549755861  0.38858970522858516  0.36616885292195067  1.0000
  O   O8        1.0  0.8402073132152929  0.19285376499772444  0.5619131684823477  1.0000
