data_image0
_chemical_formula_structural       NC12NC2H8C13OH12C12BrH9Zn2C4O8
_chemical_formula_sum              "N2 C43 H29 O9 Br1 Zn2"
_cell_length_a       17.80743265337812
_cell_length_b       10.299150109392551
_cell_length_c       10.299148005577397
_cell_angle_alpha    85.53215182685325
_cell_angle_beta     91.50743167608279
_cell_angle_gamma    89.41750150667457

_space_group_name_H-M_alt    "P 1"
_space_group_IT_number       1

loop_
  _space_group_symop_operation_xyz
  'x, y, z'

loop_
  _atom_site_type_symbol
  _atom_site_label
  _atom_site_symmetry_multiplicity
  _atom_site_fract_x
  _atom_site_fract_y
  _atom_site_fract_z
  _atom_site_occupancy
  N   N1        1.0  0.7075261056075883  0.4069476927780058  0.6008103008519778  1.0000
  C   C1        1.0  0.6567187468422302  0.4365160947904445  0.532099740113702  1.0000
  C   C2        1.0  0.5935093758936907  0.47329704021489927  0.4466324514955562  1.0000
  C   C3        1.0  0.6052590959945928  0.52733538292611  0.31999106857742743  1.0000
  C   C4        1.0  0.5439567324381891  0.5626123632072673  0.2369203392782797  1.0000
  C   C5        1.0  0.47075046913566493  0.5441145557551588  0.2798309843201623  1.0000
  C   C6        1.0  0.45802387554869933  0.48995735172273913  0.4069405615781867  1.0000
  C   C7        1.0  0.5201835589072044  0.4546836273206605  0.4899947776872773  1.0000
  C   C8        1.0  0.3802488657537704  0.47034502767411057  0.4527119516756384  1.0000
  C   C9        1.0  0.3614249597500604  0.497520720869578  0.5797497374093503  1.0000
  C   C10       1.0  0.2881887321559489  0.4790644861267359  0.6227009318509593  1.0000
  C   C11       1.0  0.2328332723237507  0.4331781793753353  0.5394524161554759  1.0000
  C   C12       1.0  0.157460181537785  0.41416892925917215  0.5838047614280919  1.0000
  N   N2        1.0  0.09686555414958381  0.3988867706351249  0.6194609958923447  1.0000
  C   C13       1.0  0.25096557676635667  0.40583350404979845  0.412957670817371  1.0000
  C   C14       1.0  0.32414901251121  0.4243045515319934  0.3697505784512489  1.0000
  H   H1        1.0  0.661730858566026  0.542163908713009  0.2855481513011209  1.0000
  H   H2        1.0  0.5531720883782647  0.604722938718649  0.1391244519885375  1.0000
  H   H3        1.0  0.4241224459867821  0.5737592574116512  0.21422841304796436  1.0000
  H   H4        1.0  0.511666883062545  0.4111876378812973  0.5876666981472853  1.0000
  H   H5        1.0  0.4030773564039771  0.5346965053660249  0.6453114040184087  1.0000
  H   H6        1.0  0.274715925497165  0.500901958234633  0.7207044382961869  1.0000
  H   H7        1.0  0.20859595227879152  0.36992506763633615  0.34780852749378544  1.0000
  H   H8        1.0  0.33709364032516725  0.40093137061857487  0.27205094815707986  1.0000
  C   C15       1.0  0.9022701933421979  0.021516037377694586  0.6102833236335432  1.0000
  C   C16       1.0  0.900849643380883  0.009720971579513016  0.747032417004377  1.0000
  C   C17       1.0  0.9000640976633255  0.8866074139044431  0.8161002752580275  1.0000
  C   C18       1.0  0.9007048973606594  0.7744686775655026  0.7466620711676686  1.0000
  C   C19       1.0  0.9021286566553194  0.784308257912908  0.6099995345558773  1.0000
  C   C20       1.0  0.9029050505168951  0.9082923638526684  0.5426089050481822  1.0000
  C   C21       1.0  0.8985547908769443  0.8751114705482113  0.9606748716109648  1.0000
  C   C22       1.0  0.8523416028569322  0.783177938009019  0.02648570591777777  1.0000
  C   C23       1.0  0.8508964572976143  0.7724421914122331  0.1625290643129208  1.0000
  C   C24       1.0  0.8961311165253696  0.8524713133933914  0.2352445540089182  1.0000
  C   C25       1.0  0.9416253891060395  0.9453732696465592  0.17004188298880896  1.0000
  C   C26       1.0  0.9430879734519142  0.9562844522644212  0.03399907124263113  1.0000
  C   C27       1.0  0.8929986282593473  0.843322041977437  0.3811876166279331  1.0000
  O   O1        1.0  0.8368377294786967  0.9276542385249552  0.4187398661472458  1.0000
  H   H9        1.0  0.9044634727279377  0.25108271789344516  0.3521396212433503  1.0000
  H   H10       1.0  0.8993094269563321  0.09651704538425343  0.7999696978837281  1.0000
  H   H11       1.0  0.9011193370627232  0.6793283335744541  0.7995179157033798  1.0000
  H   H12       1.0  0.9040011128756266  0.9165981791784822  0.4371968994601474  1.0000
  H   H13       1.0  0.9026257196370412  0.4606184845047202  0.5574319077348051  1.0000
  H   H14       1.0  0.8164279824654724  0.7209220644960818  0.9726541878043935  1.0000
  H   H15       1.0  0.8143380652198564  0.7018605741942882  0.21115571902059682  1.0000
  H   H16       1.0  0.9761550032625834  0.009210636000399841  0.22455334334073618  1.0000
  H   H17       1.0  0.979671319925032  0.027310843296130205  0.9861802930101113  1.0000
  H   H18       1.0  0.9482479565107891  0.8700002414924305  0.4240061319266928  1.0000
  H   H19       1.0  0.8807797946800312  0.7415470403399721  0.41841664847370796  1.0000
  H   H20       1.0  0.8370900333297484  0.9179546913718077  0.5153831627590322  1.0000
  C   C28       1.0  0.9023018134714725  0.40296209628716917  0.2287581092557316  1.0000
  C   C29       1.0  0.8316262987140255  0.46521013203674566  0.21991340523290992  1.0000
  C   C30       1.0  0.7956865314041289  0.49672013702351725  0.09828563794262557  1.0000
  C   C31       1.0  0.8313755801651561  0.46514251198846734  0.9846243865102675  1.0000
  C   C32       1.0  0.9020970228108124  0.40286225599080927  0.9915246903222932  1.0000
  C   C33       1.0  0.9371245187827133  0.3721535765730375  0.11399429933165384  1.0000
  C   C34       1.0  0.7209209031001286  0.5625729673522266  0.08997394976846351  1.0000
  C   C35       1.0  0.705121725696569  0.6642260882988125  0.16925832664975715  1.0000
  C   C36       1.0  0.634718397676452  0.7260976013806226  0.16123895782246178  1.0000
  C   C37       1.0  0.5793139599803122  0.687297736226187  0.07423476181879463  1.0000
  C   C38       1.0  0.5943584470884675  0.5864471700522706  0.9950614815964616  1.0000
  C   C39       1.0  0.6646979460157586  0.5243549949808877  0.002685334959518837  1.0000
  Br  Br1       1.0  0.483187204778383  0.771965339337696  0.06354970266904592  1.0000
  H   H21       1.0  0.9295019929723998  0.3790711912813691  0.5596323670762029  1.0000
  H   H22       1.0  0.8039005474137374  0.48773219251272204  0.30791678853878324  1.0000
  H   H23       1.0  0.8043909186279576  0.49079820622462056  0.890506141092227  1.0000
  H   H24       1.0  0.9916393940253497  0.3241440292519402  0.12010044909242024  1.0000
  H   H25       1.0  0.035789668260146845  0.2860424969305724  0.7972095299432262  1.0000
  H   H26       1.0  0.7475048991398145  0.6969684325319732  0.23618399112764665  1.0000
  H   H27       1.0  0.6233591241014955  0.8044054739757136  0.22247095782089743  1.0000
  H   H28       1.0  0.5515304627567422  0.5558661966381513  0.9278067265067036  1.0000
  H   H29       1.0  0.6748002625523745  0.4453837990950136  0.9415944669342391  1.0000
  Zn  Zn1       1.0  0.8198810622338476  0.40461801622001925  0.6061999770685755  1.0000
  Zn  Zn2       1.0  0.9845105941512131  0.401205851452461  0.6140819170684297  1.0000
  C   C40       1.0  0.9021350261414419  0.39770703976965405  0.8473473474130029  1.0000
  C   C41       1.0  0.9022584276546919  0.40811842938339105  0.37293475965607215  1.0000
  C   C42       1.0  0.9021529320165459  0.6401250875780014  0.6048776061351495  1.0000
  C   C43       1.0  0.9022404658739879  0.1656988222959468  0.6154045680662037  1.0000
  O   O2        1.0  0.9647199174182465  0.40854837690756707  0.4243129178614893  1.0000
  O   O3        1.0  0.9646235421172735  0.3946863583827078  0.801951025796209  1.0000
  O   O4        1.0  0.9646371587682948  0.5904420150616747  0.6061549533754405  1.0000
  O   O5        1.0  0.9647062446147366  0.21279273069669524  0.6201088902108858  1.0000
  O   O6        1.0  0.8396853555903462  0.593031138141604  0.6001730012295685  1.0000
  O   O7        1.0  0.8396717386649468  0.39727704190755375  0.7959690038215079  1.0000
  O   O8        1.0  0.8397681144434838  0.41113901537599085  0.41832933444640363  1.0000
  O   O9        1.0  0.8397544416124842  0.2153833598628434  0.614125404170621  1.0000
