data_image0
_chemical_formula_structural       NC10NC3NCH9C12NH11C13NH9Zn2C4O8
_chemical_formula_sum              "N5 C43 H29 Zn2 O8"
_cell_length_a       19.437513618241372
_cell_length_b       10.299770795358612
_cell_length_c       10.298528502251457
_cell_angle_alpha    85.53666946162151
_cell_angle_beta     90.34428338018773
_cell_angle_gamma    89.53989505547142

_space_group_name_H-M_alt    "P 1"
_space_group_IT_number       1

loop_
  _space_group_symop_operation_xyz
  'x, y, z'

loop_
  _atom_site_type_symbol
  _atom_site_label
  _atom_site_symmetry_multiplicity
  _atom_site_fract_x
  _atom_site_fract_y
  _atom_site_fract_z
  _atom_site_occupancy
  N   N1        1.0  0.6481119091682753  0.4109546261127701  0.5754525653095781  1.0000
  C   C1        1.0  0.5891813279091879  0.4279656458420904  0.5724762218900907  1.0000
  C   C2        1.0  0.5157442976862971  0.44921934782273865  0.568781799741696  1.0000
  C   C3        1.0  0.4739650638656451  0.34803524747177006  0.557120782370651  1.0000
  C   C4        1.0  0.3980766495248263  0.35810277666393886  0.549898550425916  1.0000
  C   C5        1.0  0.35851670967336596  0.43892401794418  0.615649555769084  1.0000
  C   C6        1.0  0.2823329306234941  0.43031924686692125  0.6072043667749294  1.0000
  C   C7        1.0  0.24917720352141923  0.3089741865454161  0.61184801653194  1.0000
  C   C8        1.0  0.17744134879555862  0.3026053861756981  0.6046790384136553  1.0000
  C   C9        1.0  0.1378905236130215  0.41710882082060396  0.5932286866966467  1.0000
  C   C10       1.0  0.0640401368486317  0.4104019123727265  0.5858915951391794  1.0000
  N   N2        1.0  0.0046695240249528  0.4050101478538817  0.5799930319918882  1.0000
  C   C11       1.0  0.1703296175839674  0.538143011723776  0.5893304061690858  1.0000
  C   C12       1.0  0.24204992027074043  0.5447657750253265  0.5965614141896929  1.0000
  C   C13       1.0  0.3872176795612993  0.5311711059160606  0.705581069036987  1.0000
  N   N3        1.0  0.44421295779107356  0.594391192213291  0.6851744676116225  1.0000
  C   C14       1.0  0.4880494844078135  0.5851766507467948  0.5720526428088992  1.0000
  H   H1        1.0  0.4963327456011362  0.25298523224897784  0.5449978028498488  1.0000
  H   H2        1.0  0.37334936771431193  0.2886154621765715  0.4915728922013256  1.0000
  H   H3        1.0  0.278612622512338  0.21905898853983174  0.6228700149156565  1.0000
  H   H4        1.0  0.1528319727139891  0.20837877003797844  0.6085664517732727  1.0000
  H   H5        1.0  0.140208860131032  0.6274023573324312  0.5806208449116121  1.0000
  H   H6        1.0  0.2661778439044457  0.6394051916888035  0.5926585401783067  1.0000
  H   H7        1.0  0.3572198999819431  0.5515216312590319  0.7899583945247053  1.0000
  H   H8        1.0  0.5308140950815072  0.6554857841107167  0.5778169532157291  1.0000
  H   H9        1.0  0.4583849901850706  0.6133224207238197  0.4813957332828809  1.0000
  C   C15       1.0  0.8263316676528987  0.02661479228483521  0.5777616627637407  1.0000
  C   C16       1.0  0.8063662398023453  0.036168057980284996  0.4460805897792479  1.0000
  C   C17       1.0  0.7963127062843548  0.9238715752690682  0.37932245598563963  1.0000
  C   C18       1.0  0.8064921695157378  0.8008843686018291  0.4460136319882668  1.0000
  C   C19       1.0  0.8264563523041362  0.789339831661676  0.5776952397339581  1.0000
  C   C20       1.0  0.8362646362313436  0.9027619194738764  0.6428317348650472  1.0000
  C   C21       1.0  0.7751907436332436  0.9350317760446762  0.2400115275142909  1.0000
  C   C22       1.0  0.7250949924642484  0.027060388758956666  0.19418078629704838  1.0000
  C   C23       1.0  0.7052445014719223  0.037434652964728476  0.06306065507535763  1.0000
  C   C24       1.0  0.7351141029546574  0.9562067258951136  0.9756860825062832  1.0000
  C   C25       1.0  0.7850447811971142  0.8643792527722979  0.020624051521496378  1.0000
  C   C26       1.0  0.8049503869125827  0.853748054215548  0.15171490782745556  1.0000
  N   N4        1.0  0.7147803091826648  0.9669501277161703  0.8415749182919101  1.0000
  H   H10       1.0  0.8339101595460382  0.3504272960154793  0.6279550183304077  1.0000
  H   H11       1.0  0.7994993120908479  0.13120548893717499  0.39463448447640803  1.0000
  H   H12       1.0  0.7978982102330763  0.7140160228001532  0.39548575490274906  1.0000
  H   H13       1.0  0.8516665364778293  0.8946239802332894  0.7444178440309663  1.0000
  H   H14       1.0  0.834093543903926  0.45748789347657326  0.6278577174276894  1.0000
  H   H15       1.0  0.7006193712906172  0.08985679774325206  0.2600806110982312  1.0000
  H   H16       1.0  0.6664564420575553  0.10857379797176492  0.029651033780461855  1.0000
  H   H17       1.0  0.8086695610987921  0.8012517109974837  0.9540240326243938  1.0000
  H   H18       1.0  0.8442659151293709  0.7831108813507169  0.1836915235438652  1.0000
  H   H19       1.0  0.7367537292641317  0.9068111942172933  0.7757068495320287  1.0000
  H   H20       1.0  0.677602622429013  0.03512275679710086  0.8071625081636351  1.0000
  C   C27       1.0  0.8264038131192759  0.40810361794370076  0.19631171375641454  1.0000
  C   C28       1.0  0.7548816994369243  0.4291579465685651  0.19290906679288233  1.0000
  C   C29       1.0  0.7186479423435507  0.43968599506524075  0.07403853009089256  1.0000
  C   C30       1.0  0.7548611183924915  0.42889343078645226  0.9576491246908501  1.0000
  C   C31       1.0  0.8263842131958483  0.40785096542711474  0.9591452061472991  1.0000
  C   C32       1.0  0.8616975753204407  0.39758804212880094  0.07893749083332402  1.0000
  C   C33       1.0  0.6430346817072873  0.46193893218446425  0.07144892009782722  1.0000
  C   C34       1.0  0.6126725375864017  0.5503760159691182  0.15197049419685205  1.0000
  C   C35       1.0  0.5414978452296835  0.5712756627510744  0.14941342090951437  1.0000
  C   C36       1.0  0.49973825654860154  0.504113456660177  0.06653863599063659  1.0000
  C   C37       1.0  0.5294213996099593  0.4159240271096367  0.9861124015150646  1.0000
  C   C38       1.0  0.6005887325221639  0.3949301385732569  0.988432779260116  1.0000
  C   C39       1.0  0.4264638446930827  0.5256803592955162  0.06402678624134239  1.0000
  N   N5        1.0  0.36755615858313384  0.5430188177107687  0.062007463436552834  1.0000
  H   H21       1.0  0.961495434564646  0.36751180002345785  0.4101280604480342  1.0000
  H   H22       1.0  0.7270972229513992  0.4356289834881413  0.28307033955690497  1.0000
  H   H23       1.0  0.7273359820588203  0.4386995275213057  0.8655938148911364  1.0000
  H   H24       1.0  0.9168210516200926  0.38136577685234374  0.08082509714191888  1.0000
  H   H25       1.0  0.9616032309016458  0.36889980302839387  0.7545850883669978  1.0000
  H   H26       1.0  0.644063958652026  0.6046208361257692  0.21566838363508078  1.0000
  H   H27       1.0  0.5190800284085518  0.640039594938542  0.21182889627197166  1.0000
  H   H28       1.0  0.49755469255132784  0.36313728964996184  0.9218366017399617  1.0000
  H   H29       1.0  0.6223308551512637  0.3250472858563773  0.9265555801867991  1.0000
  Zn  Zn1       1.0  0.7510067394927742  0.40923568640505015  0.5767703561146749  1.0000
  Zn  Zn2       1.0  0.901774697891778  0.4067184145181957  0.578685913326427  1.0000
  C   C40       1.0  0.826385535251695  0.40272511427084945  0.8149537970006386  1.0000
  C   C41       1.0  0.8263975487788783  0.4132305977351822  0.34050262069813275  1.0000
  C   C42       1.0  0.8264293799953933  0.6451703297238081  0.5725319678932179  1.0000
  C   C43       1.0  0.8263536523317586  0.170783822821442  0.5829245185350078  1.0000
  O   O1        1.0  0.8836110999613911  0.41399030170605355  0.38962135073987647  1.0000
  O   O2        1.0  0.8836013758103807  0.4000538795884958  0.7672885567519592  1.0000
  O   O3        1.0  0.8836360096663165  0.5958314696355278  0.5715312046558494  1.0000
  O   O4        1.0  0.8835764146625847  0.21821272184043417  0.5853786047946437  1.0000
  O   O5        1.0  0.7692049712722631  0.5977413799432498  0.5700776639859404  1.0000
  O   O6        1.0  0.7691703376700444  0.40196535021743673  0.7658349466920791  1.0000
  O   O7        1.0  0.7691800618995407  0.415901727595571  0.3881661790879365  1.0000
  O   O8        1.0  0.7691453765939003  0.22012413840897627  0.5839235305235286  1.0000
