data_image0
_chemical_formula_structural       NC10NC3NH7C16H10C12SCH12Zn2C4O8
_chemical_formula_sum              "N3 C46 H29 S1 Zn2 O8"
_cell_length_a       19.210446455230148
_cell_length_b       10.29914801576943
_cell_length_c       10.299780138516091
_cell_angle_alpha    85.5534209466543
_cell_angle_beta     89.98277112440113
_cell_angle_gamma    89.9607823085547

_space_group_name_H-M_alt    "P 1"
_space_group_IT_number       1

loop_
  _space_group_symop_operation_xyz
  'x, y, z'

loop_
  _atom_site_type_symbol
  _atom_site_label
  _atom_site_symmetry_multiplicity
  _atom_site_fract_x
  _atom_site_fract_y
  _atom_site_fract_z
  _atom_site_occupancy
  N   N1        1.0  0.6557545805299545  0.4199000130780617  0.5668601323520424  1.0000
  C   C1        1.0  0.5955261220305089  0.4221077417389547  0.5670904483264583  1.0000
  C   C2        1.0  0.5207217951039798  0.42484492094224446  0.5673757803073114  1.0000
  C   C3        1.0  0.48511547172642405  0.541087436587474  0.5824436014765562  1.0000
  C   C4        1.0  0.4124500017619805  0.5412389701247735  0.5823909503184588  1.0000
  C   C5        1.0  0.3755550684350689  0.42555395951156827  0.567461995578127  1.0000
  C   C6        1.0  0.2982328866393928  0.4241973504386227  0.5673119154066815  1.0000
  C   C7        1.0  0.2604866483160067  0.5277581215045166  0.503914723059887  1.0000
  C   C8        1.0  0.1877082361758501  0.5263557652228479  0.5038061756197556  1.0000
  C   C9        1.0  0.1516746654942482  0.4216501517200246  0.5670437304439084  1.0000
  C   C10       1.0  0.0767450946540725  0.4203479440865432  0.566907392657688  1.0000
  N   N2        1.0  0.0165072015008009  0.41930092494672233  0.5667978119681902  1.0000
  C   C11       1.0  0.1886972532405556  0.31821507512714997  0.6304158688085935  1.0000
  C   C12       1.0  0.2614774994564018  0.3193431579599253  0.630574761638556  1.0000
  C   C13       1.0  0.4137713197259372  0.3111319014559093  0.5526816478790246  1.0000
  N   N3        1.0  0.4845413667239745  0.31357708799697237  0.5528462931895408  1.0000
  H   H1        1.0  0.5132197643386418  0.6305303792073729  0.594458173487705  1.0000
  H   H2        1.0  0.38518443116533  0.6312641877101348  0.5957999606555331  1.0000
  H   H3        1.0  0.2872199513862104  0.6090035215795191  0.4528963830991031  1.0000
  H   H4        1.0  0.1595677447633548  0.6067737563486331  0.45411847146654494  1.0000
  H   H5        1.0  0.1613243757949426  0.23683359471836396  0.6800044515310744  1.0000
  H   H6        1.0  0.2889730523516652  0.2390447420276578  0.6817000769498969  1.0000
  H   H7        1.0  0.3875026610677659  0.22024369164504565  0.5392267137478042  1.0000
  C   C14       1.0  0.8360846357679694  0.03819923514850476  0.5669945234173319  1.0000
  C   C15       1.0  0.8202007296697874  0.04778673207421957  0.43352940774180015  1.0000
  C   C16       1.0  0.8121984172685096  0.9355179045524112  0.36569515592297797  1.0000
  C   C17       1.0  0.8202936813970236  0.8125346483866731  0.4331248199334998  1.0000
  C   C18       1.0  0.8361837860336965  0.8009917229495331  0.5666746835464302  1.0000
  C   C19       1.0  0.8439826689149139  0.9143401227312136  0.6327872237022036  1.0000
  C   C20       1.0  0.7953953320432339  0.9467059254171355  0.2245051594427221  1.0000
  C   C21       1.0  0.8283353581216646  0.8656420655769131  0.13928568495647542  1.0000
  C   C22       1.0  0.8124965548198043  0.8762970623773286  0.006403106960751304  1.0000
  C   C23       1.0  0.7635551223859851  0.9679159887191663  0.9569358590303265  1.0000
  C   C24       1.0  0.7304882637081461  0.04896001207351164  0.04087147341871433  1.0000
  C   C25       1.0  0.7462774349080135  0.03854636930760469  0.17377500560584647  1.0000
  C   C26       1.0  0.7472747486667277  0.9787615674005838  0.8201207922301701  1.0000
  C   C27       1.0  0.7336401111457612  0.9878446359570228  0.7055401530510288  1.0000
  C   C28       1.0  0.7176741116353197  0.9984807866593811  0.5713673929674528  1.0000
  C   C29       1.0  0.7040417624569032  0.00756247946361599  0.4568052603078665  1.0000
  H   H8        1.0  0.8421584666281038  0.3619861363862902  0.618345023480259  1.0000
  H   H9        1.0  0.8149533115771784  0.1428361110906331  0.3816226132751561  1.0000
  H   H10       1.0  0.8132495063850153  0.7256385673940063  0.3817128947127213  1.0000
  H   H11       1.0  0.8562322973355244  0.9062291531586534  0.7357331492467378  1.0000
  H   H12       1.0  0.8657444383750873  0.5718992590105267  0.8189213541529732  1.0000
  H   H13       1.0  0.8670013042548861  0.79518330700142  0.17512705538925566  1.0000
  H   H14       1.0  0.838544149164323  0.8133127651255327  0.942226696820966  1.0000
  H   H15       1.0  0.6923760830747768  0.11998181609222591  0.003660177476259685  1.0000
  H   H16       1.0  0.7194184401062322  0.10114198002745489  0.23714880538313743  1.0000
  H   H17       1.0  0.6920714624001696  0.015536972814610417  0.3562100479020307  1.0000
  C   C30       1.0  0.8361621790113455  0.419484125753542  0.18548251276568894  1.0000
  C   C31       1.0  0.769968852531214  0.36157758300169096  0.1890126922073716  1.0000
  C   C32       1.0  0.7364006439230983  0.33235019866657933  0.0736545023954851  1.0000
  C   C33       1.0  0.7699118931967457  0.3618031356591105  0.9537087110164091  1.0000
  C   C34       1.0  0.8361062572036161  0.41970685296606325  0.9481866942824486  1.0000
  C   C35       1.0  0.8688606995030249  0.44822388334765595  0.06459679444120892  1.0000
  C   C36       1.0  0.666372702923577  0.27110496062580847  0.07845193931359717  1.0000
  C   C37       1.0  0.6148248105712268  0.31285506963728604  0.9874868988787227  1.0000
  C   C38       1.0  0.5489297672242005  0.25518092493193234  0.9922387647668893  1.0000
  C   C39       1.0  0.5336215928886996  0.15538808154999773  0.08784599339920307  1.0000
  C   C40       1.0  0.5845498669173332  0.11284000089128932  0.17840582544433836  1.0000
  C   C41       1.0  0.6504879525575674  0.17034062957715213  0.17401643276793743  1.0000
  S   S1        1.0  0.4490977288931263  0.08125096465946124  0.09349312404353394  1.0000
  C   C42       1.0  0.4134155683592128  0.19553514603215172  0.2021803508911275  1.0000
  H   H18       1.0  0.8613950112994585  0.4415016265820637  0.511594380408207  1.0000
  H   H19       1.0  0.7439516534826303  0.3406966963995357  0.2815753069218716  1.0000
  H   H20       1.0  0.7446664414178074  0.3378416220879472  0.8646509277953367  1.0000
  H   H21       1.0  0.9199261949570225  0.4928955322536799  0.06110503950572488  1.0000
  H   H22       1.0  0.8613139280939405  0.44182925282423535  0.6186246883500326  1.0000
  H   H23       1.0  0.6251859128531547  0.39121231746994156  0.913773990571384  1.0000
  H   H24       1.0  0.5097130829711013  0.2885821471788945  0.9219002572381911  1.0000
  H   H25       1.0  0.5731249393740674  0.035180553334697606  0.25224349023467374  1.0000
  H   H26       1.0  0.689329851524481  0.1348888675568558  0.2442550499949403  1.0000
  H   H27       1.0  0.4428497907799148  0.18945565251975038  0.29519190520445004  1.0000
  H   H28       1.0  0.3581717477139601  0.17049600156991862  0.22297277901734502  1.0000
  H   H29       1.0  0.4161193681716803  0.29626119838922227  0.15554635325124044  1.0000
  Zn  Zn1       1.0  0.7598599924168171  0.41972366702698993  0.5668496482243122  1.0000
  Zn  Zn2       1.0  0.9124017715182894  0.419466690658868  0.5668189358415985  1.0000
  C   C43       1.0  0.8361145952108864  0.4144906322247821  0.8040214200260518  1.0000
  C   C44       1.0  0.8361488346793845  0.42470136145060655  0.3296472904781116  1.0000
  C   C45       1.0  0.8361618468384645  0.6568062112287212  0.5615601753879285  1.0000
  C   C46       1.0  0.8361015307920369  0.18238422211973115  0.5721086050166364  1.0000
  O   O1        1.0  0.8940331656539545  0.4263491259964334  0.3780186540267847  1.0000
  O   O2        1.0  0.8940059448978728  0.41264684864686574  0.7556263730708748  1.0000
  O   O3        1.0  0.8940433207168508  0.6083197449002449  0.5598372021628759  1.0000
  O   O4        1.0  0.8939957377911482  0.23067623909331902  0.5738077275709992  1.0000
  O   O5        1.0  0.7782659740889362  0.6085141186816443  0.5598608564985612  1.0000
  O   O6        1.0  0.7782285984747055  0.41284278284430687  0.7556499575098083  1.0000
  O   O7        1.0  0.7782558193856931  0.4265450144780645  0.37804067715293876  1.0000
  O   O8        1.0  0.7782183915116929  0.23087211831379117  0.5738298480645871  1.0000
