data_image0
_chemical_formula_structural       NC11NC3H8C12NCOCH13C12NCOCH13Zn2C4O8
_chemical_formula_sum              "N4 C46 H34 O10 Zn2"
_cell_length_a       17.807433833752565
_cell_length_b       10.299155265289647
_cell_length_c       10.299158637457994
_cell_angle_alpha    85.56442242627145
_cell_angle_beta     88.50589662061448
_cell_angle_gamma    90.66237101144992

_space_group_name_H-M_alt    "P 1"
_space_group_IT_number       1

loop_
  _space_group_symop_operation_xyz
  'x, y, z'

loop_
  _atom_site_type_symbol
  _atom_site_label
  _atom_site_symmetry_multiplicity
  _atom_site_fract_x
  _atom_site_fract_y
  _atom_site_fract_z
  _atom_site_occupancy
  N   N1        1.0  0.7073654621186506  0.4380526017155233  0.5342437104620963  1.0000
  C   C1        1.0  0.6565414149866761  0.4033471806104665  0.6008163741986543  1.0000
  C   C2        1.0  0.5933111756581234  0.36017649640404414  0.6836242727110462  1.0000
  C   C3        1.0  0.6050297624428775  0.2966655926278632  0.8063615784924467  1.0000
  C   C4        1.0  0.5437069658739763  0.25517398507221567  0.886885060968092  1.0000
  C   C5        1.0  0.4705111862555117  0.2768802192403539  0.8453121268718908  1.0000
  C   C6        1.0  0.45781585656713963  0.34054552143802663  0.7221145760432157  1.0000
  C   C7        1.0  0.38005207540668584  0.36358097685171287  0.6777605933922408  1.0000
  C   C8        1.0  0.36129597176899975  0.3466616132104916  0.5481831892793492  1.0000
  C   C9        1.0  0.28807026622192394  0.36832910116064377  0.5065661936586527  1.0000
  C   C10       1.0  0.23265767098226972  0.40723421025958095  0.5937062308349892  1.0000
  C   C11       1.0  0.1572953490437925  0.4295597238309947  0.5507277442137015  1.0000
  N   N2        1.0  0.0967094154385374  0.44750777811671383  0.5161761689451334  1.0000
  C   C12       1.0  0.2507222622868539  0.4243639763133866  0.7227524367657234  1.0000
  C   C13       1.0  0.3238951669366534  0.40266164674356264  0.7646248744557134  1.0000
  C   C14       1.0  0.5199959630131539  0.3820325695875939  0.6416075108476593  1.0000
  H   H1        1.0  0.6614932585141581  0.27926180811002754  0.8397322873173318  1.0000
  H   H2        1.0  0.5528985489578331  0.20575206879099128  0.9816358792762339  1.0000
  H   H3        1.0  0.4238678779146925  0.2423444277897835  0.9087614206655465  1.0000
  H   H4        1.0  0.4029938796699009  0.31499330397014447  0.47947443199418305  1.0000
  H   H5        1.0  0.2746501823674482  0.35441194280258737  0.4065341893486547  1.0000
  H   H6        1.0  0.20830793404886222  0.4548089960794732  0.7909467524075262  1.0000
  H   H7        1.0  0.3367865123225262  0.41812425043460544  0.8644737008775711  1.0000
  H   H8        1.0  0.5115025150789523  0.4328170106889815  0.54709064021049  1.0000
  C   C15       1.0  0.9021249156247182  0.061384867674714405  0.5253245629746823  1.0000
  C   C16       1.0  0.889316669721961  0.07073780029713017  0.3909929573889297  1.0000
  C   C17       1.0  0.8827498814826348  0.9583404530267688  0.32276965438660565  1.0000
  C   C18       1.0  0.8891370960493906  0.8354735874222825  0.3906935039307049  1.0000
  C   C19       1.0  0.9019571661860953  0.8241657299747556  0.5251061518529412  1.0000
  C   C20       1.0  0.9083754931538774  0.9376365494564799  0.591594025802761  1.0000
  C   C21       1.0  0.8692012312961552  0.9692084182314287  0.18066299309587852  1.0000
  C   C22       1.0  0.9073162111053915  0.06422315066213202  0.09747618662786506  1.0000
  C   C23       1.0  0.8945722202750854  0.0743198947591941  0.9637440617427577  1.0000
  C   C24       1.0  0.8439255929506392  0.9887326989248237  0.9103434425735815  1.0000
  C   C25       1.0  0.8048929606345483  0.8955119487320701  0.9935046730528514  1.0000
  C   C26       1.0  0.8176643205909235  0.8851598398758717  0.12719819218401462  1.0000
  N   N3        1.0  0.8287645591877677  0.9985686851347192  0.7734851340109938  1.0000
  C   C27       1.0  0.8836377350915793  0.03681149134502504  0.6727204306571397  1.0000
  O   O1        1.0  0.9525526840235151  0.041026855442988897  0.6973809962576816  1.0000
  C   C28       1.0  0.8596965270172857  0.06263973265071288  0.5352907295814098  1.0000
  H   H9        1.0  0.9070748350665278  0.38526408141114366  0.5769874679398121  1.0000
  H   H10       1.0  0.8833823920403235  0.16562490748771586  0.33945839852487514  1.0000
  H   H11       1.0  0.8851055431381732  0.7485625042394315  0.33825183284939886  1.0000
  H   H12       1.0  0.91825729004022  0.9297076332689164  0.6952062375754395  1.0000
  H   H13       1.0  0.9266042559095571  0.5955503136218877  0.7786512979881106  1.0000
  H   H14       1.0  0.9474250482684257  0.1302562923462507  0.13570748096642204  1.0000
  H   H15       1.0  0.9234040845596868  0.15045975038589798  0.9028253308922687  1.0000
  H   H16       1.0  0.7647121864789946  0.8301808781424693  0.9544096759723857  1.0000
  H   H17       1.0  0.7864182844757193  0.8125779276244812  0.18906190548720025  1.0000
  H   H18       1.0  0.7758564384824602  0.9684069168577711  0.7448667222209324  1.0000
  H   H19       1.0  0.8054671895635841  0.1147672556452708  0.5333535878793252  1.0000
  H   H20       1.0  0.8527530511178351  0.9688493650347156  0.49038861068778905  1.0000
  H   H21       1.0  0.9024746151388359  0.12375502779197234  0.4779099908092874  1.0000
  C   C29       1.0  0.9021114924977657  0.44263901413222584  0.14383904463267205  1.0000
  C   C30       1.0  0.90382694455085  0.5793941583563744  0.13240535644180285  1.0000
  C   C31       1.0  0.9046377082752455  0.6488693436663453  0.009453382195962368  1.0000
  C   C32       1.0  0.9036830495907987  0.5797505605550353  0.8971004486182386  1.0000
  C   C33       1.0  0.9019705650906817  0.44291157323300734  0.9065917178299912  1.0000
  C   C34       1.0  0.9011986158261365  0.3751972710626976  0.030348014984827865  1.0000
  C   C35       1.0  0.9064533463529719  0.7935395269767573  0.9983314398828886  1.0000
  C   C36       1.0  0.952549031009897  0.862497931626756  0.07873962641831089  1.0000
  C   C37       1.0  0.9542637648131957  0.9986403527239274  0.06814215074520202  1.0000
  C   C38       1.0  0.9103932373897158  0.06856563942934324  0.9760073658261463  1.0000
  C   C39       1.0  0.8634028027519163  0.9999459208662316  0.8974236728631335  1.0000
  C   C40       1.0  0.8617189062169495  0.8638321601842773  0.90775872239257  1.0000
  N   N4        1.0  0.91007553477674  0.20861437247939163  0.9647452010307656  1.0000
  C   C41       1.0  0.9744242128149503  0.2891708695498094  0.9849672294637668  1.0000
  O   O2        1.0  0.03920816251642023  0.24132777620092893  0.9904917026242859  1.0000
  C   C42       1.0  0.9655801417675128  0.4327819981946215  0.9899375529175636  1.0000
  H   H22       1.0  0.9014751934706041  0.3900358456801134  0.4757116118296161  1.0000
  H   H23       1.0  0.903486917192129  0.6322070984785708  0.2193563279127404  1.0000
  H   H24       1.0  0.9053001047937628  0.6328073980811084  0.8020380795354347  1.0000
  H   H25       1.0  0.8998780193344947  0.26971489570922724  0.03845206933384393  1.0000
  H   H26       1.0  0.8991944251719814  0.18463084048350709  0.7171926154839716  1.0000
  H   H27       1.0  0.9877219542778873  0.8111211529031943  0.14931544688522513  1.0000
  H   H28       1.0  0.9889197530810581  0.04882523867605437  0.13355081738349162  1.0000
  H   H29       1.0  0.8282510777338954  0.05219828715326802  0.8274158997807564  1.0000
  H   H30       1.0  0.8246016998997416  0.8135407203651939  0.8461485248687164  1.0000
  H   H31       1.0  0.8613658559789782  0.2548900107371148  0.9320447781945216  1.0000
  H   H32       1.0  0.9127495856737425  0.4532153194776507  0.043800529103614094  1.0000
  H   H33       1.0  0.963550029949795  0.4794035286753404  0.8892991265369834  1.0000
  H   H34       1.0  0.013500406304902013  0.4747164256742762  0.040356473949635596  1.0000
  Zn  Zn1       1.0  0.8197217159346742  0.44077768917598115  0.5290372939197869  1.0000
  Zn  Zn2       1.0  0.984353147241947  0.44477207410920716  0.5213931747473277  1.0000
  C   C43       1.0  0.901996663172275  0.43768595507380526  0.7624166641492465  1.0000
  C   C44       1.0  0.9020799973904629  0.447865490608893  0.28801384804406016  1.0000
  C   C45       1.0  0.9019859428550084  0.6799819388076878  0.5199723571865513  1.0000
  C   C46       1.0  0.9020906618609513  0.20556794512578458  0.5304582273018994  1.0000
  O   O3        1.0  0.9645461987882124  0.45112972598919  0.3334993273560185  1.0000
  O   O4        1.0  0.9644819091093099  0.4374523855099153  0.711129101685501  1.0000
  O   O5        1.0  0.9644724098512879  0.6331094366741086  0.5153536471989097  1.0000
  O   O6        1.0  0.9645556418846267  0.25547268271805823  0.5292746870718104  1.0000
  O   O7        1.0  0.8395191651113677  0.6300770792054544  0.5211557841970351  1.0000
  O   O8        1.0  0.8395286640355413  0.4344215884288103  0.7169311689902129  1.0000
  O   O9        1.0  0.8395929540628597  0.4480988830922834  0.33929983324035895  1.0000
  O   O10       1.0  0.839602397140255  0.2524418305664138  0.5350752903286815  1.0000
