data_image0
_chemical_formula_structural       NC10NC5H10C12ClH9C12NH11Zn2C4O8
_chemical_formula_sum              "N3 C43 H30 Cl1 Zn2 O8"
_cell_length_a       19.4436361288709
_cell_length_b       10.299768534541528
_cell_length_c       10.299774167527174
_cell_angle_alpha    85.57901690489705
_cell_angle_beta     89.69810155224394
_cell_angle_gamma    89.43641405984484

_space_group_name_H-M_alt    "P 1"
_space_group_IT_number       1

loop_
  _space_group_symop_operation_xyz
  'x, y, z'

loop_
  _atom_site_type_symbol
  _atom_site_label
  _atom_site_symmetry_multiplicity
  _atom_site_fract_x
  _atom_site_fract_y
  _atom_site_fract_z
  _atom_site_occupancy
  N   N1        1.0  0.6479710615859076  0.40886885052422683  0.5622203151534992  1.0000
  C   C1        1.0  0.5891367539134983  0.41877222542382864  0.5766041608364685  1.0000
  C   C2        1.0  0.5158094998517645  0.43112306761329555  0.5945963147299347  1.0000
  C   C3        1.0  0.4736205779466701  0.39911588593821623  0.49992499672829394  1.0000
  C   C4        1.0  0.397717625008807  0.4095546047343166  0.505253348526987  1.0000
  C   C5        1.0  0.3579738349954684  0.3848193581639623  0.6123201565732064  1.0000
  C   C6        1.0  0.2818539878547552  0.3887344301023248  0.5993615019215823  1.0000
  C   C7        1.0  0.24130025078200024  0.44640546935279946  0.6931310244660878  1.0000
  C   C8        1.0  0.1696374979880902  0.45004195638985545  0.682587734571311  1.0000
  C   C9        1.0  0.1375336597840319  0.3956114322627784  0.5785614180365419  1.0000
  C   C10       1.0  0.0637416730995139  0.39930914378285975  0.5678628555034444  1.0000
  N   N2        1.0  0.0044179208385336  0.4022819098295516  0.5592619205313842  1.0000
  C   C11       1.0  0.1773623871003758  0.33723335838985813  0.485175080866024  1.0000
  C   C12       1.0  0.2490415610424956  0.33354261958266673  0.49546660120859265  1.0000
  C   C13       1.0  0.3860993522816754  0.34437423753824103  0.7434074162041171  1.0000
  C   C14       1.0  0.44476986653970324  0.38750074792427847  0.7906500058848425  1.0000
  C   C15       1.0  0.4889938270693159  0.48534876168301233  0.7162903282050499  1.0000
  H   H1        1.0  0.4957151960425131  0.36998900766268483  0.40962054202812936  1.0000
  H   H2        1.0  0.3730233600880853  0.43203826125247247  0.41209993930841704  1.0000
  H   H3        1.0  0.2651774887133685  0.48970481047146275  0.773978056322062  1.0000
  H   H4        1.0  0.1392998419431161  0.49536408552509426  0.7555077267113266  1.0000
  H   H5        1.0  0.1530132974560079  0.2941297094351978  0.404662527412057  1.0000
  H   H6        1.0  0.27871322597202597  0.2859772197889705  0.4232428061616391  1.0000
  H   H7        1.0  0.3551229441301878  0.28016561233435167  0.8076485940697555  1.0000
  H   H8        1.0  0.45991369346547  0.35344527126118264  0.8885787506246159  1.0000
  H   H9        1.0  0.4588999693077568  0.5760585552831918  0.6910437948145578  1.0000
  H   H10       1.0  0.5322828580946168  0.5109414882001557  0.7793739081088567  1.0000
  C   C16       1.0  0.8261329107989984  0.024211127394789145  0.5607395312597232  1.0000
  C   C17       1.0  0.8306712256526192  0.0336531792075172  0.4242392800524264  1.0000
  C   C18       1.0  0.8330369469931556  0.9212969550129806  0.35508035692214324  1.0000
  C   C19       1.0  0.8308025861444224  0.7983630388045952  0.4242536790542386  1.0000
  C   C20       1.0  0.8262626532852201  0.7869294878360714  0.5607538816434467  1.0000
  C   C21       1.0  0.8239537460000177  0.900409944406264  0.628232401480344  1.0000
  C   C22       1.0  0.8378390202664243  0.9323395096122175  0.21067446277204804  1.0000
  C   C23       1.0  0.798715362041092  0.026580864445577612  0.13653882863857758  1.0000
  C   C24       1.0  0.8032964909513827  0.036777506517339464  0.0006273730151169499  1.0000
  C   C25       1.0  0.8469349630719588  0.9532556608221182  0.9371603227002425  1.0000
  C   C26       1.0  0.8860474433078387  0.8593263164577923  0.009784899307700545  1.0000
  C   C27       1.0  0.8815884541706289  0.8487351703405549  0.1457099838078464  1.0000
  Cl  Cl1       1.0  0.8526060352014844  0.9662963224372264  0.7666361793413521  1.0000
  H   H11       1.0  0.8243682995180266  0.3480676423475948  0.612749886293608  1.0000
  H   H12       1.0  0.8333261780940409  0.12860111403474828  0.3714871058235738  1.0000
  H   H13       1.0  0.8316626395837549  0.7114979245945112  0.3713028563394094  1.0000
  H   H14       1.0  0.820451948441265  0.8923576602326705  0.7335360675757305  1.0000
  H   H15       1.0  0.8245601109633796  0.45511851921828694  0.6127715221517838  1.0000
  H   H16       1.0  0.7639371244962077  0.091213092356343  0.183568767363691  1.0000
  H   H17       1.0  0.7727626357300521  0.10943931655053984  0.9447716384575799  1.0000
  H   H18       1.0  0.9200587434734937  0.794661153536621  0.9610719263590393  1.0000
  H   H19       1.0  0.9129951695181909  0.7763501038230252  0.2000642382896498  1.0000
  C   C28       1.0  0.8262211601073739  0.40545537766460527  0.1793944419845186  1.0000
  C   C29       1.0  0.7588524569399854  0.3573988703626674  0.18277333640421634  1.0000
  C   C30       1.0  0.7246921399841828  0.33316451902339583  0.06733783171320784  1.0000
  C   C31       1.0  0.7588052446971819  0.35763104186323247  0.9474690218988719  1.0000
  C   C32       1.0  0.8261743849894664  0.4056853146094075  0.9420989794442263  1.0000
  C   C33       1.0  0.8595049833650463  0.42932888844585215  0.05858401140069236  1.0000
  C   C34       1.0  0.6534199566059753  0.28232408625967453  0.07196585483812612  1.0000
  C   C35       1.0  0.6340735703979535  0.1842285838921569  0.1674231639713406  1.0000
  C   C36       1.0  0.5669890063732381  0.13643315101899423  0.17164538245869254  1.0000
  C   C37       1.0  0.518189623756136  0.18586019306473878  0.08074677906956196  1.0000
  C   C38       1.0  0.5370820792990747  0.2835739265072421  0.9854525941309142  1.0000
  C   C39       1.0  0.604146007972546  0.3314710016825839  0.9809642688591764  1.0000
  N   N3        1.0  0.449577673580175  0.1369169440910467  0.08520185049622553  1.0000
  H   H20       1.0  0.8519034084522611  0.42371322553851476  0.5055644310703438  1.0000
  H   H21       1.0  0.7324436451876624  0.3403839008692493  0.2752778463440855  1.0000
  H   H22       1.0  0.7330435979218938  0.33743173393583326  0.8583519974692706  1.0000
  H   H23       1.0  0.9114769853219297  0.4664013817339481  0.055209361545680125  1.0000
  H   H24       1.0  0.8518347670403876  0.4240514410205889  0.6125952300178099  1.0000
  H   H25       1.0  0.6710641895476357  0.14327718383509525  0.23776516091885336  1.0000
  H   H26       1.0  0.5531016145262251  0.0606437962444446  0.2455774472397847  1.0000
  H   H27       1.0  0.4998040523871369  0.3228653418886429  0.9148428956423262  1.0000
  H   H28       1.0  0.61722950233636  0.40814169927545674  0.907370911483246  1.0000
  H   H29       1.0  0.4128415723695346  0.17315191932518492  0.017842924146872052  1.0000
  H   H30       1.0  0.43500977596806906  0.06408540981746569  0.155892487962908  1.0000
  Zn  Zn1       1.0  0.7508339257061836  0.4069645326633078  0.5613740981165942  1.0000
  Zn  Zn2       1.0  0.9015550457742566  0.4041756233582221  0.5601188180822103  1.0000
  C   C40       1.0  0.8261808207361225  0.4004682384697753  0.7979314353578095  1.0000
  C   C41       1.0  0.8262097968851666  0.41067352573466986  0.32356159462519773  1.0000
  C   C42       1.0  0.826234900523061  0.6427580232444394  0.5555762894946217  1.0000
  C   C43       1.0  0.8261556653980012  0.1683821816492721  0.5659168101228864  1.0000
  O   O1        1.0  0.8834038618963959  0.4113607416773224  0.3714690356965733  1.0000
  O   O2        1.0  0.883380598263512  0.3976633250724737  0.7490708919373126  1.0000
  O   O3        1.0  0.8834234972378302  0.5933154051250089  0.5533674033972289  1.0000
  O   O4        1.0  0.8833609114987191  0.21570867183720943  0.5671724272947523  1.0000
  O   O5        1.0  0.7690280085480006  0.59543148513745  0.5543204893255871  1.0000
  O   O6        1.0  0.7689851098401884  0.39978096534877783  0.7500239086527054  1.0000
  O   O7        1.0  0.7690083736068475  0.4134783362267387  0.3724204910781206  1.0000
  O   O8        1.0  0.7689654231988088  0.21782625712733306  0.5681239800397393  1.0000
