data_image0
_chemical_formula_structural       NC12NC2H8C12ClH9C12NH11Zn2C4O8
_chemical_formula_sum              "N3 C42 H28 Cl1 Zn2 O8"
_cell_length_a       17.80743265337812
_cell_length_b       10.299768534541528
_cell_length_c       10.299774167527174
_cell_angle_alpha    85.57901690489705
_cell_angle_beta     91.52767882299842
_cell_angle_gamma    89.45366305101135

_space_group_name_H-M_alt    "P 1"
_space_group_IT_number       1

loop_
  _space_group_symop_operation_xyz
  'x, y, z'

loop_
  _atom_site_type_symbol
  _atom_site_label
  _atom_site_symmetry_multiplicity
  _atom_site_fract_x
  _atom_site_fract_y
  _atom_site_fract_z
  _atom_site_occupancy
  N   N1        1.0  0.7077666403214935  0.40620547421391584  0.6014937291622378  1.0000
  C   C1        1.0  0.6569564146390486  0.435741276260198  0.5328008723684445  1.0000
  C   C2        1.0  0.5937434781915744  0.4724816712768891  0.44735560586076906  1.0000
  C   C3        1.0  0.6054877435466665  0.5264599732915016  0.32074666893189696  1.0000
  C   C4        1.0  0.5441817389447876  0.5616975862435523  0.23769715461124363  1.0000
  C   C5        1.0  0.47097725420208103  0.5432201410085991  0.28059673048772016  1.0000
  C   C6        1.0  0.4582561655805772  0.489123191764526  0.40767377426959484  1.0000
  C   C7        1.0  0.5204194878655496  0.45388882723172275  0.4907067781101664  1.0000
  C   C8        1.0  0.38048309699767635  0.46953257587429054  0.45343340486718  1.0000
  C   C9        1.0  0.3616948886479932  0.49676057324287726  0.5804712955455269  1.0000
  C   C10       1.0  0.2884604632266269  0.47832471420885203  0.6234114340547183  1.0000
  C   C11       1.0  0.23307118235124794  0.43240686627306046  0.5401515841824289  1.0000
  C   C12       1.0  0.1576999707503062  0.4134186517833134  0.5844925325416426  1.0000
  N   N2        1.0  0.0971068540867313  0.39815340435864544  0.620139604659818  1.0000
  C   C13       1.0  0.2511678358298149  0.4050101381212645  0.4136566199413023  1.0000
  C   C14       1.0  0.3243494233269769  0.42346069776337436  0.37046061120258633  1.0000
  H   H1        1.0  0.6619580714585607  0.5412721568718837  0.2863126288610949  1.0000
  H   H2        1.0  0.5533930239800671  0.6037617596409541  0.1399264757372196  1.0000
  H   H3        1.0  0.4243470188915305  0.5728335796336297  0.21501162958759235  1.0000
  H   H4        1.0  0.5119063433952992  0.4104393211851327  0.5883529448372429  1.0000
  H   H5        1.0  0.4033743064464972  0.5339610966208472  0.6460423049201778  1.0000
  H   H6        1.0  0.2750155197178064  0.5002024514756414  0.7214153716194376  1.0000
  H   H7        1.0  0.2087717440369921  0.36907701785921754  0.34849860727118265  1.0000
  H   H8        1.0  0.3372656788729185  0.4000475326683346  0.27275990780301984  1.0000
  C   C15       1.0  0.902369487464685  0.020815446701264673  0.6108113041451424  1.0000
  C   C16       1.0  0.9073266036803487  0.030238844532377573  0.4745861194164498  1.0000
  C   C17       1.0  0.9099106367404519  0.917872896437271  0.40557058224758435  1.0000
  C   C18       1.0  0.9074700862823757  0.7949481641941981  0.4746084801549586  1.0000
  C   C19       1.0  0.9025112027495548  0.7835332738578299  0.6108335181985232  1.0000
  C   C20       1.0  0.8999892266167596  0.8970232208039522  0.6781720955640733  1.0000
  C   C21       1.0  0.9151558513321048  0.9288957129201709  0.2614557409283058  1.0000
  C   C22       1.0  0.872421813068949  0.023297878985185427  0.18494882863426487  1.0000
  C   C23       1.0  0.8774256942758972  0.0334756910953371  0.04931503444198171  1.0000
  C   C24       1.0  0.925091179098553  0.949774476783592  0.9884929043772575  1.0000
  C   C25       1.0  0.9678130078534308  0.8556843671328619  0.06348808164927777  1.0000
  C   C26       1.0  0.962942537630349  0.8451115489421941  0.1991429075887743  1.0000
  Cl  Cl1       1.0  0.9312855848461054  0.9627918284083946  0.8183124837196112  1.0000
  H   H9        1.0  0.9004420356510959  0.34467921479261476  0.6627147063943881  1.0000
  H   H10       1.0  0.9102265584485129  0.1251758666231353  0.4219948613960316  1.0000
  H   H11       1.0  0.908409506527106  0.7080795148787803  0.42170978513038415  1.0000
  H   H12       1.0  0.8961642788063151  0.888985330181575  0.7832635183148839  1.0000
  H   H13       1.0  0.9006515476961563  0.45172930325454946  0.6627479679111024  1.0000
  H   H14       1.0  0.8344341963331015  0.08807305700511892  0.2298708643949292  1.0000
  H   H15       1.0  0.8440741367647152  0.10626300541642908  0.9916086481987736  1.0000
  H   H16       1.0  0.004962913270958991  0.7908794064699175  0.01683652772311439  1.0000
  H   H17       1.0  0.9972475038902202  0.7725973903917014  0.25540071765758277  1.0000
  C   C27       1.0  0.9024658805294412  0.4020593342371075  0.22947156364526045  1.0000
  C   C28       1.0  0.8288803093051665  0.35427973468415686  0.22876725261400876  1.0000
  C   C29       1.0  0.7915676356420076  0.3301857935951671  0.11126129701861665  1.0000
  C   C30       1.0  0.8288287402576398  0.3545121002427227  0.993460076582791  1.0000
  C   C31       1.0  0.9024147889452414  0.40228946344318284  0.9921732660731588  1.0000
  C   C32       1.0  0.9388211765614599  0.4257960374483316  0.11067845983431934  1.0000
  C   C33       1.0  0.713718366178477  0.27963831318078225  0.11156952543191889  1.0000
  C   C34       1.0  0.6925866712918245  0.18162233088718627  0.20585425344204933  1.0000
  C   C35       1.0  0.6193114599251359  0.13410263785674692  0.20601048810276223  1.0000
  C   C36       1.0  0.5660088093404995  0.18373026157554073  0.11215416257060573  1.0000
  C   C37       1.0  0.5866446842734363  0.2813663407499454  0.018005046095916022  1.0000
  C   C38       1.0  0.6598973560328989  0.3289877609007119  0.017581453945746617  1.0000
  N   N3        1.0  0.4910652627211612  0.1350690305090303  0.11245067556008892  1.0000
  H   H18       1.0  0.9305181188230384  0.42021161953902575  0.5571981493628162  1.0000
  H   H19       1.0  0.8000344594255785  0.3373733141796893  0.31967112903964456  1.0000
  H   H20       1.0  0.8006897765473332  0.33441868124123975  0.9027816431963207  1.0000
  H   H21       1.0  0.9955892197604519  0.46265490854399083  0.11045382403197146  1.0000
  H   H22       1.0  0.9304431430959593  0.42055011716010426  0.664224787966178  1.0000
  H   H23       1.0  0.7329908309697355  0.14051888709763838  0.2784382454205583  1.0000
  H   H24       1.0  0.6041425222162018  0.05837036487589198  0.2791008404651325  1.0000
  H   H25       1.0  0.5459265944860601  0.32081098120520846  0.9451359328415547  1.0000
  H   H26       1.0  0.6741882115949944  0.40560468098559  0.9447810849010754  1.0000
  H   H27       1.0  0.45093910821554367  0.17145500332237873  0.042865180468018016  1.0000
  H   H28       1.0  0.4751530213253304  0.062297375133892885  0.18225835527128598  1.0000
  Zn  Zn1       1.0  0.8201218179957389  0.4038783558118153  0.6068820125347072  1.0000
  Zn  Zn2       1.0  0.9847516712410131  0.4004699326357395  0.6147619135280178  1.0000
  C   C39       1.0  0.9024218185906356  0.3970723608504938  0.8480061120562341  1.0000
  C   C40       1.0  0.9024534686948985  0.40727752901379044  0.37363802756300557  1.0000
  C   C41       1.0  0.9024808889278466  0.6393619233392691  0.6056542439595825  1.0000
  C   C42       1.0  0.9023943418864994  0.1649864074267866  0.6159899621606166  1.0000
  O   O1        1.0  0.9649254734480919  0.4077296583501544  0.4250119910258767  1.0000
  O   O2        1.0  0.9649000630181146  0.3940323373665653  0.8026124372618497  1.0000
  O   O3        1.0  0.9649469207633544  0.5896842410900651  0.606911548821182  1.0000
  O   O4        1.0  0.9648785595340824  0.21207776505044373  0.6207127794078786  1.0000
  O   O5        1.0  0.8399948735225811  0.59227052456165  0.6009311439589922  1.0000
  O   O6        1.0  0.8399480160684412  0.39662018110091757  0.7966319632028467  1.0000
  O   O7        1.0  0.8399734266445389  0.41031745635706973  0.419029955641137  1.0000
  O   O8        1.0  0.8399265127192107  0.2146655537981086  0.6147308413859511  1.0000
