data_image0
_chemical_formula_structural       NC10NC3NCH9C12SCH12C12NCOH11Zn2C4O8
_chemical_formula_sum              "N4 C44 H32 S1 O9 Zn2"
_cell_length_a       19.437513618241372
_cell_length_b       10.299776766347529
_cell_length_c       10.299148425239203
_cell_angle_alpha    85.5384344644465
_cell_angle_beta     90.33234682354211
_cell_angle_gamma    89.50378728869872

_space_group_name_H-M_alt    "P 1"
_space_group_IT_number       1

loop_
  _space_group_symop_operation_xyz
  'x, y, z'

loop_
  _atom_site_type_symbol
  _atom_site_label
  _atom_site_symmetry_multiplicity
  _atom_site_fract_x
  _atom_site_fract_y
  _atom_site_fract_z
  _atom_site_occupancy
  N   N1        1.0  0.6477979509716718  0.41105688850073974  0.5756781313923027  1.0000
  C   C1        1.0  0.5888620223973998  0.4280680740416303  0.5727037184172521  1.0000
  C   C2        1.0  0.5154183085294309  0.44932198136642576  0.5690117068339609  1.0000
  C   C3        1.0  0.47367411202699516  0.3481391016746276  0.5573408388016539  1.0000
  C   C4        1.0  0.3977831338049295  0.35820713940581883  0.550120052815638  1.0000
  C   C5        1.0  0.35818899862517933  0.4390231641333231  0.6158757900123728  1.0000
  C   C6        1.0  0.2820090192053682  0.4304190570375501  0.6074301775318027  1.0000
  C   C7        1.0  0.2488932611666974  0.3090740605802571  0.6120609786439675  1.0000
  C   C8        1.0  0.17716031975745533  0.302705820669781  0.6048917381162577  1.0000
  C   C9        1.0  0.1375725567023973  0.41720972629129527  0.5934539034419579  1.0000
  C   C10       1.0  0.0637252145410592  0.41050339208772746  0.5861165237361936  1.0000
  N   N2        1.0  0.004357049331016  0.40511208922484476  0.5802177289533974  1.0000
  C   C11       1.0  0.1699717033091714  0.5382437983691375  0.5895683978808739  1.0000
  C   C12       1.0  0.2416890011344044  0.5448659956854631  0.5967996912144742  1.0000
  C   C13       1.0  0.38684930127571626  0.5312631793723395  0.705811876858691  1.0000
  N   N3        1.0  0.4438257347960863  0.5944845842453457  0.6854129691267843  1.0000
  C   C14       1.0  0.4876777808892551  0.5852785758900039  0.5722964748513828  1.0000
  H   H1        1.0  0.4960748356129124  0.2530903209596784  0.5452086707559682  1.0000
  H   H2        1.0  0.37308544946545635  0.28872444485111215  0.491790426073482  1.0000
  H   H3        1.0  0.2783574626751409  0.21915834013290136  0.6230730350283524  1.0000
  H   H4        1.0  0.1525819493962766  0.20847923296470627  0.6087691586266233  1.0000
  H   H5        1.0  0.13982212771468652  0.6275034948579861  0.5808685820614714  1.0000
  H   H6        1.0  0.2657857830410107  0.6395053836737503  0.5929068537431041  1.0000
  H   H7        1.0  0.3568354497696777  0.5516072940308501  0.7901866247140827  1.0000
  H   H8        1.0  0.5304183026912096  0.6555870368146186  0.5780677600823809  1.0000
  H   H9        1.0  0.458013871406484  0.6134310634960027  0.4816475238403304  1.0000
  C   C15       1.0  0.8261456687776307  0.026718188798906084  0.5779472220028732  1.0000
  C   C16       1.0  0.8302614370301133  0.015031240601456997  0.7145224811618094  1.0000
  C   C17       1.0  0.8322806886314813  0.8919718521256562  0.7837307676367047  1.0000
  C   C18       1.0  0.8301298787467225  0.7797456513730203  0.7145359975168717  1.0000
  C   C19       1.0  0.8260159480906992  0.7894406217323268  0.5779600123225141  1.0000
  C   C20       1.0  0.8240464848114957  0.913365044645667  0.5104301338423991  1.0000
  C   C21       1.0  0.8366271250393456  0.8806724121473878  0.9282118853840755  1.0000
  C   C22       1.0  0.7972412238783797  0.7878379816546681  0.0017579837594902115  1.0000
  C   C23       1.0  0.8013523925248396  0.7774379990280109  0.13772855560958142  1.0000
  C   C24       1.0  0.8446776788158197  0.8595959941357189  0.20195763290586854  1.0000
  C   C25       1.0  0.8842275783986425  0.9518533346429918  0.12978677751029755  1.0000
  C   C26       1.0  0.880217295535893  0.9626015282957436  0.99380707442929  1.0000
  S   S1        1.0  0.8500287430171896  0.8457895829639179  0.37642754953554625  1.0000
  C   C27       1.0  0.7808905603463565  0.9629960438155213  0.39507729394188074  1.0000
  H   H10       1.0  0.8246044414559981  0.35862447724967095  0.5259061932140374  1.0000
  H   H11       1.0  0.8309574863153967  0.10182877380747679  0.7674931517567343  1.0000
  H   H12       1.0  0.8326198597540683  0.6846685482574255  0.7673333588158504  1.0000
  H   H13       1.0  0.8208718150045347  0.9216125321259058  0.4050681345489633  1.0000
  H   H14       1.0  0.8244140044100668  0.46568164641012305  0.5259228765762944  1.0000
  H   H15       1.0  0.7626137061264431  0.7244707621478429  0.95419989183792  1.0000
  H   H16       1.0  0.7705847939293067  0.7058656229602798  0.1930619846448819  1.0000
  H   H17       1.0  0.9181226407576759  0.015287983805679195  0.17892458281376888  1.0000
  H   H18       1.0  0.9118530454873328  0.033789893874985655  0.9398978340006667  1.0000
  H   H19       1.0  0.7946701304054116  0.059116247079156414  0.3463718655404967  1.0000
  H   H20       1.0  0.7729040780701566  0.9737649943346068  0.5002618013861411  1.0000
  H   H21       1.0  0.7324836829928228  0.9282880644267033  0.3523361340227271  1.0000
  C   C28       1.0  0.8261325187419253  0.408234384661154  0.1965580543357952  1.0000
  C   C29       1.0  0.8959306558221322  0.4426291983908526  0.19347795026045822  1.0000
  C   C30       1.0  0.9312105238972153  0.4598557088313793  0.07478274098632198  1.0000
  C   C31       1.0  0.8957856758737197  0.44229146859251856  0.958218942983196  1.0000
  C   C32       1.0  0.8260290668524609  0.40792443585780136  0.9593491201689908  1.0000
  C   C33       1.0  0.791611731597019  0.3910884089164144  0.07902970386164765  1.0000
  C   C34       1.0  0.005007008063068863  0.49621772263969843  0.07261649300677231  1.0000
  C   C35       1.0  0.05124779223140408  0.43807639068140314  0.9896060947959455  1.0000
  C   C36       1.0  0.12065693307522452  0.47243213991541233  0.9877163521419723  1.0000
  C   C37       1.0  0.14545068865216826  0.5642907902333931  0.06954275145606381  1.0000
  C   C38       1.0  0.09914131164854778  0.6242794627302823  0.15098391460201488  1.0000
  C   C39       1.0  0.029701060587704387  0.590030899671734  0.1529701044264069  1.0000
  N   N4        1.0  0.21689620271754562  0.5993061948191349  0.06391766578117952  1.0000
  C   C40       1.0  0.25646437676497413  0.635319145556394  0.17315223087368925  1.0000
  O   O1        1.0  0.23318751880646893  0.6215448357427122  0.2872157831471269  1.0000
  H   H22       1.0  0.6945015656057913  0.342550164475798  0.40972585001848283  1.0000
  H   H23       1.0  0.9232253366653276  0.4543694119167718  0.2837520951707637  1.0000
  H   H24       1.0  0.9224772105438527  0.45723797023464874  0.8663261673571983  1.0000
  H   H25       1.0  0.7378075206463057  0.3645767087770746  0.08061654353052594  1.0000
  H   H26       1.0  0.799200825653141  0.39466962127103344  0.6323107039059259  1.0000
  H   H27       1.0  0.033914366972546794  0.3648563583802942  0.927211175161426  1.0000
  H   H28       1.0  0.15542795423434264  0.4263149274406304  0.9232032751195627  1.0000
  H   H29       1.0  0.11608394479019912  0.6996705264889118  0.21096729103277734  1.0000
  H   H30       1.0  0.9950107684079026  0.638812992442876  0.21559168562352404  1.0000
  H   H31       1.0  0.24335877617738588  0.5899257617550258  0.977071338480338  1.0000
  H   H32       1.0  0.3081173621687019  0.6714973379675229  0.1579866943555306  1.0000
  Zn  Zn1       1.0  0.7506932097415352  0.4093378556018914  0.5769956706081276  1.0000
  Zn  Zn2       1.0  0.9014617971387977  0.4068204483145281  0.5789108601766972  1.0000
  C   C41       1.0  0.8260479726553763  0.4028094047550195  0.8151651991986197  1.0000
  C   C42       1.0  0.8261086803172195  0.4133505102275621  0.34074148000279925  1.0000
  C   C43       1.0  0.8260376102256058  0.6452720147219853  0.5727819981508966  1.0000
  C   C44       1.0  0.8261189915562333  0.17088634079995457  0.5831247496143497  1.0000
  O   O2        1.0  0.883316574068053  0.4141065200567968  0.3898575591538409  1.0000
  O   O3        1.0  0.8832699484087779  0.4001417614798759  0.7675023307271065  1.0000
  O   O4        1.0  0.8832608091349402  0.5959333977161454  0.5717761712045  1.0000
  O   O5        1.0  0.8833256619064106  0.21831489400927384  0.5855836206416096  1.0000
  O   O6        1.0  0.7688292935240036  0.5978434107676298  0.5703229094828239  1.0000
  O   O7        1.0  0.7688384325386795  0.4020533348524862  0.7660489997812119  1.0000
  O   O8        1.0  0.7688850584631701  0.41601804880749893  0.3884026666980276  1.0000
  O   O9        1.0  0.7688941462870892  0.22022641343171334  0.584128825560243  1.0000
