data_image0
_chemical_formula_structural       NC9NC5H8C13OH12C12NCOCH13Zn2C4O8
_chemical_formula_sum              "N3 C45 H33 O10 Zn2"
_cell_length_a       17.807436237873137
_cell_length_b       10.299150109392551
_cell_length_c       10.299158637457994
_cell_angle_alpha    85.56061603079257
_cell_angle_beta     89.37443015321585
_cell_angle_gamma    88.37145022261349

_space_group_name_H-M_alt    "P 1"
_space_group_IT_number       1

loop_
  _space_group_symop_operation_xyz
  'x, y, z'

loop_
  _atom_site_type_symbol
  _atom_site_label
  _atom_site_symmetry_multiplicity
  _atom_site_fract_x
  _atom_site_fract_y
  _atom_site_fract_z
  _atom_site_occupancy
  N   N1        1.0  0.7074208828720957  0.3873515203153526  0.5566085018832341  1.0000
  C   C1        1.0  0.6468419346430865  0.3521546965652822  0.5455970884943164  1.0000
  C   C2        1.0  0.5714883812369256  0.3083737238909767  0.5319000858254526  1.0000
  C   C3        1.0  0.5534297005231036  0.23691416866995785  0.4269213872054116  1.0000
  C   C4        1.0  0.480265324168649  0.19429468177887665  0.41353989070118735  1.0000
  C   C5        1.0  0.4241109861842929  0.2227571755630111  0.5051047765966044  1.0000
  C   C6        1.0  0.3463560780101642  0.1775785940639063  0.4909657454760781  1.0000
  C   C7        1.0  0.2841597272109091  0.2593513695793721  0.5168756117166877  1.0000
  C   C8        1.0  0.2108530811828967  0.21652883179297056  0.5035078696307194  1.0000
  C   C9        1.0  0.1476060731641026  0.3009933276320669  0.529780675298618  1.0000
  N   N2        1.0  0.0967684682300347  0.3688969390938026  0.5509032866605974  1.0000
  C   C10       1.0  0.1991592937317115  0.09167550670587188  0.4642050040479484  1.0000
  C   C11       1.0  0.2604982788377191  0.00988887462473409  0.438286752971182  1.0000
  C   C12       1.0  0.333685603722117  0.05231676305185462  0.4514520956848036  1.0000
  C   C13       1.0  0.4428609388884785  0.29471122030881847  0.610302530152659  1.0000
  C   C14       1.0  0.5160782508110724  0.3371402394451266  0.6235284421113039  1.0000
  H   H1        1.0  0.595842093549578  0.21440085770455686  0.3552156545614742  1.0000
  H   H2        1.0  0.4673781184788278  0.14057750933178847  0.3306375220676887  1.0000
  H   H3        1.0  0.2926337296885754  0.3568352924425888  0.5457179795501303  1.0000
  H   H4        1.0  0.1427025570470532  0.05763262400390001  0.4536222211283145  1.0000
  H   H5        1.0  0.2513260018514085  0.9132246856922491  0.40824366056106887  1.0000
  H   H6        1.0  0.3803421842448354  0.9865590460306174  0.43242708925430096  1.0000
  H   H7        1.0  0.4011652863627296  0.3166859063517169  0.68330297466258  1.0000
  H   H8        1.0  0.529493772346772  0.3920777248344969  0.7053887288211702  1.0000
  C   C15       1.0  0.9021690447712436  0.996721125054488  0.5538989533858467  1.0000
  C   C16       1.0  0.9007599198061716  0.9850316068602519  0.6907313015389986  1.0000
  C   C17       1.0  0.8999801433641124  0.8619731768530968  0.7598454673021366  1.0000
  C   C18       1.0  0.9006151403411025  0.7497829973035834  0.6903700254508744  1.0000
  C   C19       1.0  0.9020274819403095  0.7595169870787226  0.5536240297481609  1.0000
  C   C20       1.0  0.9027982467934129  0.8834470388922456  0.48618759644801823  1.0000
  C   C21       1.0  0.8984829152466227  0.8505890205625398  0.9045085497160092  1.0000
  C   C22       1.0  0.852274458448792  0.7599227997982188  0.9732075434204548  1.0000
  C   C23       1.0  0.8508406783856707  0.749292909155598  0.10933572411037873  1.0000
  C   C24       1.0  0.8960821876282834  0.8281493349167165  0.17921858575667227  1.0000
  C   C25       1.0  0.9415717677911775  0.9198034888984559  0.11117270203220264  1.0000
  C   C26       1.0  0.9430229869804321  0.9306083498804973  0.9750439770885413  1.0000
  C   C27       1.0  0.8929618652546272  0.8191558972069372  0.3253516161594775  1.0000
  O   O1        1.0  0.8368031642265836  0.905007233729518  0.36641546116755574  1.0000
  H   H9        1.0  0.9043407487605986  0.22610160898503429  0.2956286361135074  1.0000
  H   H10       1.0  0.8992241094555572  0.07189499966612978  0.7437627596674452  1.0000
  H   H11       1.0  0.9010340122312646  0.6546577050542233  0.7431977773980298  1.0000
  H   H12       1.0  0.903885502297656  0.8916714657993317  0.38071134934830697  1.0000
  H   H13       1.0  0.9025201522212066  0.43578794969045276  0.5010274648038802  1.0000
  H   H14       1.0  0.816355726090948  0.6985999049006602  0.9216248030312544  1.0000
  H   H15       1.0  0.814285741498129  0.6797121408062651  0.16024728876732852  1.0000
  H   H16       1.0  0.9761065275225019  0.9827451923671248  0.16352193304992813  1.0000
  H   H17       1.0  0.9796029463209325  0.0006336245924607464  0.9249386947614069  1.0000
  H   H18       1.0  0.9482157092094615  0.8443790384407254  0.36471226345710805  1.0000
  H   H19       1.0  0.8807459427065539  0.7177257753699992  0.3633434684351795  1.0000
  H   H20       1.0  0.8370635635142211  0.8953487134731939  0.46303901204121733  1.0000
  C   C28       1.0  0.9021687233173847  0.37797776108054215  0.17238740567817645  1.0000
  C   C29       1.0  0.9038888895126966  0.5146104825578774  0.1609990053823449  1.0000
  C   C30       1.0  0.9047020476291663  0.5840278273410191  0.03806811015401124  1.0000
  C   C31       1.0  0.9037450055794218  0.514977201162153  0.9256895044489108  1.0000
  C   C32       1.0  0.9020278040809921  0.3782604235247504  0.9351355856264498  1.0000
  C   C33       1.0  0.9012535212664147  0.3106011865567053  0.058871918008473356  1.0000
  C   C34       1.0  0.9065226726992907  0.7285684378700865  0.02699410546313219  1.0000
  C   C35       1.0  0.9526211182396416  0.794222792027178  0.10886136267786317  1.0000
  C   C36       1.0  0.9543405451228627  0.9302428394099771  0.09830919324025222  1.0000
  C   C37       1.0  0.9104720484305788  0.0033132246417335587  0.004776667542714774  1.0000
  C   C38       1.0  0.8634788569561797  0.9380616972575668  0.9247054696685271  1.0000
  C   C39       1.0  0.8617902685878649  0.8020680998635901  0.9349961902304869  1.0000
  N   N3        1.0  0.9101591558922351  0.14338529296120361  0.9934950095849304  1.0000
  C   C40       1.0  0.9745111482618125  0.2193293369637499  0.015754927147362707  1.0000
  O   O2        1.0  0.03929400354003931  0.16684207411605234  0.023339733535794993  1.0000
  C   C41       1.0  0.9656719373628891  0.36357502002644404  0.02043477574779562  1.0000
  H   H21       1.0  0.9015306111848518  0.3254199944050078  0.5042433006901299  1.0000
  H   H22       1.0  0.9035506741838433  0.5674480088026332  0.24793563312328248  1.0000
  H   H23       1.0  0.9053638977999696  0.5679183341249086  0.8306749195742582  1.0000
  H   H24       1.0  0.8999292886707024  0.2052130543743731  0.06694112240414407  1.0000
  H   H25       1.0  0.899242764796838  0.12017766111166406  0.745665675835816  1.0000
  H   H26       1.0  0.9877925743946429  0.7403244688368  0.1805574984976046  1.0000
  H   H27       1.0  0.9889985520549276  0.9779436437718669  0.16481494033382993  1.0000
  H   H28       1.0  0.8283286293205582  0.9928340919420673  0.8535779955528837  1.0000
  H   H29       1.0  0.8246710190608668  0.7544371713594724  0.8722107669989576  1.0000
  H   H30       1.0  0.8614506540451805  0.19315282511663856  0.9592447739326109  1.0000
  H   H31       1.0  0.9128416351830327  0.3877955329779952  0.0726188220800632  1.0000
  H   H32       1.0  0.9636434104667737  0.41034226397588647  0.9197287552417763  1.0000
  H   H33       1.0  0.013594049587442258  0.40207449542215734  0.07237251914188447  1.0000
  Zn  Zn1       1.0  0.8197781836982022  0.38202246400356565  0.5549696121525394  1.0000
  Zn  Zn2       1.0  0.9844111491989833  0.3742154122431738  0.5525528569637712  1.0000
  C   C42       1.0  0.9020537228058253  0.3730329136142052  0.7909617115789644  1.0000
  C   C43       1.0  0.9021374075505435  0.3832065161928133  0.31656085802394474  1.0000
  C   C44       1.0  0.9020513288916072  0.6153306364872524  0.5485007928140315  1.0000
  C   C45       1.0  0.9021397455638398  0.14090723556760798  0.5590218474155682  1.0000
  O   O3        1.0  0.964604251160325  0.3819929324704743  0.3640296417151967  1.0000
  O   O4        1.0  0.9645394909145294  0.3683201457448275  0.7416582931214215  1.0000
  O   O5        1.0  0.9645367153244369  0.5639786616772298  0.5458693976444846  1.0000
  O   O6        1.0  0.9646069705886047  0.18633442845705783  0.559818440637474  1.0000
  O   O7        1.0  0.8395823061274305  0.5699034504552565  0.5477040292967252  1.0000
  O   O8        1.0  0.8395850814372943  0.3742464949405868  0.7434928549648598  1.0000
  O   O9        1.0  0.8396498420299344  0.38791923582527166  0.3658626421524038  1.0000
  O   O10       1.0  0.8396525614388766  0.19226072255844473  0.5616515384472291  1.0000
