data_image0
_chemical_formula_structural       NC11NC3H8C12ClH9C13NH13Zn2C4O8
_chemical_formula_sum              "N3 C43 H30 Cl1 Zn2 O8"
_cell_length_a       17.807433833752565
_cell_length_b       10.299768534541528
_cell_length_c       10.299780419254978
_cell_angle_alpha    85.5745780732884
_cell_angle_beta     88.51101288378402
_cell_angle_gamma    90.7030232555817

_space_group_name_H-M_alt    "P 1"
_space_group_IT_number       1

loop_
  _space_group_symop_operation_xyz
  'x, y, z'

loop_
  _atom_site_type_symbol
  _atom_site_label
  _atom_site_symmetry_multiplicity
  _atom_site_fract_x
  _atom_site_fract_y
  _atom_site_fract_z
  _atom_site_occupancy
  N   N1        1.0  0.7078748916936813  0.4381481247162402  0.5347484237306939  1.0000
  C   C1        1.0  0.6570401264228669  0.40343609322860874  0.6013072844440794  1.0000
  C   C2        1.0  0.5937965544606872  0.36025718666625517  0.6840980132895012  1.0000
  C   C3        1.0  0.6054955730001498  0.2967340604111479  0.8068100122544228  1.0000
  C   C4        1.0  0.5441600096606932  0.2552344210992237  0.8873169441666156  1.0000
  C   C5        1.0  0.470970936872893  0.2769447807905103  0.8457526397132964  1.0000
  C   C6        1.0  0.4582952148234442  0.34062235751604963  0.7225804656409525  1.0000
  C   C7        1.0  0.38053853931313275  0.3636622235492346  0.6782356533191183  1.0000
  C   C8        1.0  0.3617690241036298  0.34676199593369805  0.5486599464243467  1.0000
  C   C9        1.0  0.2885500074399951  0.3684336183628174  0.5070515711929466  1.0000
  C   C10       1.0  0.2331576003397668  0.40732381549545216  0.5941986690324967  1.0000
  C   C11       1.0  0.1578021654894759  0.42965360257649077  0.5512290696716886  1.0000
  N   N2        1.0  0.0972217685881763  0.4476050924554287  0.516684639103667  1.0000
  C   C12       1.0  0.2512356617484283  0.42443450320653064  0.7232432680619933  1.0000
  C   C13       1.0  0.3244018762835959  0.4027280064955925  0.7651070616970674  1.0000
  C   C14       1.0  0.520488087019501  0.38211743549489974  0.6420899487965417  1.0000
  H   H1        1.0  0.6619536935419275  0.27932696284975345  0.8401737999615642  1.0000
  H   H2        1.0  0.5533363270899869  0.20580309845070155  0.9820481090838737  1.0000
  H   H3        1.0  0.4243168214183615  0.24240279735737547  0.9091883434558261  1.0000
  H   H4        1.0  0.40345061136539057  0.31510551821917576  0.479945326275695  1.0000
  H   H5        1.0  0.27511922286178664  0.35453129626502977  0.407020622163093  1.0000
  H   H6        1.0  0.2088371318140876  0.4548678532289083  0.7914431088243901  1.0000
  H   H7        1.0  0.33730454019636197  0.41817568449694376  0.8649553028516628  1.0000
  H   H8        1.0  0.5120104693981575  0.43291114955219623  0.5475931253671291  1.0000
  C   C15       1.0  0.9024810632610571  0.06150957842331484  0.5257175067065247  1.0000
  C   C16       1.0  0.9074474252602612  0.0711667336942341  0.38902376789202253  1.0000
  C   C17       1.0  0.9100361439701438  0.9589224796989636  0.31976400103850877  1.0000
  C   C18       1.0  0.9075909092734796  0.8358825046801222  0.38903260023811326  1.0000
  C   C19       1.0  0.9026227799310936  0.824233777430885  0.5257263590017498  1.0000
  C   C20       1.0  0.9000962319869837  0.9376049543745655  0.5933033005799297  1.0000
  C   C21       1.0  0.9152911398470794  0.9701926369868596  0.17515337437567569  1.0000
  C   C22       1.0  0.8725613703095406  0.06267892133461017  0.10267508582512641  1.0000
  C   C23       1.0  0.877574458547585  0.07309254719112301  0.966568333244374  1.0000
  C   C24       1.0  0.9252449940120985  0.9915399051626025  0.901251436263375  1.0000
  C   C25       1.0  0.9679626552804173  0.8993652480958129  0.9722191281077435  1.0000
  C   C26       1.0  0.9630829793222214  0.8885626146194957  0.10833433365735656  1.0000
  Cl  Cl1       1.0  0.9314509501642445  0.004849356087673229  0.7304855114464632  1.0000
  H   H9        1.0  0.9005500879087174  0.38528254020666153  0.5778030855298939  1.0000
  H   H10       1.0  0.9103509694841168  0.1662383547972488  0.3361586327846675  1.0000
  H   H11       1.0  0.9085338998191642  0.7490603041641789  0.33604487895646207  1.0000
  H   H12       1.0  0.8962641514671505  0.929386696432166  0.6987562629763029  1.0000
  H   H13       1.0  0.9007596019733987  0.49234204878731735  0.5778165930111012  1.0000
  H   H14       1.0  0.8345699667842525  0.1257420490783323  0.15117925320351544  1.0000
  H   H15       1.0  0.8442260980718984  0.14438446262682691  0.9120060824849947  1.0000
  H   H16       1.0  0.005116446591250101  0.8362347990967398  0.9220644133364502  1.0000
  H   H17       1.0  0.9973848651452024  0.8175868492793885  0.1613581015860397  1.0000
  C   C27       1.0  0.9026030586553089  0.4427880682142771  0.14436542719195122  1.0000
  C   C28       1.0  0.9570143331604127  0.5431379136033456  0.13318144389326814  1.0000
  C   C29       1.0  0.9845270476312926  0.5940798525518725  0.01037319951851523  1.0000
  C   C30       1.0  0.9569111837401528  0.5433076392236615  0.8978860571610658  1.0000
  C   C31       1.0  0.9025008012672828  0.44295529617934015  0.9070784456701966  1.0000
  C   C32       1.0  0.8756493560661515  0.3932608311787713  0.03075845748710271  1.0000
  C   C33       1.0  0.04209203666939776  0.7002388586527057  0.9996329644738116  1.0000
  C   C34       1.0  0.037032895524070186  0.8046926608818896  0.9040435089404926  1.0000
  C   C35       1.0  0.09123871250601234  0.9045249787119316  0.8940190989465151  1.0000
  C   C36       1.0  0.15112405454043443  0.9022764912118091  0.9799151022783321  1.0000
  C   C37       1.0  0.1569033366822259  0.7975613459090394  0.0744143685371712  1.0000
  C   C38       1.0  0.10271304866413544  0.6977047065168709  0.0846108282311675  1.0000
  C   C39       1.0  0.2104685941138753  0.007934722174089526  0.9667084749122528  1.0000
  N   N3        1.0  0.26805442893879583  0.9766818208545842  0.8711582256723331  1.0000
  H   H18       1.0  0.8819003386375958  0.40450395749354495  0.47608245012551653  1.0000
  H   H19       1.0  0.9773863349919583  0.5831382251228938  0.2201069619305982  1.0000
  H   H20       1.0  0.9786968310790316  0.5809914398718223  0.8030685632841297  1.0000
  H   H21       1.0  0.8336737854801967  0.31584445445013976  0.038617815648227305  1.0000
  H   H22       1.0  0.8817537005840079  0.404739101666719  0.5831265192121693  1.0000
  H   H23       1.0  0.9907010833205342  0.8099136475242199  0.8378915080783824  1.0000
  H   H24       1.0  0.08641476372741996  0.983807155578518  0.8194052568965997  1.0000
  H   H25       1.0  0.2035142378677952  0.7929993912456736  0.14002690985293387  1.0000
  H   H26       1.0  0.10884618634415655  0.6174371805923793  0.15769802197362903  1.0000
  H   H27       1.0  0.184527584834991  0.10233023443317268  0.9346334074941409  1.0000
  H   H28       1.0  0.2363788119311272  0.019874295504340722  0.06236327818466059  1.0000
  H   H29       1.0  0.30597980064930663  0.05529373129471127  0.8594607326031731  1.0000
  H   H30       1.0  0.2981795556233233  0.8971109352612607  0.9105314044468131  1.0000
  Zn  Zn1       1.0  0.820231988159548  0.4408737283429258  0.5295430899217888  1.0000
  Zn  Zn2       1.0  0.9848646539691234  0.4448688716084752  0.5219005584584231  1.0000
  C   C40       1.0  0.9025174719172298  0.4377500199626092  0.7629094022049014  1.0000
  C   C41       1.0  0.902580968282383  0.4479942622554245  0.28853429020053234  1.0000
  C   C42       1.0  0.9025928131928458  0.6800614746346303  0.5205498988244355  1.0000
  C   C43       1.0  0.9025055705299683  0.2056812459401176  0.5308938654070383  1.0000
  O   O1        1.0  0.9650507921831647  0.4512519788685718  0.33401837669798096  1.0000
  O   O2        1.0  0.9650000318934415  0.4375235448468373  0.711624437317576  1.0000
  O   O3        1.0  0.9650600285221764  0.6331930887989783  0.5159174627179168  1.0000
  O   O4        1.0  0.9649907393912367  0.2555824428219833  0.5297252565341215  1.0000
  O   O5        1.0  0.8401058465563868  0.6301601557674836  0.5217183944472803  1.0000
  O   O6        1.0  0.8400458502234028  0.4344921720966941  0.7174252998220896  1.0000
  O   O7        1.0  0.8400966107640654  0.4482205605214853  0.33981767784967265  1.0000
  O   O8        1.0  0.8400365579542824  0.2525510152074104  0.5355246550505217  1.0000
