data_image0
_chemical_formula_structural       NC8NC6H8C13OH12C12SCH12Zn2C4O8
_chemical_formula_sum              "N2 C44 H32 O9 S1 Zn2"
_cell_length_a       17.457602349358154
_cell_length_b       10.299150109392551
_cell_length_c       10.299780138516091
_cell_angle_alpha    85.5566253413432
_cell_angle_beta     92.86764560524759
_cell_angle_gamma    91.67070309183428

_space_group_name_H-M_alt    "P 1"
_space_group_IT_number       1

loop_
  _space_group_symop_operation_xyz
  'x, y, z'

loop_
  _atom_site_type_symbol
  _atom_site_label
  _atom_site_symmetry_multiplicity
  _atom_site_fract_x
  _atom_site_fract_y
  _atom_site_fract_z
  _atom_site_occupancy
  N   N1        1.0  0.7222606478819641  0.4525354872522014  0.6260240225201557  1.0000
  C   C1        1.0  0.6611922803972766  0.40660419304836926  0.6154262161856572  1.0000
  C   C2        1.0  0.5852206463579945  0.34947138054806426  0.6022520844272168  1.0000
  C   C3        1.0  0.5266783450555855  0.38965732892686256  0.6771308313035065  1.0000
  C   C4        1.0  0.4521443424703134  0.33464309519400404  0.6645703049481968  1.0000
  C   C5        1.0  0.39001036189072685  0.3770736063619462  0.7438697862219861  1.0000
  C   C6        1.0  0.3154647074997543  0.3955272715357414  0.6881020558904005  1.0000
  C   C7        1.0  0.2569224294919479  0.4355293131650033  0.7630888207263404  1.0000
  C   C8        1.0  0.18093868412623443  0.4545882374502175  0.7051055101734314  1.0000
  N   N2        1.0  0.1198606705567875  0.4699052324994437  0.658487081944914  1.0000
  C   C9        1.0  0.27243355594185  0.4573209927232027  0.8943517161404335  1.0000
  C   C10       1.0  0.3461944012231819  0.43925645090410326  0.950506878021943  1.0000
  C   C11       1.0  0.4047250031507305  0.39943460650313356  0.8759777435585254  1.0000
  C   C12       1.0  0.43744153135966424  0.23876503873049582  0.5756984397828984  1.0000
  C   C13       1.0  0.4959720293254725  0.19885790326396569  0.5012195708101386  1.0000
  C   C14       1.0  0.5697212004619587  0.25398467742502806  0.5143299770671967  1.0000
  H   H1        1.0  0.5390027395996073  0.4648757095429825  0.7437297565472296  1.0000
  H   H2        1.0  0.3031307973132764  0.3805268081438671  0.5860883173411289  1.0000
  H   H3        1.0  0.2275619699166911  0.4882226444586175  0.9531729326668881  1.0000
  H   H4        1.0  0.3580143352669082  0.4558145710477879  0.05214678477907686  1.0000
  H   H5        1.0  0.4612097301836758  0.3844549977400513  0.9220875803114965  1.0000
  H   H6        1.0  0.3809663330282644  0.1934234413800251  0.5650642950715232  1.0000
  H   H7        1.0  0.4841613298430702  0.12475571522251094  0.4334219611657093  1.0000
  H   H8        1.0  0.6145929539342617  0.2222134164168339  0.4560201894013749  1.0000
  C   C15       1.0  0.9211366224443983  0.0798240586182628  0.6424058740614762  1.0000
  C   C16       1.0  0.9197123728009691  0.06799596334714408  0.7790937672359666  1.0000
  C   C17       1.0  0.918923514912684  0.9448612788417369  0.848128300015069  1.0000
  C   C18       1.0  0.9195644854945785  0.8327340561836213  0.7787183150135184  1.0000
  C   C19       1.0  0.9209920292607416  0.8426069133669393  0.6421170856310192  1.0000
  C   C20       1.0  0.9217718653287952  0.966612281109984  0.5747593244415758  1.0000
  C   C21       1.0  0.9174101384039677  0.9333299284233387  0.9926379290969221  1.0000
  C   C22       1.0  0.8702295971877886  0.8384075846621425  0.056803909178691936  1.0000
  C   C23       1.0  0.8687800939491739  0.8276368943472875  0.1927852504483294  1.0000
  C   C24       1.0  0.9149881243525162  0.9106514367054781  0.2670999368698952  1.0000
  C   C25       1.0  0.9614346211805814  0.006495527210266694  0.20351656472130442  1.0000
  C   C26       1.0  0.9629019331463323  0.01744279247506486  0.06753638879067891  1.0000
  C   C27       1.0  0.9118174070248499  0.9013613680076806  0.4129203332035799  1.0000
  O   O1        1.0  0.8544727269272976  0.98204286117439  0.4484770123264874  1.0000
  H   H9        1.0  0.9233265297272442  0.30942120404087614  0.3843603747049327  1.0000
  H   H10       1.0  0.9181497222089705  0.15471458775011415  0.8319722204887439  1.0000
  H   H11       1.0  0.9199979288714291  0.7376438592447767  0.8315846901207462  1.0000
  H   H12       1.0  0.9228708016610915  0.9749436250042959  0.4693945315384347  1.0000
  H   H13       1.0  0.9214894750568967  0.5189266366407088  0.5895712458587916  1.0000
  H   H14       1.0  0.8335439318838312  0.7737831689947209  0.0017024162945897814  1.0000
  H   H15       1.0  0.8314557829521303  0.7546893839325999  0.2401109628800021  1.0000
  H   H16       1.0  0.9967070601876373  0.07261136205932028  0.2592488412075824  1.0000
  H   H17       1.0  0.0002518838840128712  0.09083705898874683  0.02101937442774715  1.0000
  H   H18       1.0  0.968246716026205  0.9316658518294665  0.4576957294702001  1.0000
  H   H19       1.0  0.8993466357358266  0.7988047808062672  0.44971289741733667  1.0000
  H   H20       1.0  0.854749057871662  0.9724019990492243  0.545121629117257  1.0000
  C   C28       1.0  0.9210951833532275  0.4611055450186279  0.26091190949147003  1.0000
  C   C29       1.0  0.848160155776232  0.39990307691888916  0.2584724308797801  1.0000
  C   C30       1.0  0.8111730242961368  0.3690042478912188  0.1400868896429457  1.0000
  C   C31       1.0  0.848097303555513  0.4001257881854501  0.02316332078440908  1.0000
  C   C32       1.0  0.9210334755724249  0.4613254825723949  0.023611055565136763  1.0000
  C   C33       1.0  0.9571239592305671  0.4914734382303907  0.14297511752019298  1.0000
  C   C34       1.0  0.7340128265995045  0.30427214949633696  0.13856884350955379  1.0000
  C   C35       1.0  0.6771859464671163  0.34345390954792565  0.04295746428764269  1.0000
  C   C36       1.0  0.60457959125823  0.2824986922751498  0.04176657201739076  1.0000
  C   C37       1.0  0.5877410567727835  0.1819452646183206  0.1359907248894734  1.0000
  C   C38       1.0  0.6438852964689938  0.1419346855063981  0.23114100790218983  1.0000
  C   C39       1.0  0.7165391480540404  0.20271853396375006  0.2326982490392533  1.0000
  S   S1        1.0  0.49460861598849476  0.10359950442710764  0.1340150487316285  1.0000
  C   C40       1.0  0.455243849145793  0.21610421204228336  0.23948849151286233  1.0000
  H   H21       1.0  0.9488979643823353  0.48437945048990616  0.5892994033974321  1.0000
  H   H22       1.0  0.8194925146136227  0.3777266954226901  0.34868873391062083  1.0000
  H   H23       1.0  0.8202812611065329  0.37490727845543037  0.9318287171649331  1.0000
  H   H24       1.0  0.013390406886369277  0.5386877613150152  0.14408871422090286  1.0000
  H   H25       1.0  0.9488084903098348  0.4847030318079799  0.6963224103901826  1.0000
  H   H26       1.0  0.6885792502623423  0.42232574105126197  0.9701809830659007  1.0000
  H   H27       1.0  0.561346205277784  0.3139459308518704  0.9678932632779325  1.0000
  H   H28       1.0  0.6313192762499865  0.06370765281894575  0.3039463515326972  1.0000
  H   H29       1.0  0.7593601507275056  0.16920212698139858  0.3064378174465068  1.0000
  H   H30       1.0  0.48768650100308036  0.21149092604032993  0.33515365408342057  1.0000
  H   H31       1.0  0.3943657686778562  0.1883139006943786  0.2552994201248455  1.0000
  H   H32       1.0  0.4581902900388033  0.31696301854401754  0.19310118841159052  1.0000
  Zn  Zn1       1.0  0.8369994258784981  0.457544539731658  0.635399659636158  1.0000
  Zn  Zn2       1.0  0.0051218794685727875  0.46488553449730796  0.6491220808485909  1.0000
  C   C41       1.0  0.9210444013306212  0.4561097765508304  0.8794463818254006  1.0000
  C   C42       1.0  0.9210787395874606  0.46632201661618766  0.4050756353472702  1.0000
  C   C43       1.0  0.9210158296308262  0.6984230910424141  0.6369964229706819  1.0000
  C   C44       1.0  0.9211072542090047  0.22400713922439275  0.6475256593454188  1.0000
  O   O2        1.0  0.9848748169434379  0.47085291524264683  0.4586658881768586  1.0000
  O   O3        1.0  0.9848493763767168  0.4571495431914261  0.8362707557247517  1.0000
  O   O4        1.0  0.9848254441825123  0.6528205719480173  0.6404906278627782  1.0000
  O   O5        1.0  0.9848986917749549  0.2751818932438861  0.6544459139830558  1.0000
  O   O6        1.0  0.8572225562001738  0.6472481784813704  0.6300758218120721  1.0000
  O   O7        1.0  0.8572464881006873  0.4515787101212798  0.8258558798409961  1.0000
  O   O8        1.0  0.8572719288533517  0.4652820364652781  0.448249450992964  1.0000
  O   O9        1.0  0.8572958036756141  0.2696110052049774  0.6440295741653179  1.0000
