data_image0
_chemical_formula_structural       NC9NC5H8C12NH11C16H10Zn2C4O8
_chemical_formula_sum              "N3 C46 H29 Zn2 O8"
_cell_length_a       17.807436237873137
_cell_length_b       10.299770795358612
_cell_length_c       10.299151387937775
_cell_angle_alpha    85.58089315832936
_cell_angle_beta     89.38153663469635
_cell_angle_gamma    88.40764042794568

_space_group_name_H-M_alt    "P 1"
_space_group_IT_number       1

loop_
  _space_group_symop_operation_xyz
  'x, y, z'

loop_
  _atom_site_type_symbol
  _atom_site_label
  _atom_site_symmetry_multiplicity
  _atom_site_fract_x
  _atom_site_fract_y
  _atom_site_fract_z
  _atom_site_occupancy
  N   N1        1.0  0.7078242267874776  0.3871029240600192  0.5569908410728746  1.0000
  C   C1        1.0  0.6472316863223273  0.35190872219043445  0.5459700414453093  1.0000
  C   C2        1.0  0.5718612256700573  0.30813101084539696  0.532261363329344  1.0000
  C   C3        1.0  0.5537691212486987  0.23667038659440087  0.4272641520196587  1.0000
  C   C4        1.0  0.4805882828120566  0.1940540708078966  0.41387129012689394  1.0000
  C   C5        1.0  0.4244507666944569  0.2225208394915743  0.505443222067351  1.0000
  C   C6        1.0  0.3466784112111874  0.1773456230623136  0.4912921428188948  1.0000
  C   C7        1.0  0.284513662320082  0.2591123324659752  0.5172238139528664  1.0000
  C   C8        1.0  0.2111904812468569  0.2162929868886334  0.5038446518201756  1.0000
  C   C9        1.0  0.1479760808217337  0.3007511790326174  0.5301399833607612  1.0000
  N   N2        1.0  0.0971646902143098  0.3686497228441401  0.5512807039588585  1.0000
  C   C10       1.0  0.1994484611157822  0.09144894363312361  0.46450849212590284  1.0000
  C   C11       1.0  0.2607558386768976  0.009668378382676535  0.4385684324871917  1.0000
  C   C12       1.0  0.3339595406343053  0.05209309789223626  0.451745090522754  1.0000
  C   C13       1.0  0.4432343386061006  0.2944759214105934  0.6106596197590681  1.0000
  C   C14       1.0  0.5164680322855386  0.33690177620376516  0.6238968469446888  1.0000
  H   H1        1.0  0.5961682592998138  0.21415374999760073  0.35555284133952547  1.0000
  H   H2        1.0  0.4676756707298997  0.14033578618964504  0.3309550315012948  1.0000
  H   H3        1.0  0.2930251941533964  0.3565888654635514  0.546092189561902  1.0000
  H   H4        1.0  0.1429785825907756  0.057408602083594884  0.4539166302537323  1.0000
  H   H5        1.0  0.2515462461187883  0.9130114055155343  0.4084995605020316  1.0000
  H   H6        1.0  0.3805908361255728  0.9863403990135692  0.4327025377287457  1.0000
  H   H7        1.0  0.4015518362560883  0.31645408641224715  0.6836654890306055  1.0000
  H   H8        1.0  0.5299093310423886  0.3918401727019698  0.7057713584536347  1.0000
  C   C15       1.0  0.9024299645560335  0.9965108729119967  0.554176332949389  1.0000
  C   C16       1.0  0.8806401686686659  0.006662297315834564  0.42308489982331876  1.0000
  C   C17       1.0  0.8696680186467204  0.8946666651566912  0.35662373115063484  1.0000
  C   C18       1.0  0.8807776825809274  0.7713741367647563  0.4230143298749278  1.0000
  C   C19       1.0  0.9025661188845643  0.7592314852235135  0.5541063334906164  1.0000
  C   C20       1.0  0.9132706096550751  0.8723600668987624  0.618953106956929  1.0000
  C   C21       1.0  0.8466160081940324  0.9064596725614021  0.2179365987670363  1.0000
  C   C22       1.0  0.7919182121699806  0.00021056416813491907  0.17355143359724634  1.0000
  C   C23       1.0  0.7702538726073364  0.011179390229222097  0.04301757128337824  1.0000
  C   C24       1.0  0.8028773102950398  0.9288353061206538  0.9547947391621916  1.0000
  C   C25       1.0  0.8573949327746475  0.8352906521184285  0.9982919838894952  1.0000
  C   C26       1.0  0.8791194570282067  0.8240629348647677  0.1287949903779293  1.0000
  N   N3        1.0  0.7806854885981235  0.9401879023630915  0.8212840938387802  1.0000
  H   H9        1.0  0.9107009333777537  0.32009649032648113  0.6041458475915276  1.0000
  H   H10       1.0  0.8731462956035059  0.10190066992014302  0.3718423291736248  1.0000
  H   H11       1.0  0.8713979093494282  0.6847680513525205  0.3727395254779742  1.0000
  H   H12       1.0  0.9300798791092839  0.8637606937592933  0.7200843506998147  1.0000
  H   H13       1.0  0.9109011871351116  0.42715057683065233  0.6040432864826237  1.0000
  H   H14       1.0  0.7651865442709026  0.06391713756442208  0.2401470142666584  1.0000
  H   H15       1.0  0.7279023705624177  0.08365367404774937  0.010726980986964119  1.0000
  H   H16       1.0  0.8831975901636787  0.7712822584868734  0.9310207519037967  1.0000
  H   H17       1.0  0.9220470485512154  0.7520709984631623  0.15963758253857696  1.0000
  H   H18       1.0  0.8046848911327096  0.8792266353664796  0.7547921968630051  1.0000
  H   H19       1.0  0.7400925090347353  0.00963837946386481  0.7879445403726004  1.0000
  C   C27       1.0  0.9025415538750426  0.3777003642006309  0.17276975575135878  1.0000
  C   C28       1.0  0.8300658089841468  0.43508835095092313  0.16891941651574394  1.0000
  C   C29       1.0  0.7932743318886564  0.4643613091192531  0.049811901011687754  1.0000
  C   C30       1.0  0.8299351875162444  0.43547213526155804  0.9336089643601566  1.0000
  C   C31       1.0  0.9024545244478916  0.3780419381605751  0.9355129786903094  1.0000
  C   C32       1.0  0.9383119987882931  0.34951151607059816  0.05552647595863047  1.0000
  C   C33       1.0  0.7166037713303308  0.525071159891223  0.04678411595573895  1.0000
  C   C34       1.0  0.697539693810645  0.6257868231881576  0.9517500390108431  1.0000
  C   C35       1.0  0.6253649735764917  0.6828883097377396  0.9490287447674928  1.0000
  C   C36       1.0  0.5713075441780897  0.6401274568052553  0.04105359942570064  1.0000
  C   C37       1.0  0.5896908399347703  0.5400023974494741  0.13593551817755878  1.0000
  C   C38       1.0  0.6618439914098762  0.4828143405305434  0.13890670150547768  1.0000
  C   C39       1.0  0.4970140297014027  0.698959086753363  0.038123868749849965  1.0000
  C   C40       1.0  0.4347942596466503  0.7482296910586523  0.035670175538362825  1.0000
  C   C41       1.0  0.3619355559177442  0.8059251231958666  0.03279692484117813  1.0000
  C   C42       1.0  0.2997258407424456  0.8551880030024839  0.030343734646314235  1.0000
  H   H20       1.0  0.9304028437590306  0.35556467925604074  0.5017314452066792  1.0000
  H   H21       1.0  0.8024662303437806  0.45879078795048733  0.25862605354121815  1.0000
  H   H22       1.0  0.8014322855577314  0.4562020207360602  0.8416523695260909  1.0000
  H   H23       1.0  0.9942134937002683  0.3052431763229655  0.057780880965226045  1.0000
  H   H24       1.0  0.039142090582273026  0.26889606845035474  0.7318754225530668  1.0000
  H   H25       1.0  0.7387316785938107  0.6615364090234261  0.8805961441055468  1.0000
  H   H26       1.0  0.6117924671016599  0.7605806287874017  0.8753685019652524  1.0000
  H   H27       1.0  0.548207743679771  0.5059078023952113  0.20742494462730132  1.0000
  H   H28       1.0  0.6745285514063656  0.4044024716277883  0.21218701758538416  1.0000
  H   H29       1.0  0.24510057451778716  0.8984448164315781  0.02818963849406808  1.0000
  Zn  Zn1       1.0  0.820179471647113  0.3817742669110129  0.5553505300105905  1.0000
  Zn  Zn2       1.0  0.984809424049611  0.3739677987015657  0.5529316926791901  1.0000
  C   C43       1.0  0.9024683827853832  0.37280386160071277  0.7913386596643677  1.0000
  C   C44       1.0  0.9025223109432807  0.3829397574265889  0.3169436639288512  1.0000
  C   C45       1.0  0.902537110763288  0.6150589122927572  0.5489444521800977  1.0000
  C   C46       1.0  0.9024535265022404  0.1406831491415952  0.5593379416207183  1.0000
  O   O1        1.0  0.9649920607887044  0.3817299659663209  0.3644118089163628  1.0000
  O   O2        1.0  0.9649489574034121  0.3680877444387496  0.7420342993515936  1.0000
  O   O3        1.0  0.9650036137515122  0.5637118021467693  0.546299274079366  1.0000
  O   O4        1.0  0.9649373482763212  0.1861059201686408  0.5601467376377702  1.0000
  O   O5        1.0  0.8400514912402807  0.5696361481093131  0.5481354858706096  1.0000
  O   O6        1.0  0.8399968351751942  0.37401365065961767  0.7438704417538393  1.0000
  O   O7        1.0  0.8400399387805093  0.38765582622995143  0.36624638991033986  1.0000
  O   O8        1.0  0.8399852262522872  0.1920317711873072  0.5619814160011671  1.0000
