data_image0
_chemical_formula_structural       NC11NC3H8C12NH11C13NH13Zn2C4O8
_chemical_formula_sum              "N4 C43 H32 Zn2 O8"
_cell_length_a       17.807433833752565
_cell_length_b       10.299770795358612
_cell_length_c       10.299780419254978
_cell_angle_alpha    85.56832973562953
_cell_angle_beta     88.51101288378402
_cell_angle_gamma    90.70213480944165

_space_group_name_H-M_alt    "P 1"
_space_group_IT_number       1

loop_
  _space_group_symop_operation_xyz
  'x, y, z'

loop_
  _atom_site_type_symbol
  _atom_site_label
  _atom_site_symmetry_multiplicity
  _atom_site_fract_x
  _atom_site_fract_y
  _atom_site_fract_z
  _atom_site_occupancy
  N   N1        1.0  0.707864435323666  0.4381596960628007  0.5345916075071817  1.0000
  C   C1        1.0  0.657029922434257  0.4034473852820013  0.6011542532338039  1.0000
  C   C2        1.0  0.5937866644137474  0.36026813130196267  0.6839496903237701  1.0000
  C   C3        1.0  0.605486144811972  0.29674449393948366  0.8066686158747605  1.0000
  C   C4        1.0  0.5441508832047063  0.2552445207212666  0.8871800729235522  1.0000
  C   C5        1.0  0.4709616525669947  0.27695505509420926  0.8456134011642793  1.0000
  C   C6        1.0  0.4582854675358178  0.3406331441698298  0.7224342836645288  1.0000
  C   C7        1.0  0.3805286245091288  0.3636731955818848  0.6780869590668588  1.0000
  C   C8        1.0  0.3617592321764215  0.34677283198703757  0.548513094979393  1.0000
  C   C9        1.0  0.28854005794452314  0.3684446287861325  0.5069023566659654  1.0000
  C   C10       1.0  0.2331473680846234  0.4073351388294759  0.5940452139034933  1.0000
  C   C11       1.0  0.157791770880739  0.4296651055760863  0.5510731796941313  1.0000
  N   N2        1.0  0.09721124345921181  0.44761673989279616  0.5165267916887628  1.0000
  C   C12       1.0  0.2512253050862931  0.42444596421322833  0.7230879471770342  1.0000
  C   C13       1.0  0.3243916774432855  0.4027392928517155  0.7649541076968411  1.0000
  C   C14       1.0  0.5204780380328482  0.3821285560182719  0.6419392421808885  1.0000
  H   H1        1.0  0.6619443919158543  0.2793372563205003  0.840034301658501  1.0000
  H   H2        1.0  0.5533275600352268  0.20581280034809035  0.981916627851205  1.0000
  H   H3        1.0  0.4243077882574972  0.24241279373611335  0.9090528713779407  1.0000
  H   H4        1.0  0.40344104960351684  0.3151160995643467  0.47980192666522137  1.0000
  H   H5        1.0  0.2751093744461835  0.35454219483019633  0.40687292355064897  1.0000
  H   H6        1.0  0.20882655387963472  0.454879559102483  0.7912844694752634  1.0000
  H   H7        1.0  0.337294229040335  0.41818709514515695  0.864800664430698  1.0000
  H   H8        1.0  0.5120000511047137  0.43292267876203017  0.5474368801853988  1.0000
  C   C15       1.0  0.902473345323846  0.061518119334364796  0.5256017592946625  1.0000
  C   C16       1.0  0.8806858237506684  0.07013648788376114  0.3952074447516194  1.0000
  C   C17       1.0  0.8697148279675185  0.9573689919423072  0.32909732634254985  1.0000
  C   C18       1.0  0.8808233412768581  0.8348582002482584  0.39513251409387085  1.0000
  C   C19       1.0  0.9026095032331204  0.8242485069771549  0.5255274422458396  1.0000
  C   C20       1.0  0.9133128677840201  0.9381301217464459  0.5900317288193371  1.0000
  C   C21       1.0  0.8466652236126024  0.9675401388102098  0.1911476945216659  1.0000
  C   C22       1.0  0.791967439967227  0.05737993080943227  0.148500181066487  1.0000
  C   C23       1.0  0.7703053655702583  0.06682457116102403  0.018659432137363652  1.0000
  C   C24       1.0  0.8029310909843723  0.9868384668880359  0.9294051624248039  1.0000
  C   C25       1.0  0.8574487159681655  0.8971921928869244  0.9711705112479776  1.0000
  C   C26       1.0  0.8791709766371301  0.8874929823416549  0.1009784958311497  1.0000
  N   N3        1.0  0.7807415855741886  0.9966297222301743  0.796604497676435  1.0000
  H   H9        1.0  0.910743446662592  0.38568560770471816  0.5753066526678108  1.0000
  H   H10       1.0  0.8731928560853129  0.16484897441068647  0.3442048905941786  1.0000
  H   H11       1.0  0.8714444238838001  0.7475908291370594  0.3451575300493881  1.0000
  H   H12       1.0  0.9301203826958835  0.9307133907896116  0.6906251952682785  1.0000
  H   H13       1.0  0.9109437056785895  0.4927540715338153  0.575197741294837  1.0000
  H   H14       1.0  0.7652340114484641  0.11915562895732501  0.2159411682294281  1.0000
  H   H15       1.0  0.7279538315676026  0.1362701045728696  0.9877141841352235  1.0000
  H   H16       1.0  0.8832531326222061  0.8350482294957811  0.9030833824048168  1.0000
  H   H17       1.0  0.9220986383169846  0.818571411123116  0.13045752704361968  1.0000
  H   H18       1.0  0.8047427029062835  0.9374034516198045  0.7293538932376515  1.0000
  H   H19       1.0  0.7401486231997189  0.06317773567337048  0.7645545282500548  1.0000
  C   C27       1.0  0.9025925685495712  0.4427996768938447  0.1442081050272188  1.0000
  C   C28       1.0  0.9570031134392086  0.5431503296982405  0.13301317954287906  1.0000
  C   C29       1.0  0.9845154575255964  0.5940926785258476  0.010199380439549488  1.0000
  C   C30       1.0  0.9568999627849216  0.5433200566841692  0.8977177743037292  1.0000
  C   C31       1.0  0.9024903099456776  0.442966906204425  0.9069211052708623  1.0000
  C   C32       1.0  0.8756392260590066  0.3932720413619575  0.030606535791306788  1.0000
  C   C33       1.0  0.04207967471146401  0.7002525387825413  0.9994475697760743  1.0000
  C   C34       1.0  0.03701977411195578  0.8047071814475089  0.903846724560069  1.0000
  C   C35       1.0  0.09122486524122886  0.9045403025288477  0.8938114288118371  1.0000
  C   C36       1.0  0.15111022362377047  0.9022917969373843  0.9797076773195945  1.0000
  C   C37       1.0  0.1568902671198944  0.7975758090960643  0.07421836175806984  1.0000
  C   C38       1.0  0.10270070513130847  0.6977183662569071  0.08442570985835207  1.0000
  C   C39       1.0  0.21045399498596828  0.007950878026287356  0.9664895289394577  1.0000
  N   N4        1.0  0.26804005704193345  0.9766977252457911  0.8709426875278932  1.0000
  H   H20       1.0  0.8818901268848458  0.4045152581389786  0.4759293024749116  1.0000
  H   H21       1.0  0.9773748244397538  0.5831509630604825  0.21993433593088718  1.0000
  H   H22       1.0  0.978685336135498  0.5810041605363672  0.8028961713707066  1.0000
  H   H23       1.0  0.8336642183457257  0.3158550417407955  0.038474335463863696  1.0000
  H   H24       1.0  0.881743487121591  0.404750404204123  0.5829733459213537  1.0000
  H   H25       1.0  0.9906879239480962  0.8099282100979219  0.8376941543995717  1.0000
  H   H26       1.0  0.08640034002425523  0.9838231173002026  0.8191889418029259  1.0000
  H   H27       1.0  0.20350120147415107  0.7930138177271904  0.13983140051111942  1.0000
  H   H28       1.0  0.10883442641390606  0.617450194499525  0.1575216560026491  1.0000
  H   H29       1.0  0.18451229938389746  0.10234714979210491  0.9344041685984572  1.0000
  H   H30       1.0  0.23636412599394463  0.019890547422401816  0.062143030316206715  1.0000
  H   H31       1.0  0.30596485718738164  0.055310268197718226  0.8592366225858452  1.0000
  H   H32       1.0  0.29816576226396196  0.897126199424749  0.9103245427422793  1.0000
  Zn  Zn1       1.0  0.8202215119724364  0.44088532161970573  0.5293859764974109  1.0000
  Zn  Zn2       1.0  0.9848541487344499  0.4448804970301967  0.5217430094020903  1.0000
  C   C40       1.0  0.9025070184417219  0.43776158810601706  0.7627526293908844  1.0000
  C   C41       1.0  0.9025704403238743  0.4480059128240539  0.2883764003504037  1.0000
  C   C42       1.0  0.9025805979389888  0.6800749924171394  0.5203667042763966  1.0000
  C   C43       1.0  0.9024968043611631  0.20569094685708045  0.5307623974612137  1.0000
  O   O1        1.0  0.9650402405387161  0.45126365564880455  0.3338601316251826  1.0000
  O   O2        1.0  0.9649895800645706  0.43753511116802524  0.7114676891984923  1.0000
  O   O3        1.0  0.9650481540351543  0.6332062294782352  0.5157393787166586  1.0000
  O   O4        1.0  0.964981610404882  0.25559254524421116  0.5295883473426359  1.0000
  O   O5        1.0  0.8400939941209665  0.6301732720437474  0.5215406411582042  1.0000
  O   O6        1.0  0.8400354204347893  0.4345037140274426  0.7172688822450544  1.0000
  O   O7        1.0  0.8400860811602058  0.448232212910912  0.33965976332389425  1.0000
  O   O8        1.0  0.840027451008584  0.25256109323875675  0.5353880764070669  1.0000
