data_image0
_chemical_formula_structural       NC8NC6H8C13OH12C12ClH9Zn2C4O8
_chemical_formula_sum              "N2 C43 H29 O9 Cl1 Zn2"
_cell_length_a       17.457602349358154
_cell_length_b       10.299150109392551
_cell_length_c       10.299771906710086
_cell_angle_alpha    85.52403423523229
_cell_angle_beta     92.8856013609098
_cell_angle_gamma    91.67070309183428

_space_group_name_H-M_alt    "P 1"
_space_group_IT_number       1

loop_
  _space_group_symop_operation_xyz
  'x, y, z'

loop_
  _atom_site_type_symbol
  _atom_site_label
  _atom_site_symmetry_multiplicity
  _atom_site_fract_x
  _atom_site_fract_y
  _atom_site_fract_z
  _atom_site_occupancy
  N   N1        1.0  0.7220178322479939  0.4533090227027283  0.6259421256090674  1.0000
  C   C1        1.0  0.6609475918680693  0.40738369496339955  0.6153436875840466  1.0000
  C   C2        1.0  0.5849736296329474  0.35025829937438857  0.6021687705711944  1.0000
  C   C3        1.0  0.5264445612623304  0.3904020917285189  0.6770519806536655  1.0000
  C   C4        1.0  0.4519083389205121  0.33539492945292926  0.6644907056183738  1.0000
  C   C5        1.0  0.3897883725261331  0.3777807957646442  0.7437949135996698  1.0000
  C   C6        1.0  0.31523286259400307  0.39626585764195843  0.6880238591889685  1.0000
  C   C7        1.0  0.2567038366074411  0.43622568243346516  0.7630150936695845  1.0000
  C   C8        1.0  0.1807098441525919  0.45531725077285934  0.7050283269761697  1.0000
  N   N2        1.0  0.1196235919505993  0.4706604915552528  0.6584071200198336  1.0000
  C   C9        1.0  0.2722381604666788  0.4579434622258711  0.8942858131110634  1.0000
  C   C10       1.0  0.3460089297579325  0.4398473055829626  0.9504443221648489  1.0000
  C   C11       1.0  0.40452636053887414  0.40006742037818666  0.8759107453341706  1.0000
  C   C12       1.0  0.437189821946998  0.23956690700703542  0.5756135431761513  1.0000
  C   C13       1.0  0.4957071576493581  0.1997017024377048  0.5011302348322451  1.0000
  C   C14       1.0  0.5694586457198073  0.2548210955643264  0.5142414225453062  1.0000
  H   H1        1.0  0.5387807254882969  0.46558297778105984  0.7436548755783352  1.0000
  H   H2        1.0  0.3028809240496749  0.38132282701783393  0.5860040400311475  1.0000
  H   H3        1.0  0.2273769696094236  0.4888119981739849  0.9531105357220626  1.0000
  H   H4        1.0  0.3578468260941592  0.4563482034226525  0.052090287247996137  1.0000
  H   H5        1.0  0.4610192363236367  0.38506185221411715  0.922023330499969  1.0000
  H   H6        1.0  0.3807127442984687  0.19423129657922988  0.5649787646082762  1.0000
  H   H7        1.0  0.4838844766477463  0.12563768380778262  0.4333285840583494  1.0000
  H   H8        1.0  0.6143200944063713  0.223082662413832  0.45592815927905606  1.0000
  C   C15       1.0  0.9208967018899147  0.08058837124166662  0.6423249536034419  1.0000
  C   C16       1.0  0.9194966083874814  0.06868332198244187  0.7790209941665458  1.0000
  C   C17       1.0  0.9187199506134033  0.9455097716895022  0.8480596418028841  1.0000
  C   C18       1.0  0.9193486547293709  0.8334216261949612  0.7786455195649744  1.0000
  C   C19       1.0  0.9207520576701795  0.8433713885754914  0.6420361479595249  1.0000
  C   C20       1.0  0.9215199899511549  0.9674146780995585  0.5746743718581253  1.0000
  C   C21       1.0  0.9172321125404205  0.9338970637198302  0.9925778844940276  1.0000
  C   C22       1.0  0.8700629110444317  0.838938595120118  0.05674768923914808  1.0000
  C   C23       1.0  0.868637439081567  0.8280913485991821  0.1927371357828208  1.0000
  C   C24       1.0  0.9148586027332285  0.9110640524933935  0.26705625178930403  1.0000
  C   C25       1.0  0.9612938628023756  0.00694393983395436  0.20346908970416344  1.0000
  C   C26       1.0  0.9627371436983208  0.017967760648759157  0.06748080856896321  1.0000
  C   C27       1.0  0.9117136554863801  0.9016918882947845  0.4128853398615845  1.0000
  O   O1        1.0  0.8543752591359418  0.9823533633882123  0.4484441383681176  1.0000
  H   H9        1.0  0.9230410061327173  0.3103307938342392  0.38426407324339884  1.0000
  H   H10       1.0  0.917943302729718  0.1553721763174991  0.8319025992808222  1.0000
  H   H11       1.0  0.9197914409059484  0.7383016659880853  0.8315150458137746  1.0000
  H   H12       1.0  0.922600305711181  0.9758053413734551  0.4693032986042234  1.0000
  H   H13       1.0  0.9212402173131515  0.5197206946589374  0.5894871761514846  1.0000
  H   H14       1.0  0.8333675079399985  0.7743452010708479  0.001642911987532969  1.0000
  H   H15       1.0  0.8313214917117302  0.7551171942570261  0.24006566910054006  1.0000
  H   H16       1.0  0.9965761510850151  0.07302839793966798  0.25920468815630326  1.0000
  H   H17       1.0  7.887372580106522e-05  0.09138821580056322  0.020961021523064893  1.0000
  H   H18       1.0  0.9681508774108201  0.9319711639929268  0.4576634050006646  1.0000
  H   H19       1.0  0.89924938635602  0.7991145872284988  0.4496800971248629  1.0000
  H   H20       1.0  0.8546686695811712  0.9726580912599495  0.545094515736742  1.0000
  C   C28       1.0  0.9207878433530029  0.46208463512765974  0.2608082497877646  1.0000
  C   C29       1.0  0.9903627639318986  0.5340095030577927  0.2601364175038552  1.0000
  C   C30       1.0  0.02565437502460699  0.570347883342031  0.14266875346560148  1.0000
  C   C31       1.0  0.9904368126625176  0.5337975545832081  0.024872765544222686  1.0000
  C   C32       1.0  0.9208609051732909  0.4618752036858378  0.02355286035531301  1.0000
  C   C33       1.0  0.886426395763451  0.4264206939413193  0.1420203280609904  1.0000
  C   C34       1.0  0.09925934933232661  0.6464370224674842  0.14301180052321127  1.0000
  C   C35       1.0  0.11136527769181526  0.7499789553806113  0.22376495552761133  1.0000
  C   C36       1.0  0.18067859270498565  0.8214967555338031  0.2239033304324518  1.0000
  C   C37       1.0  0.23867243459550846  0.7905540220764453  0.1436626877976861  1.0000
  C   C38       1.0  0.22729876899280632  0.6879035827441558  0.06309780595951975  1.0000
  C   C39       1.0  0.15805425892849279  0.6161884468542749  0.06258949058688201  1.0000
  Cl  Cl1       1.0  0.3255904427493608  0.8804044499153327  0.1440687911909282  1.0000
  H   H21       1.0  0.8942560627694056  0.43473408524922985  0.5885115154168623  1.0000
  H   H22       1.0  0.01780720428634397  0.5604087661719865  0.3513489422692213  1.0000
  H   H23       1.0  0.016870091251755204  0.5630945119386901  0.9339112881051577  1.0000
  H   H24       1.0  0.8327520806913672  0.3709350687888415  0.14177037475494436  1.0000
  H   H25       1.0  0.894363913830754  0.4344241942304179  0.6956012510667531  1.0000
  H   H26       1.0  0.06688339073819205  0.7766932721656139  0.28549648611490297  1.0000
  H   H27       1.0  0.18914674100650442  0.9011468052294711  0.2861995910055979  1.0000
  H   H28       1.0  0.2721303651465823  0.6633518514846306  0.0010504746312327562  1.0000
  H   H29       1.0  0.15085961757794886  0.5360536502136743  0.0006169446714379134  1.0000
  Zn  Zn1       1.0  0.8367582671521502  0.4583127967873666  0.6353183215672413  1.0000
  Zn  Zn2       1.0  0.00488314583441074  0.4656460659599575  0.6490415607153066  1.0000
  C   C40       1.0  0.920846371713179  0.45674063761542083  0.8793795903519388  1.0000
  C   C41       1.0  0.9207968768932904  0.46721994391418264  0.40498056863502363  1.0000
  C   C42       1.0  0.9207749530921642  0.6991904491355021  0.6369151800780908  1.0000
  C   C43       1.0  0.9208682384475669  0.22476856945721524  0.6474450440561845  1.0000
  O   O2        1.0  0.9846024249761424  0.4717206717363145  0.458574015753481  1.0000
  O   O3        1.0  0.9846437165552571  0.4578047117242219  0.8362013907343802  1.0000
  O   O4        1.0  0.9845851851565215  0.6535859628368752  0.6404095932449985  1.0000
  O   O5        1.0  0.9846608989941549  0.2759394274389493  0.6543657111810033  1.0000
  O   O6        1.0  0.8569804566196354  0.6480194328073061  0.6299941664116451  1.0000
  O   O7        1.0  0.8570389877123386  0.45223974213046914  0.8257858940638139  1.0000
  O   O8        1.0  0.8569976960432466  0.46615565731433617  0.4481569576897144  1.0000
  O   O9        1.0  0.8570561700692115  0.2703744037006144  0.6439487504891963  1.0000
