data_image0
_chemical_formula_structural       NC12NC2H8C12ClH9C13NH13Zn2C4O8
_chemical_formula_sum              "N3 C43 H30 Cl1 Zn2 O8"
_cell_length_a       19.240039667572717
_cell_length_b       10.299768534541528
_cell_length_c       10.299780419254978
_cell_angle_alpha    85.5745780732884
_cell_angle_beta     89.9865849046833
_cell_angle_gamma    90.01670575511149

_space_group_name_H-M_alt    "P 1"
_space_group_IT_number       1

loop_
  _space_group_symop_operation_xyz
  'x, y, z'

loop_
  _atom_site_type_symbol
  _atom_site_label
  _atom_site_symmetry_multiplicity
  _atom_site_fract_x
  _atom_site_fract_y
  _atom_site_fract_z
  _atom_site_occupancy
  N   N1        1.0  0.6548784510745044  0.42095425282287335  0.5675903256785431  1.0000
  C   C1        1.0  0.5947300822805978  0.4209543367858135  0.5675902437497558  1.0000
  C   C2        1.0  0.5199120451749444  0.42095445404106124  0.5675901064573596  1.0000
  C   C3        1.0  0.4834153124433845  0.3565118293581382  0.6709942268403437  1.0000
  C   C4        1.0  0.4107445361933277  0.35640096763168083  0.6710807590814272  1.0000
  C   C5        1.0  0.3735798102805885  0.4209545465568092  0.5675898787901037  1.0000
  C   C6        1.0  0.41079076275987236  0.48550831250784054  0.46409919304296765  1.0000
  C   C7        1.0  0.4834614230214327  0.48539721531035407  0.46418584776572636  1.0000
  C   C8        1.0  0.2963747198406393  0.420954467876115  0.5675897833735639  1.0000
  C   C9        1.0  0.259163986998534  0.30770372462746365  0.6094519137620722  1.0000
  C   C10       1.0  0.18649332674204896  0.307810604355105  0.6093605984786816  1.0000
  C   C11       1.0  0.1500424328896492  0.42095433871748544  0.5675898442735212  1.0000
  C   C12       1.0  0.0752243956857873  0.4209542250286309  0.5675900929175524  1.0000
  N   N2        1.0  0.015076078801201999  0.42095418424979547  0.5675903013261931  1.0000
  C   C13       1.0  0.1865390499123244  0.5340981488954779  0.5258190371843439  1.0000
  C   C14       1.0  0.2592097743063398  0.5342052087076994  0.5257275593238417  1.0000
  H   H1        1.0  0.5111122718331806  0.3066190915648359  0.7517292524366839  1.0000
  H   H2        1.0  0.3836333076499844  0.30730654381331113  0.7529312966780564  1.0000
  H   H3        1.0  0.3837154605256806  0.5346027633675654  0.3822486046015736  1.0000
  H   H4        1.0  0.5111942350445133  0.5352898529007433  0.3834510979477943  1.0000
  H   H5        1.0  0.2862394413020065  0.21855585124175692  0.6406128157664628  1.0000
  H   H6        1.0  0.15876067480088568  0.21956212136957354  0.6415544818972974  1.0000
  H   H7        1.0  0.1588418784000449  0.622346607347489  0.49362516831408043  1.0000
  H   H8        1.0  0.28632079883804473  0.6233531612597205  0.4945666125545498  1.0000
  C   C15       1.0  0.8349150503394647  0.03958883512533817  0.5675881747259748  1.0000
  C   C16       1.0  0.8395095959176138  0.0491253603343742  0.4311248506015952  1.0000
  C   C17       1.0  0.8419045051295218  0.9368182278581916  0.36198518752212205  1.0000
  C   C18       1.0  0.8396423377190717  0.8138376461765299  0.43114033989787437  1.0000
  C   C19       1.0  0.8350461571133506  0.8023095919169203  0.567603601975385  1.0000
  C   C20       1.0  0.8327087641310326  0.9157421372495536  0.6350633241962738  1.0000
  C   C21       1.0  0.8467660754446609  0.9479607443341753  0.2176183667370668  1.0000
  C   C22       1.0  0.807235353818751  0.04148491008170763  0.1431576277311155  1.0000
  C   C23       1.0  0.811873127384325  0.05177677092300903  0.007283457707396579  1.0000
  C   C24       1.0  0.855974714816249  0.9690662391466208  0.9441782383404749  1.0000
  C   C25       1.0  0.8954942346822365  0.8758539947829087  0.017127818876303103  1.0000
  C   C26       1.0  0.8909798852248021  0.8651698858146518  0.15301663154034162  1.0000
  Cl  Cl1       1.0  0.8617160499024956  0.9822249509844487  0.7737002392655743  1.0000
  H   H9        1.0  0.8331286412400012  0.3634086991836871  0.6195841658214427  1.0000
  H   H10       1.0  0.842195760614592  0.14412645602674434  0.37839442561861425  1.0000
  H   H11       1.0  0.840514729430068  0.7269925409653798  0.3781963687243317  1.0000
  H   H12       1.0  0.8291635798270424  0.9076169583276368  0.7403384969660256  1.0000
  H   H13       1.0  0.8333224696237547  0.4704631187888327  0.6196073937213988  1.0000
  H   H14       1.0  0.772088251150285  0.10547082705404631  0.18989918145548224  1.0000
  H   H15       1.0  0.7810214572510066  0.12387869875582025  0.9511740075802821  1.0000
  H   H16       1.0  0.9298664346157136  0.8118211016716804  0.9686968566855003  1.0000
  H   H17       1.0  0.9227136931621643  0.7933609474979892  0.2076318377076789  1.0000
  C   C27       1.0  0.8350279123095151  0.42086436171870023  0.18624175519570518  1.0000
  C   C28       1.0  0.8853655801474518  0.5198925887054591  0.17758218654023517  1.0000
  C   C29       1.0  0.9108185013471795  0.5701662597247206  0.056050396354738075  1.0000
  C   C30       1.0  0.8852701532106277  0.5200648197655615  0.9422820141839261  1.0000
  C   C31       1.0  0.8349333106211837  0.4210340734566034  0.9489500294357374  1.0000
  C   C32       1.0  0.8100921514717814  0.37199181453702024  0.07138426669445397  1.0000
  C   C33       1.0  0.9640737747009182  0.6749270455204144  0.04798089274549322  1.0000
  C   C34       1.0  0.9593933960691907  0.7795037313633051  0.9521567180274921  1.0000
  C   C35       1.0  0.00954098836396522  0.8780194212354977  0.9446471904614886  1.0000
  C   C36       1.0  0.06494289694096822  0.8743163533973628  0.03332157815795256  1.0000
  C   C37       1.0  0.07028950180257532  0.7694608326724002  0.12808897459015545  1.0000
  C   C38       1.0  0.020156275865349738  0.6709204440485259  0.13577127232347275  1.0000
  C   C39       1.0  0.1198444912927592  0.9785331398007682  0.02286824459093495  1.0000
  N   N3        1.0  0.1731190497726427  0.9458815118440131  0.929989693928118  1.0000
  H   H18       1.0  0.8158751419862302  0.3830831080988568  0.5169982740785495  1.0000
  H   H19       1.0  0.9042123921495122  0.5593980760776704  0.26545286493638476  1.0000
  H   H20       1.0  0.9054247753795321  0.5572194596342483  0.8484752668416808  1.0000
  H   H21       1.0  0.7712591642153356  0.29559500015164275  0.07729616550991536  1.0000
  H   H22       1.0  0.8157394822778143  0.38332181402557985  0.6240355398831046  1.0000
  H   H23       1.0  0.9165303057585144  0.7858500909394159  0.8838551497046496  1.0000
  H   H24       1.0  0.005078193961653987  0.9574187690291689  0.8698095409921449  1.0000
  H   H25       1.0  0.11341078655185988  0.7637667261652228  0.19586403171824562  1.0000
  H   H26       1.0  0.025830244177050377  0.5905039477553822  0.20914301339016284  1.0000
  H   H27       1.0  0.09584560649657914  0.07355874417861274  0.989589642348855  1.0000
  H   H28       1.0  0.14381488989040747  0.9898433689190596  0.1197251541154305  1.0000
  H   H29       1.0  0.20820506422751306  0.02357223693013033  0.9200517509626098  1.0000
  H   H30       1.0  0.20098879982746443  0.8655789043390023  0.9707605299275532  1.0000
  Zn  Zn1       1.0  0.7588237133859638  0.4209507675305795  0.5675978067166911  1.0000
  Zn  Zn2       1.0  0.9111308321250977  0.42094707851854896  0.5675934185627944  1.0000
  C   C40       1.0  0.8349487331902617  0.41582839231942215  0.8047817594063384  1.0000
  C   C41       1.0  0.8350074757756372  0.4260710923222355  0.330409593319988  1.0000
  C   C42       1.0  0.8350184338936718  0.6581380169954136  0.5624257514892876  1.0000
  C   C43       1.0  0.8349377228236745  0.18375990737474668  0.5727656704428341  1.0000
  O   O1        1.0  0.8928003739206161  0.4278114530269379  0.378791971387491  1.0000
  O   O2        1.0  0.8927534138994315  0.4140842519432957  0.7563956769801208  1.0000
  O   O3        1.0  0.8928089187630123  0.6097523386120092  0.5606914859279801  1.0000
  O   O4        1.0  0.89274481709861  0.23214337562794873  0.5744960650704178  1.0000
  O   O5        1.0  0.7772096764375077  0.6097544704238511  0.560695160203734  1.0000
  O   O6        1.0  0.777154171847536  0.4140879440293057  0.7563992820447463  1.0000
  O   O7        1.0  0.7772011321008728  0.4278150995099095  0.3787940151109368  1.0000
  O   O8        1.0  0.7771455752623486  0.23214701284386674  0.5744982061577444  1.0000
