data_image0
_chemical_formula_structural       NC10NC3NH7C12SCH12C12ClH9Zn2C4O8
_chemical_formula_sum              "N3 C42 H28 S1 Cl1 Zn2 O8"
_cell_length_a       19.210446455230148
_cell_length_b       10.299776766347529
_cell_length_c       10.299771906710086
_cell_angle_alpha    85.54586025256013
_cell_angle_beta     89.99986541556282
_cell_angle_gamma    89.9285037425463

_space_group_name_H-M_alt    "P 1"
_space_group_IT_number       1

loop_
  _space_group_symop_operation_xyz
  'x, y, z'

loop_
  _atom_site_type_symbol
  _atom_site_label
  _atom_site_symmetry_multiplicity
  _atom_site_fract_x
  _atom_site_fract_y
  _atom_site_fract_z
  _atom_site_occupancy
  N   N1        1.0  0.6550959577941305  0.4205838462105629  0.5674180665259809  1.0000
  C   C1        1.0  0.5948668694648279  0.4227912344533227  0.5676493604697912  1.0000
  C   C2        1.0  0.5200617616297284  0.42552799172473166  0.5679359049438031  1.0000
  C   C3        1.0  0.4844227477020342  0.5417509043662838  0.5830553508270617  1.0000
  C   C4        1.0  0.4117572235303615  0.5419024536227754  0.5830027637186921  1.0000
  C   C5        1.0  0.3748948346470622  0.4262369139729285  0.5680224348514713  1.0000
  C   C6        1.0  0.2975730384985873  0.42488051896503887  0.5678717533512498  1.0000
  C   C7        1.0  0.2597853582112418  0.5284676841868994  0.5045171020176826  1.0000
  C   C8        1.0  0.18700735219403  0.527065522587786  0.5044079350643873  1.0000
  C   C9        1.0  0.1510155436351247  0.4223337144101307  0.5676024399319273  1.0000
  C   C10       1.0  0.0760863442157997  0.4210317078477004  0.5674655252778831  1.0000
  N   N2        1.0  0.0158487497038362  0.41998485035326816  0.5673554807688488  1.0000
  C   C11       1.0  0.1880795313669217  0.3188722460700377  0.6309320912481018  1.0000
  C   C12       1.0  0.2608594623662193  0.3200001314328691  0.6310914856424554  1.0000
  C   C13       1.0  0.4131432727834928  0.3118341225197221  0.5531912732395288  1.0000
  N   N3        1.0  0.48391260770668165  0.3142789836635189  0.5533569976438186  1.0000
  H   H1        1.0  0.5125019539753944  0.6311785232929139  0.5951096644345837  1.0000
  H   H2        1.0  0.38446661433181  0.6319114963027714  0.5964518335086304  1.0000
  H   H3        1.0  0.2864859437030575  0.6097345229156945  0.4535320786912256  1.0000
  H   H4        1.0  0.1588346064506897  0.607504270985618  0.45475324468761125  1.0000
  H   H5        1.0  0.1607391833435577  0.2374701561584358  0.6804872334546932  1.0000
  H   H6        1.0  0.2883874639925459  0.23968012615559164  0.6821839041777957  1.0000
  H   H7        1.0  0.3868999059973017  0.22096219550154017  0.5396958993528325  1.0000
  C   C14       1.0  0.8355413126672594  0.03891911352462518  0.5673851687087832  1.0000
  C   C15       1.0  0.8397360864289634  0.027311548823482967  0.7038976542471993  1.0000
  C   C16       1.0  0.8417945928587692  0.9042913921406976  0.7730749874420955  1.0000
  C   C17       1.0  0.8396029842269982  0.7920239891086255  0.7039128675914603  1.0000
  C   C18       1.0  0.8354100695066872  0.8016396034256782  0.567399632352177  1.0000
  C   C19       1.0  0.8334023130120158  0.9255257582458007  0.49989994592521825  1.0000
  C   C20       1.0  0.846224519005197  0.8930758172674274  0.9174897956451782  1.0000
  C   C21       1.0  0.8063919761477221  0.7996604610122736  0.991539025829397  1.0000
  C   C22       1.0  0.8105819606940363  0.7893397146379917  0.12744692616577324  1.0000
  C   C23       1.0  0.8544310890918615  0.8721555301378389  0.1911122896886095  1.0000
  C   C24       1.0  0.8944298669946403  0.9649964330198793  0.11843608864475685  1.0000
  C   C25       1.0  0.8903419524662085  0.9756669016522167  0.9825177556500326  1.0000
  S   S1        1.0  0.8598841772723413  0.8584519274862489  0.36550081087669084  1.0000
  C   C26       1.0  0.7899372026959641  0.9746243281811693  0.38504156247124155  1.0000
  H   H8        1.0  0.8339702990113921  0.3707955590784868  0.515367710154103  1.0000
  H   H9        1.0  0.8404521922491095  0.11412637492771349  0.7568555971068753  1.0000
  H   H10       1.0  0.8421340771430972  0.6969910499127471  0.7566743601946313  1.0000
  H   H11       1.0  0.8301666993465806  0.9337120117866898  0.39458636773931866  1.0000
  H   H12       1.0  0.8337776264218839  0.47784987549035957  0.5153868501949062  1.0000
  H   H13       1.0  0.7713466266585866  0.73576797082757  0.9444312123587486  1.0000
  H   H14       1.0  0.7794649781370071  0.7173132547893123  0.18317354306438682  1.0000
  H   H15       1.0  0.9287345024535432  0.028945576892044356  0.16713295720160504  1.0000
  H   H16       1.0  0.9223376138607949  0.047322550165568966  0.9282040219753092  1.0000
  H   H17       1.0  0.8038678859093008  0.07094479986306967  0.33616173209689215  1.0000
  H   H18       1.0  0.7818803844098007  0.9852871689113063  0.49032171171306493  1.0000
  H   H19       1.0  0.7409515465133979  0.9391851305526429  0.34292818252538393  1.0000
  C   C27       1.0  0.8354425300006673  0.4203857333167824  0.18602312931806586  1.0000
  C   C28       1.0  0.8985687423939185  0.48916331571001015  0.17968578892358122  1.0000
  C   C29       1.0  0.9305892710466369  0.5239052606564596  0.05934426217980149  1.0000
  C   C30       1.0  0.8986359277617237  0.4889480437068754  0.944415996926455  1.0000
  C   C31       1.0  0.8355088199320189  0.4201730226697793  0.9487616815640205  1.0000
  C   C32       1.0  0.8042659505627132  0.38627617667746095  0.07003321707706234  1.0000
  C   C33       1.0  0.9973720025638779  0.5966648112293718  0.05369363183216902  1.0000
  C   C34       1.0  0.008355862370327705  0.6996508755551598  0.13349577564149206  1.0000
  C   C35       1.0  0.0712447167037944  0.768033236516299  0.12798989286056894  1.0000
  C   C36       1.0  0.12386327208325643  0.73447533211655  0.04299206497222463  1.0000
  C   C37       1.0  0.11354380360613026  0.6323476246085198  0.9633186173250978  1.0000
  C   C38       1.0  0.050717376889696686  0.5637648397746668  0.9684488542577472  1.0000
  Cl  Cl1       1.0  0.2027250889257921  0.8203939441968346  0.036320405805603695  1.0000
  H   H20       1.0  0.8113699072430379  0.39423536593266384  0.5158869159121882  1.0000
  H   H21       1.0  0.9234694330655252  0.5143212829653914  0.2686627506163586  1.0000
  H   H22       1.0  0.9226191783293932  0.5170490888548545  0.8513028021344526  1.0000
  H   H23       1.0  0.7555665602491519  0.3332185584009417  0.07415398107676796  1.0000
  H   H24       1.0  0.8114677619012819  0.39392063434343716  0.6229677082184013  1.0000
  H   H25       1.0  0.9679968766218011  0.7283707859412678  0.19887725628281006  1.0000
  H   H26       1.0  0.07892797302342491  0.8472937995598142  0.18962367636062827  1.0000
  H   H27       1.0  0.1542200849043669  0.6057743171792922  0.8975935471373231  1.0000
  H   H28       1.0  0.04418958972729681  0.4839620846973489  0.9070343951312005  1.0000
  Zn  Zn1       1.0  0.7592014212584829  0.42040752283343785  0.5674075046368168  1.0000
  Zn  Zn2       1.0  0.9117432730452475  0.4201505883183143  0.5673766782444996  1.0000
  C   C39       1.0  0.8354956337252422  0.4150395777925431  0.8045876390182201  1.0000
  C   C40       1.0  0.8354507260598385  0.4255201691217336  0.3301966710240647  1.0000
  C   C41       1.0  0.8354308258480899  0.6574706507560231  0.5622217046090456  1.0000
  C   C42       1.0  0.8355154821596663  0.18308753593907068  0.5725626746529084  1.0000
  O   O1        1.0  0.8933423154817821  0.4271401616852373  0.37857093009966025  1.0000
  O   O2        1.0  0.8933797803673799  0.4132235982683312  0.7561896095592067  1.0000
  O   O3        1.0  0.893326666935128  0.6089897565834865  0.5604774029278725  1.0000
  O   O4        1.0  0.8933953768517698  0.23137401277504854  0.5742830393669334  1.0000
  O   O5        1.0  0.7775492653969123  0.6091840984657984  0.5605011435180713  1.0000
  O   O6        1.0  0.7776023785514398  0.4134195004589212  0.756213280933425  1.0000
  O   O7        1.0  0.7775649135842063  0.42733601905572427  0.37859304007091277  1.0000
  O   O8        1.0  0.7776179749614095  0.2315698608296639  0.5743052467059355  1.0000
