data_image0
_chemical_formula_structural       NC10NC5H10C16H10C16H10Zn2C4O8
_chemical_formula_sum              "N2 C51 H30 Zn2 O8"
_cell_length_a       19.4436361288709
_cell_length_b       10.29914801576943
_cell_length_c       10.299151387937775
_cell_angle_alpha    85.56202673548964
_cell_angle_beta     89.69351296060239
_cell_angle_gamma    89.43179634642199

_space_group_name_H-M_alt    "P 1"
_space_group_IT_number       1

loop_
  _space_group_symop_operation_xyz
  'x, y, z'

loop_
  _atom_site_type_symbol
  _atom_site_label
  _atom_site_symmetry_multiplicity
  _atom_site_fract_x
  _atom_site_fract_y
  _atom_site_fract_z
  _atom_site_occupancy
  N   N1        1.0  0.6479744446764361  0.40879697194962716  0.5615297373106309  1.0000
  C   C1        1.0  0.589139104169158  0.4187033439224157  0.5759099489548858  1.0000
  C   C2        1.0  0.5158105597124043  0.43105793152545036  0.59389757338139  1.0000
  C   C3        1.0  0.4736270547032644  0.3990341728430382  0.49923559963732345  1.0000
  C   C4        1.0  0.3977234373354165  0.40947464452103666  0.5045596310179461  1.0000
  C   C5        1.0  0.3579760577121852  0.38475236139478364  0.6116426403237818  1.0000
  C   C6        1.0  0.2818566066828035  0.3886659517758322  0.5986816200446043  1.0000
  C   C7        1.0  0.241296423284619  0.4463558751854384  0.6924304788332676  1.0000
  C   C8        1.0  0.16963397399049654  0.44999119963732537  0.6818850660445404  1.0000
  C   C9        1.0  0.137536889734618  0.39554063214992663  0.5778774786035876  1.0000
  C   C10       1.0  0.0637452107003136  0.399237164691278  0.5671767585430671  1.0000
  N   N2        1.0  0.0044217057675792  0.4022089829220905  0.558574089039535  1.0000
  C   C11       1.0  0.1773720762767203  0.3371436618019088  0.4845121348935295  1.0000
  C   C12       1.0  0.24905095983979353  0.33345404442502624  0.49480578941924414  1.0000
  C   C13       1.0  0.3860976030217222  0.3443221480864864  0.7427541996561968  1.0000
  C   C14       1.0  0.44476428377270333  0.3874595082822996  0.789980197014424  1.0000
  C   C15       1.0  0.48898737925337094  0.4853061761345927  0.7155738280483277  1.0000
  H   H1        1.0  0.495726781389685  0.36989161546655036  0.4089394414095975  1.0000
  H   H2        1.0  0.3730322554742558  0.43194711359282145  0.4113917029421603  1.0000
  H   H3        1.0  0.2651683706843457  0.4896708882244596  0.7732625167945713  1.0000
  H   H4        1.0  0.139291285213331  0.495328059073765  0.754788780676912  1.0000
  H   H5        1.0  0.1530282545869739  0.29402440733586555  0.4040145060288869  1.0000
  H   H6        1.0  0.2787277208477889  0.2858738009516948  0.42259929207491953  1.0000
  H   H7        1.0  0.3551210961293181  0.2801166149474088  0.8070267862983338  1.0000
  H   H8        1.0  0.4599053033242361  0.3534148035335112  0.8879287822404536  1.0000
  H   H9        1.0  0.4588908346557041  0.5760209698135963  0.6902861863949781  1.0000
  H   H10       1.0  0.5322726232253354  0.5109103534734465  0.7786493078008419  1.0000
  C   C16       1.0  0.8261523703302429  0.02410252381000455  0.5602178662684059  1.0000
  C   C17       1.0  0.810462301390715  0.03393352718673226  0.42687351406609  1.0000
  C   C18       1.0  0.8025576631893134  0.9217872883082426  0.35910007336723626  1.0000
  C   C19       1.0  0.8105541567503525  0.7986798392022839  0.42646816068344484  1.0000
  C   C20       1.0  0.8262503475395957  0.7868933172282472  0.5598972153183934  1.0000
  C   C21       1.0  0.8339540391429011  0.9001222451467141  0.6259504903898396  1.0000
  C   C22       1.0  0.7859596322504792  0.9332329067787244  0.21803782869949084  1.0000
  C   C23       1.0  0.8185092681586584  0.8516093154064373  0.13254993955939431  1.0000
  C   C24       1.0  0.8028637450926148  0.8625071580004956  0.9997877922336209  1.0000
  C   C25       1.0  0.7545079813877584  0.9549310882139068  0.9507106041361597  1.0000
  C   C26       1.0  0.7218330676488258  0.03653675450155558  0.034915586639539864  1.0000
  C   C27       1.0  0.7374295502698267  0.02588109306221753  0.1676990872526669  1.0000
  C   C28       1.0  0.7384262836636273  0.96602624853337  0.8140193141815408  1.0000
  C   C29       1.0  0.7249580351311038  0.9753183390980231  0.6995423368015374  1.0000
  C   C30       1.0  0.7091868751669729  0.9861992520754757  0.5654909634513188  1.0000
  C   C31       1.0  0.6957208870746059  0.995489931697647  0.4510324751570507  1.0000
  H   H11       1.0  0.8321520699129007  0.3477963584874253  0.6115222033455736  1.0000
  H   H12       1.0  0.8052791696706083  0.12906216920877944  0.3750062270317327  1.0000
  H   H13       1.0  0.8035956954267124  0.7118929243317724  0.37511017767535537  1.0000
  H   H14       1.0  0.8460541802593262  0.8918234867286325  0.7288032843396877  1.0000
  H   H15       1.0  0.8554501367040781  0.5573482611149412  0.8119193315370015  1.0000
  H   H16       1.0  0.8567126132212558  0.7805140773364739  0.16808298418891088  1.0000
  H   H17       1.0  0.8286025324090245  0.7990807341878712  0.9353992904916244  1.0000
  H   H18       1.0  0.6841769231017163  0.10818563767246436  0.998008107209011  1.0000
  H   H19       1.0  0.7108890717428933  0.08893217915728524  0.23129144630707787  1.0000
  H   H20       1.0  0.6838966654583862  0.0036479322332620967  0.3505282708261954  1.0000
  C   C32       1.0  0.8262412019328697  0.40532842789871437  0.17868628927979668  1.0000
  C   C33       1.0  0.7598866399221854  0.4605123811767722  0.17430539719132088  1.0000
  C   C34       1.0  0.7262025058931593  0.4886664993165335  0.054928506243891784  1.0000
  C   C35       1.0  0.7597670407259742  0.46089221748476383  0.9389938963182787  1.0000
  C   C36       1.0  0.826161513333967  0.40566737885144377  0.9414287851519565  1.0000
  C   C37       1.0  0.8589905288491577  0.3782273934298268  0.061704819591355875  1.0000
  C   C38       1.0  0.6560074154748651  0.5470447496322737  0.05133946042222126  1.0000
  C   C39       1.0  0.6385504646718788  0.6471880770727567  0.9561375728675885  1.0000
  C   C40       1.0  0.5724715049512438  0.702094680332102  0.9528879452843064  1.0000
  C   C41       1.0  0.5229826697804352  0.6576824965559882  0.04454531213814006  1.0000
  C   C42       1.0  0.5398163347322082  0.5581090745143853  0.13959004088248705  1.0000
  C   C43       1.0  0.6058755509804555  0.5031152359898403  0.14308943386078443  1.0000
  C   C44       1.0  0.454963863880187  0.714254813874861  0.041071720357680475  1.0000
  C   C45       1.0  0.3979990737208014  0.7616332757284043  0.038162551163599456  1.0000
  C   C46       1.0  0.3312938968020318  0.8171130287362496  0.03475594280510008  1.0000
  C   C47       1.0  0.2743383122951318  0.8644840718869378  0.03184735015530804  1.0000
  H   H21       1.0  0.8517493754440896  0.38404001604105953  0.5078519596361379  1.0000
  H   H22       1.0  0.7346180119158867  0.4833756575244048  0.2638093837614357  1.0000
  H   H23       1.0  0.7336715115726683  0.48075515229930854  0.846829255256639  1.0000
  H   H24       1.0  0.9101706750750971  0.33565905331052637  0.06436844838501976  1.0000
  H   H25       1.0  0.9513047031269317  0.3006781858070142  0.7387921407640512  1.0000
  H   H26       1.0  0.676261051057349  0.6841962579904002  0.8852626605699445  1.0000
  H   H27       1.0  0.5600429691376246  0.7793800484062736  0.879106254976719  1.0000
  H   H28       1.0  0.5018391738604004  0.5227471548553517  0.2107978836062132  1.0000
  H   H29       1.0  0.6174911845721919  0.4250831918421665  0.21648516676001317  1.0000
  H   H30       1.0  0.22432660660305884  0.9060796965285791  0.029293373068245643  1.0000
  Zn  Zn1       1.0  0.7508374245789514  0.40689235230743237  0.5606843147095986  1.0000
  Zn  Zn2       1.0  0.9015587149017004  0.40410299875283107  0.5594301973453113  1.0000
  C   C48       1.0  0.8261743840077029  0.40042927105657555  0.7972562924501025  1.0000
  C   C49       1.0  0.8262234015419434  0.41056768835553004  0.32285833268817754  1.0000
  C   C50       1.0  0.826228833911512  0.6427073962145766  0.5547826291479212  1.0000
  C   C51       1.0  0.8261688999998144  0.16828800374873798  0.5653320663133607  1.0000
  O   O1        1.0  0.8834153710271639  0.41126182067984063  0.37076785886213326  1.0000
  O   O2        1.0  0.8833763863373784  0.39761710395604055  0.7483945467785513  1.0000
  O   O3        1.0  0.8834195841266039  0.5932597689160826  0.552595353968776  1.0000
  O   O4        1.0  0.8833721218183372  0.21561916591932717  0.5665669547206866  1.0000
  O   O5        1.0  0.7690239662285362  0.5953761860942164  0.5535475577553601  1.0000
  O   O6        1.0  0.7689807686438523  0.39973508153624615  0.7493466806632703  1.0000
  O   O7        1.0  0.7690197535366793  0.4133797523055347  0.3717184313553017  1.0000
  O   O8        1.0  0.7689765043136751  0.21773708829877325  0.5675176245862146  1.0000
