data_image0
_chemical_formula_structural       NC8NC6H8C13OH12C15H12Zn2C4O8
_chemical_formula_sum              "N2 C46 H32 O9 Zn2"
_cell_length_a       17.457602349358154
_cell_length_b       10.299150109392551
_cell_length_c       10.299157797200024
_cell_angle_alpha    85.5240492146119
_cell_angle_beta     92.8989280324144
_cell_angle_gamma    91.67070309183428

_space_group_name_H-M_alt    "P 1"
_space_group_IT_number       1

loop_
  _space_group_symop_operation_xyz
  'x, y, z'

loop_
  _atom_site_type_symbol
  _atom_site_label
  _atom_site_symmetry_multiplicity
  _atom_site_fract_x
  _atom_site_fract_y
  _atom_site_fract_z
  _atom_site_occupancy
  N   N1        1.0  0.7218289052001453  0.4533005372256036  0.6258446978979315  1.0000
  C   C1        1.0  0.6607572075805769  0.4073751440357538  0.6152455083896016  1.0000
  C   C2        1.0  0.5847814338510314  0.35024966708520866  0.6020696572079396  1.0000
  C   C3        1.0  0.5262626615997249  0.3903939218796615  0.6769581768919182  1.0000
  C   C4        1.0  0.4517247121366159  0.33538668203207544  0.6643960111981626  1.0000
  C   C5        1.0  0.38961564972974366  0.37777303808592944  0.7437058422522644  1.0000
  C   C6        1.0  0.3150524715175057  0.3962577555497986  0.6879308333893672  1.0000
  C   C7        1.0  0.2565337565031444  0.43621804344873083  0.7629273851309712  1.0000
  C   C8        1.0  0.1805317911172783  0.4553092536915768  0.704936506880059  1.0000
  N   N2        1.0  0.119439128699849  0.4706522065652927  0.6583119942423765  1.0000
  C   C9        1.0  0.2720861295217045  0.45793663390181427  0.8942074123359527  1.0000
  C   C10       1.0  0.345864620366413  0.4398408240650722  0.9503699033144446  1.0000
  C   C11       1.0  0.4043718031011124  0.40006047857912974  0.8758310416730402  1.0000
  C   C12       1.0  0.4369939749355303  0.2395581107263831  0.5755125469118401  1.0000
  C   C13       1.0  0.4955010695033489  0.19969244618631787  0.5010239573214992  1.0000
  C   C14       1.0  0.5692543603057171  0.2548119202809145  0.514136074684638  1.0000
  H   H1        1.0  0.5386079834372821  0.4655752192375424  0.7435657943015199  1.0000
  H   H2        1.0  0.3026865056868349  0.38131409490356405  0.5859037805060556  1.0000
  H   H3        1.0  0.22723302681080074  0.48880553312126285  0.9530363059197977  1.0000
  H   H4        1.0  0.35771649258565513  0.45634234961814113  0.0520230756149217  1.0000
  H   H5        1.0  0.46087101916800305  0.38505519518274967  0.9219468964563058  1.0000
  H   H6        1.0  0.3805154350506886  0.19422243462363564  0.5648770142839259  1.0000
  H   H7        1.0  0.4836690660663736  0.12562800884815428  0.4332174990647679  1.0000
  H   H8        1.0  0.6141077911693896  0.2230731270175963  0.45581867671061804  1.0000
  C   C15       1.0  0.9207100274104524  0.08057998693649004  0.6422286875183651  1.0000
  C   C16       1.0  0.9193287290256612  0.06867578184194478  0.7789344205279092  1.0000
  C   C17       1.0  0.9185615637686948  0.9455026578963056  0.8479779633564695  1.0000
  C   C18       1.0  0.9191807237414077  0.8334140837357257  0.7785589193032738  1.0000
  C   C19       1.0  0.9205653434811832  0.8433630024867994  0.6419398613966549  1.0000
  C   C20       1.0  0.9213240138076707  0.9674058760190649  0.5745733090017777  1.0000
  C   C21       1.0  0.917093596332503  0.9338908423972241  0.9925064531280783  1.0000
  C   C22       1.0  0.8699332179086696  0.8389327700773341  0.056680807839628033  1.0000
  C   C23       1.0  0.8685264439098085  0.8280863633575151  0.1926798967286214  1.0000
  C   C24       1.0  0.9147578261202711  0.911059526208493  0.2670042823394647  1.0000
  C   C25       1.0  0.9611843432281226  0.006939020867334111  0.20341261160023105  1.0000
  C   C26       1.0  0.9626089263203029  0.017962001888218504  0.06741468820234364  1.0000
  C   C27       1.0  0.9116329297458158  0.9016882625755838  0.4128437104378335  1.0000
  O   O1        1.0  0.8542994225772322  0.9823499572619245  0.44840503024453426  1.0000
  H   H9        1.0  0.922818849392136  0.31032081587734117  0.38414950932576675  1.0000
  H   H10       1.0  0.9177826943611549  0.15536496274668976  0.8318197752176899  1.0000
  H   H11       1.0  0.9196307792504506  0.7382944500239443  0.8314321942711251  1.0000
  H   H12       1.0  0.9223898414983297  0.9757958885752237  0.4691947644013781  1.0000
  H   H13       1.0  0.9210462778665468  0.5197119840547306  0.5893871635985077  1.0000
  H   H14       1.0  0.8332302381343725  0.774339035729205  0.0015721233782656219  1.0000
  H   H15       1.0  0.8312170040097409  0.7551125012921217  0.24001178588073346  1.0000
  H   H16       1.0  0.9964742949158284  0.07302382316753508  0.25915216199055857  1.0000
  H   H17       1.0  0.9999442600771483  0.09138216975766267  0.02089160266628798  1.0000
  H   H18       1.0  0.9680763084616202  0.9319678148001043  0.4576249505701049  1.0000
  H   H19       1.0  0.8991737197363234  0.7991111887348589  0.449641076637059  1.0000
  H   H20       1.0  0.8546061220336525  0.9726552819968516  0.5450622606178412  1.0000
  C   C28       1.0  0.9205487119676852  0.46207389477087646  0.26068493222261147  1.0000
  C   C29       1.0  0.8406406969365179  0.44060591357397194  0.2543416473575615  1.0000
  C   C30       1.0  0.8002892694961872  0.42961919047951547  0.13399654804282624  1.0000
  C   C31       1.0  0.8408686914660857  0.4404071146831219  0.019093045684506427  1.0000
  C   C32       1.0  0.9207266308317696  0.4618691155643282  0.023483559717634828  1.0000
  C   C33       1.0  0.9601003230464056  0.4725714189506791  0.1447717529450998  1.0000
  C   C34       1.0  0.7158086016366795  0.40692808315010986  0.12833657180902813  1.0000
  C   C35       1.0  0.6813034560937459  0.3184362913142438  0.04444356608727107  1.0000
  C   C36       1.0  0.6018035905470093  0.29717606418132836  0.03914951519731291  1.0000
  C   C37       1.0  0.5553930244337657  0.3633366817582302  0.1181651293216075  1.0000
  C   C38       1.0  0.5894874184442878  0.45265616331787384  0.2010475722500582  1.0000
  C   C39       1.0  0.6689865096391285  0.47392055535091626  0.2064895091118666  1.0000
  C   C40       1.0  0.4697487434985905  0.3427826753619141  0.11011490150088621  1.0000
  C   C41       1.0  0.435226658787732  0.4350510848117599  0.009851000196148485  1.0000
  C   C42       1.0  0.4068546432425255  0.5109240106435473  0.9274075469094889  1.0000
  H   H21       1.0  0.0714320903649408  0.5018014848958983  0.480017495986923  1.0000
  H   H22       1.0  0.809782992444133  0.43063373911406755  0.3433627941200459  1.0000
  H   H23       1.0  0.8098999382020828  0.4338171921955587  0.925933856301481  1.0000
  H   H24       1.0  0.021697169287042017  0.4891219282610557  0.14887402454004683  1.0000
  H   H25       1.0  0.9514458291538335  0.47008281812244057  0.6977002071415557  1.0000
  H   H26       1.0  0.7158909599502226  0.2645756492177507  0.9839158626879945  1.0000
  H   H27       1.0  0.5764153992901563  0.22890704940809847  0.9735416749360697  1.0000
  H   H28       1.0  0.5544519335328509  0.5061880522554081  0.2611938082911842  1.0000
  H   H29       1.0  0.6937485364771936  0.5442696409852548  0.2704042129729394  1.0000
  H   H30       1.0  0.4544557377948162  0.24186706577341233  0.08545728869930569  1.0000
  H   H31       1.0  0.4453237891388904  0.3571629466699826  0.20533616295729984  1.0000
  H   H32       1.0  0.38196794315044397  0.5775388605392391  0.8550314608328362  1.0000
  Zn  Zn1       1.0  0.8365706292909186  0.45830436921282214  0.6352215586762184  1.0000
  Zn  Zn2       1.0  0.004697394859537907  0.4656377231331035  0.6489457708719295  1.0000
  C   C43       1.0  0.9206922912266876  0.4567337172381727  0.8793001326496113  1.0000
  C   C44       1.0  0.9205775685817229  0.4672100938917412  0.40486747362257103  1.0000
  C   C45       1.0  0.9205875347921095  0.6991820314223374  0.6368185304124805  1.0000
  C   C46       1.0  0.9206822679585202  0.2247602167710927  0.6473491410116339  1.0000
  O   O2        1.0  0.9843904855330461  0.4717111526795321  0.45846472078976164  1.0000
  O   O3        1.0  0.9844836992520296  0.457797524700545  0.8361188714774863  1.0000
  O   O4        1.0  0.9843982473232479  0.6535775667034143  0.640313191351104  1.0000
  O   O5        1.0  0.9844758800670717  0.2759311174913195  0.6542702988470479  1.0000
  O   O6        1.0  0.8567920867099693  0.6480109723535079  0.6298970260108678  1.0000
  O   O7        1.0  0.8568775383231162  0.4522324907860231  0.8257026362950863  1.0000
  O   O8        1.0  0.8567843242994708  0.4661460739271428  0.4480469241034497  1.0000
  O   O9        1.0  0.8568697188548369  0.2703660294231749  0.6438525995396005  1.0000
