data_image0
_chemical_formula_structural       NC9NC5H8C16H10C12IH9Zn2C4O8
_chemical_formula_sum              "N2 C46 H27 I1 Zn2 O8"
_cell_length_a       17.807436237873137
_cell_length_b       10.29914801576943
_cell_length_c       10.29977335064465
_cell_angle_alpha    85.52085607386434
_cell_angle_beta     89.4010069247268
_cell_angle_gamma    88.40369483635645

_space_group_name_H-M_alt    "P 1"
_space_group_IT_number       1

loop_
  _space_group_symop_operation_xyz
  'x, y, z'

loop_
  _atom_site_type_symbol
  _atom_site_label
  _atom_site_symmetry_multiplicity
  _atom_site_fract_x
  _atom_site_fract_y
  _atom_site_fract_z
  _atom_site_occupancy
  N   N1        1.0  0.7074710346093039  0.38827917946420154  0.5565441979968646  1.0000
  C   C1        1.0  0.6468775487653372  0.35308993144145573  0.5455350841767583  1.0000
  C   C2        1.0  0.5715059121623834  0.3093183821487975  0.5318409419184937  1.0000
  C   C3        1.0  0.5533947050445635  0.23792817391411525  0.4268680711719073  1.0000
  C   C4        1.0  0.4802127118992846  0.19531789167313018  0.41348935986465074  1.0000
  C   C5        1.0  0.4240931514739614  0.22372026834234582  0.5050512265484479  1.0000
  C   C6        1.0  0.346319581505793  0.1785514141688811  0.49091514721777196  1.0000
  C   C7        1.0  0.2841570970312739  0.2603063753796273  0.5168196662823525  1.0000
  C   C8        1.0  0.2108327718676128  0.21749303547154453  0.503454721575453  1.0000
  C   C9        1.0  0.1476206085027907  0.30193945062147964  0.5297220109271934  1.0000
  N   N2        1.0  0.0968110165644352  0.3698285257459386  0.5508401875372604  1.0000
  C   C10       1.0  0.199087347834106  0.09266674187555846  0.46416001662679274  1.0000
  C   C11       1.0  0.2603924597642029  0.010897929726786382  0.4382471136881818  1.0000
  C   C12       1.0  0.3335972787959801  0.05331675677539072  0.4514096859143033  1.0000
  C   C13       1.0  0.4428958527476239  0.2956048176354671  0.6102431190210031  1.0000
  C   C14       1.0  0.5161306760550588  0.3380247358191957  0.6234662595735199  1.0000
  H   H1        1.0  0.595779790299522  0.21546194393523543  0.3551647165624674  1.0000
  H   H2        1.0  0.4672849105679712  0.14165545341964814  0.3305914280794269  1.0000
  H   H3        1.0  0.2926709029145824  0.357770397364209  0.5456556882748789  1.0000
  H   H4        1.0  0.1426165689874904  0.05863114236265399  0.45357945693515656  1.0000
  H   H5        1.0  0.2511803121183799  0.9142544170143087  0.4082103340045622  1.0000
  H   H6        1.0  0.3802271298806648  0.9875721826297007  0.4323889540259498  1.0000
  H   H7        1.0  0.4012276930385172  0.3175315828986729  0.6832412001599597  1.0000
  H   H8        1.0  0.5295869007126084  0.39290815437231097  0.7053220496815902  1.0000
  C   C15       1.0  0.902091133051073  0.9976548097037978  0.5538584947158949  1.0000
  C   C16       1.0  0.8849254353816788  0.008105490933108195  0.4206361101240963  1.0000
  C   C17       1.0  0.8762772534814087  0.896271879489024  0.3529241209753651  1.0000
  C   C18       1.0  0.8850256829454175  0.7728490415538953  0.4202300514973343  1.0000
  C   C19       1.0  0.9021980850114998  0.7604425760748698  0.5535370906908257  1.0000
  C   C20       1.0  0.9106264189939729  0.8733668219791578  0.6195304763734677  1.0000
  C   C21       1.0  0.858118200974104  0.9083730367441466  0.2119909020211972  1.0000
  C   C22       1.0  0.8936537717549831  0.8257284417601063  0.1262526729243989  1.0000
  C   C23       1.0  0.8765368517849241  0.8372440541144077  0.9936121454187243  1.0000
  C   C24       1.0  0.8237085605602659  0.9313134207523299  0.9449081688171694  1.0000
  C   C25       1.0  0.7880358843624322  0.013945197903594053  0.029364466750197105  1.0000
  C   C26       1.0  0.8050992428248284  0.0026733834784031796  0.16202672551146002  1.0000
  C   C27       1.0  0.8061143981013427  0.94304373987275  0.8083418909590403  1.0000
  C   C28       1.0  0.791379476758164  0.9528677687193272  0.6939696098588546  1.0000
  C   C29       1.0  0.7741250578544113  0.9643715752774875  0.5600408346171513  1.0000
  C   C30       1.0  0.7593926093925034  0.9741941044328615  0.44568702503639823  1.0000
  H   H9        1.0  0.9086551613851307  0.32111145666061947  0.6051161904626898  1.0000
  H   H10       1.0  0.8792532115665428  0.10344455143017206  0.36880917244502576  1.0000
  H   H11       1.0  0.8774144061753841  0.6863312672046944  0.3689261027557893  1.0000
  H   H12       1.0  0.923864564957599  0.8645901564551312  0.7222892090801012  1.0000
  H   H13       1.0  0.9341448764402007  0.5297414545312876  0.8053321920870673  1.0000
  H   H14       1.0  0.9353899516219889  0.75333559808312  0.16149088682290746  1.0000
  H   H15       1.0  0.9046374499461008  0.7730079204700795  0.9290256622795661  1.0000
  H   H16       1.0  0.746897115395083  0.08687447649738922  0.9927476090542942  1.0000
  H   H17       1.0  0.7761228069680082  0.06656144633871186  0.22582325331427944  1.0000
  H   H18       1.0  0.7464563335252826  0.9828191119942415  0.34527473704634826  1.0000
  C   C31       1.0  0.9021088118371435  0.3791564823423048  0.17232906325189234  1.0000
  C   C32       1.0  0.9702192512233836  0.4449381652504354  0.16496506887646833  1.0000
  C   C33       1.0  0.004767451800892886  0.47816071103733093  0.04410315534648146  1.0000
  C   C34       1.0  0.97029148553127  0.4447205672997867  0.9296944870605741  1.0000
  C   C35       1.0  0.9021804172625029  0.37894091931155227  0.9350665316067017  1.0000
  C   C36       1.0  0.8684707651094148  0.34652614487132083  0.05684624356181667  1.0000
  C   C37       1.0  0.07682231925279992  0.5477499365936482  0.03736668676375143  1.0000
  C   C38       1.0  0.08865454812236906  0.65021711734246  0.11696075905194059  1.0000
  C   C39       1.0  0.15651189087021744  0.7155994896454387  0.11041803270396566  1.0000
  C   C40       1.0  0.21329127657489044  0.6795462842576769  0.024610836112881396  1.0000
  C   C41       1.0  0.20218384414530233  0.5779310289419322  0.9451485142500795  1.0000
  C   C42       1.0  0.13440268168252367  0.5123190552699122  0.9512842776502448  1.0000
  I   I1        1.0  0.3155956704379397  0.7783457911793676  0.015050335156457706  1.0000
  H   H19       1.0  0.8761338152761248  0.35415671895499634  0.5025838610241926  1.0000
  H   H20       1.0  0.9970869472769236  0.46891406161077875  0.253537726461339  1.0000
  H   H21       1.0  0.99616800487298  0.4716844113163612  0.8361907647303211  1.0000
  H   H22       1.0  0.8159262403715573  0.29577972736234215  0.06175887621713194  1.0000
  H   H23       1.0  0.8762386778059039  0.3538395813699555  0.6096626159999974  1.0000
  H   H24       1.0  0.04509633676905089  0.6808616734681343  0.18297761799648216  1.0000
  H   H25       1.0  0.16483731271254598  0.794488672726918  0.1718486809902915  1.0000
  H   H26       1.0  0.24611133355247516  0.5495053924097317  0.8788341667474016  1.0000
  H   H27       1.0  0.12738270801358786  0.4328270747875209  0.8899956408858531  1.0000
  Zn  Zn1       1.0  0.8198261422212353  0.3829512516760769  0.554905656040414  1.0000
  Zn  Zn2       1.0  0.9844558902730555  0.3751458635107632  0.552489410561352  1.0000
  C   C43       1.0  0.902164477023359  0.3738076573095037  0.7908949926484345  1.0000
  C   C44       1.0  0.902119353464416  0.38429101135505594  0.3165001743438378  1.0000
  C   C45       1.0  0.9021735223603282  0.6162611075976194  0.5484227083447979  1.0000
  C   C46       1.0  0.9021102517385144  0.1418360032856223  0.558972529368112  1.0000
  O   O1        1.0  0.9645990219468258  0.3830464358790109  0.3639683660664004  1.0000
  O   O2        1.0  0.9646349778667275  0.3691271440786352  0.7415925530824172  1.0000
  O   O3        1.0  0.9646414400093563  0.564911410977597  0.5457944797676579  1.0000
  O   O4        1.0  0.9645925036193778  0.18726218096197167  0.5597663428271284  1.0000
  O   O5        1.0  0.8396894726948592  0.5708349368898802  0.5476287245923519  1.0000
  O   O6        1.0  0.8396830107611094  0.37505223043724745  0.7434267280041882  1.0000
  O   O7        1.0  0.8396470547382501  0.3889714774170183  0.36580097960663793  1.0000
  O   O8        1.0  0.8396405364155678  0.19318721318306786  0.5615990537391125  1.0000
