data_image0
_chemical_formula_structural       NC12NC2H8C12OCH12C15H12Zn2C4O8
_chemical_formula_sum              "N2 C46 H32 O9 Zn2"
_cell_length_a       19.240039667572717
_cell_length_b       10.29979075500242
_cell_length_c       10.299157797200024
_cell_angle_alpha    85.53980185155037
_cell_angle_beta     90.02248165465589
_cell_angle_gamma    89.9807799165636

_space_group_name_H-M_alt    "P 1"
_space_group_IT_number       1

loop_
  _space_group_symop_operation_xyz
  'x, y, z'

loop_
  _atom_site_type_symbol
  _atom_site_label
  _atom_site_symmetry_multiplicity
  _atom_site_fract_x
  _atom_site_fract_y
  _atom_site_fract_z
  _atom_site_occupancy
  N   N1        1.0  0.6539208911421054  0.4216809838028728  0.5672949634509339  1.0000
  C   C1        1.0  0.5937725222925269  0.42168106780739634  0.5672948815049634  1.0000
  C   C2        1.0  0.5189544851014518  0.4216811851321811  0.5672947441862974  1.0000
  C   C3        1.0  0.48251407625344506  0.35718633594426596  0.6707160791496904  1.0000
  C   C4        1.0  0.4098433662492764  0.3570754301600165  0.6708026319286389  1.0000
  C   C5        1.0  0.3726222500996588  0.42168127776260556  0.5672945164864569  1.0000
  C   C6        1.0  0.4097768123445498  0.48628731229476174  0.4637865955876481  1.0000
  C   C7        1.0  0.48244753897213494  0.486176170976633  0.46387327088580244  1.0000
  C   C8        1.0  0.2954171596541105  0.4216811991292422  0.5672944210689113  1.0000
  C   C9        1.0  0.2582584882216767  0.30840877063832384  0.609172908419181  1.0000
  C   C10       1.0  0.1855877614513461  0.3085156967960938  0.6090815725515883  1.0000
  C   C11       1.0  0.14908487276690896  0.42168106993928633  0.567294481988831  1.0000
  C   C12       1.0  0.0742668356846292  0.4216809561251107  0.5672947306698113  1.0000
  N   N2        1.0  0.014118518883652198  0.4216809152415726  0.56729493910355  1.0000
  C   C13       1.0  0.1855294949143542  0.5348465189250677  0.525507338528636  1.0000
  C   C14       1.0  0.2582001526795286  0.534953625250018  0.5254158400483822  1.0000
  H   H1        1.0  0.5102548700012693  0.30725282535690424  0.7514644999271234  1.0000
  H   H2        1.0  0.3827760783236702  0.3079396794541489  0.7526665895555653  1.0000
  H   H3        1.0  0.3826575694664858  0.5354230900676353  0.3819225871079923  1.0000
  H   H4        1.0  0.5101365167633459  0.5361095812222458  0.38312512592497017  1.0000
  H   H5        1.0  0.2853743226969792  0.2192447252347527  0.640346508147887  1.0000
  H   H6        1.0  0.1578955343231721  0.2202505296906092  0.6412881594573754  1.0000
  H   H7        1.0  0.157791898602202  0.6231116614895882  0.4933007661752893  1.0000
  H   H8        1.0  0.28527079699781  0.6241177498428314  0.49424219554180127  1.0000
  C   C15       1.0  0.8340855098263977  0.040313192796992636  0.5673338874644098  1.0000
  C   C16       1.0  0.8139944781219589  0.029108317892983626  0.698780109154693  1.0000
  C   C17       1.0  0.803759038276898  0.9062944470684419  0.7653517560169352  1.0000
  C   C18       1.0  0.8138695983158138  0.7938260441052987  0.6987143200087815  1.0000
  C   C19       1.0  0.8339605989703393  0.8030387045160587  0.5672671657459278  1.0000
  C   C20       1.0  0.8439576744307737  0.9267232076483408  0.502313635955681  1.0000
  C   C21       1.0  0.7825080994422537  0.8954944272117605  0.9044157343199106  1.0000
  C   C22       1.0  0.731805441001802  0.8046149066240355  0.9494840929282409  1.0000
  C   C23       1.0  0.7118671808276301  0.7947239282252837  0.08023124916881441  1.0000
  C   C24       1.0  0.7421823081229076  0.8750434308814785  0.16758482992242563  1.0000
  C   C25       1.0  0.7930703918507069  0.9665314837970405  0.12438829306805788  1.0000
  C   C26       1.0  0.81279307651603  0.9760614301236827  0.9931144045172351  1.0000
  O   O1        1.0  0.825214582665044  0.049206635496762186  0.20826191633662172  1.0000
  C   C27       1.0  0.8103425418867798  0.05014368155280624  0.34360641109286383  1.0000
  H   H9        1.0  0.841771474668375  0.3720342020680041  0.5172685278555675  1.0000
  H   H10       1.0  0.8053378224864078  0.1161195306487286  0.7492119980008807  1.0000
  H   H11       1.0  0.8069517780016092  0.6989105101831625  0.7500853799345311  1.0000
  H   H12       1.0  0.8594575914456368  0.9345988987598782  0.4009084295005727  1.0000
  H   H13       1.0  0.8415816010996553  0.4790976893848881  0.517164168718133  1.0000
  H   H14       1.0  0.7069321789383903  0.7424057754831788  0.8832704650645886  1.0000
  H   H15       1.0  0.6726212021255209  0.7247437746108366  0.11391214171168607  1.0000
  H   H16       1.0  0.7257326301174016  0.8652637011967919  0.2682576610838888  1.0000
  H   H17       1.0  0.8526001592271044  0.045614919170497314  0.9609464632525686  1.0000
  H   H18       1.0  0.8223592267612724  0.953599426398323  0.39423212681213404  1.0000
  H   H19       1.0  0.8431489552889095  0.1247700092831101  0.3858233360523724  1.0000
  H   H20       1.0  0.7548621159137209  0.07505001323194804  0.3580428011315264  1.0000
  C   C28       1.0  0.8339424433274844  0.4217822134920468  0.18590851363580518  1.0000
  C   C29       1.0  0.7615531137364325  0.40380291762195397  0.18608525806856502  1.0000
  C   C30       1.0  0.7249984217800282  0.3945779002696257  0.06903256030431715  1.0000
  C   C31       1.0  0.7617596537675784  0.4035941865344155  0.9508179816517068  1.0000
  C   C32       1.0  0.834103619460577  0.42156968770517644  0.9486925543309628  1.0000
  C   C33       1.0  0.8697725728404424  0.43055297388238434  0.06676811751992973  1.0000
  C   C34       1.0  0.6484666883372184  0.37557511419840495  0.07026571672275894  1.0000
  C   C35       1.0  0.617207554973031  0.2885964043165008  0.9891662827111363  1.0000
  C   C36       1.0  0.5451879721542611  0.2708070349977185  0.9903589855487835  1.0000
  C   C37       1.0  0.5031448904792064  0.33898730032074864  0.07318311605633321  1.0000
  C   C38       1.0  0.5340319281929432  0.42681155432890705  0.15330576090084413  1.0000
  C   C39       1.0  0.606050809555139  0.4446051219891034  0.152261008423612  1.0000
  C   C40       1.0  0.42555905007267303  0.3221722120825017  0.07212164052188186  1.0000
  C   C41       1.0  0.39428602611393476  0.41593931524414485  0.9747025437633461  1.0000
  C   C42       1.0  0.3685842552719186  0.49304394073221025  0.8945971079975803  1.0000
  H   H21       1.0  0.9706289332171427  0.4549224891765946  0.3929296482539979  1.0000
  H   H22       1.0  0.7335988513049058  0.3951780932220468  0.27762375020343444  1.0000
  H   H23       1.0  0.7337048187977253  0.39835617680955404  0.8601861395487056  1.0000
  H   H24       1.0  0.9255736636799338  0.4444142407327809  0.065844445243048  1.0000
  H   H25       1.0  0.8619323941583807  0.4284422312601326  0.6204026829968687  1.0000
  H   H26       1.0  0.6485401516271841  0.23323099960239335  0.9257990240625111  1.0000
  H   H27       1.0  0.5221881058743538  0.20365157978775028  0.926805728046844  1.0000
  H   H28       1.0  0.5022935001307446  0.4818677816245358  0.21632804736841327  1.0000
  H   H29       1.0  0.6284834464194347  0.5138677974713399  0.21417284092768063  1.0000
  H   H30       1.0  0.4117042110555833  0.22193237780644237  0.048685150931164545  1.0000
  H   H31       1.0  0.40343245109158726  0.33761709414824126  0.16934161158632088  1.0000
  H   H32       1.0  0.3460397783907953  0.5607391788613616  0.8242718465832399  1.0000
  Zn  Zn1       1.0  0.7578661571333638  0.42167749473959004  0.5673024456077487  1.0000
  Zn  Zn2       1.0  0.9101732756386696  0.42167380790381337  0.5672980574151925  1.0000
  C   C43       1.0  0.8340724696754221  0.41643621760137606  0.8045105154962497  1.0000
  C   C44       1.0  0.8339686260441488  0.4269167235808857  0.3300901148097095  1.0000
  C   C45       1.0  0.8339795213312412  0.6588688130264946  0.5621043301211393  1.0000
  C   C46       1.0  0.8340615226867607  0.1844825678398716  0.5724963695655412  1.0000
  O   O2        1.0  0.8917771718486158  0.4286328472117733  0.37847711247793603  1.0000
  O   O3        1.0  0.8918615027511166  0.4147163161320542  0.7561198135083518  1.0000
  O   O4        1.0  0.891785666904714  0.6104837025591088  0.560375103658378  1.0000
  O   O5        1.0  0.8918529557008148  0.23286547010329972  0.5742217249480241  1.0000
  O   O6        1.0  0.7761864250962722  0.6104858325427778  0.5603787780695828  1.0000
  O   O7        1.0  0.7762622606692975  0.4147200064342922  0.7561234185335017  1.0000
  O   O8        1.0  0.7761779294904407  0.42863649269319004  0.37847915601169024  1.0000
  O   O9        1.0  0.7762537133618971  0.23286910626880952  0.5742238658563303  1.0000
