data_image0
_chemical_formula_structural       NC12NC2H8C12ClH9C16H10Zn2C4O8
_chemical_formula_sum              "N2 C46 H27 Cl1 Zn2 O8"
_cell_length_a       17.80743265337812
_cell_length_b       10.299768534541528
_cell_length_c       10.299151387937775
_cell_angle_alpha    85.58714147101236
_cell_angle_beta     91.5231079548936
_cell_angle_gamma    89.45366305101135

_space_group_name_H-M_alt    "P 1"
_space_group_IT_number       1

loop_
  _space_group_symop_operation_xyz
  'x, y, z'

loop_
  _atom_site_type_symbol
  _atom_site_label
  _atom_site_symmetry_multiplicity
  _atom_site_fract_x
  _atom_site_fract_y
  _atom_site_fract_z
  _atom_site_occupancy
  N   N1        1.0  0.7078325361957947  0.406005248133376  0.601427616845158  1.0000
  C   C1        1.0  0.6570255472352374  0.4355312153281714  0.5327315126980818  1.0000
  C   C2        1.0  0.5938166368623392  0.4722593770276655  0.44728220689171305  1.0000
  C   C3        1.0  0.6055668678729075  0.5262195522653506  0.32066728471246453  1.0000
  C   C4        1.0  0.5442647764607447  0.5614452749033643  0.23761384434876232  1.0000
  C   C5        1.0  0.4710582703434338  0.5429739716601296  0.28051544823928665  1.0000
  C   C6        1.0  0.4583311940098416  0.4888952162124909  0.407598499400597  1.0000
  C   C7        1.0  0.5204906038830515  0.4536727396298965  0.4906354285037091  1.0000
  C   C8        1.0  0.3805559692901189  0.4693111517919719  0.4533602932170895  1.0000
  C   C9        1.0  0.361761775073193  0.4965573373513883  0.5804041894239673  1.0000
  C   C10       1.0  0.2885253263659618  0.4781276261164906  0.6233463578647445  1.0000
  C   C11       1.0  0.23313996859104782  0.4321978577526291  0.5400825720061035  1.0000
  C   C12       1.0  0.1577666676998253  0.413215991617897  0.5844256165181183  1.0000
  N   N2        1.0  0.0971718713905937  0.397955847833936  0.6200743737989454  1.0000
  C   C13       1.0  0.25124258235484  0.40478301914153403  0.4135816279024913  1.0000
  C   C14       1.0  0.3244262051941535  0.42322739435122125  0.37038357713630154  1.0000
  H   H1        1.0  0.6620388182738984  0.5410268058765044  0.2862316168233092  1.0000
  H   H2        1.0  0.553480668328685  0.6034954503372028  0.13983854351039104  1.0000
  H   H3        1.0  0.4244311253211823  0.5725780203753918  0.21492724690044285  1.0000
  H   H4        1.0  0.5119728584469971  0.41023721372029365  0.5882862113090046  1.0000
  H   H5        1.0  0.40343810324737306  0.5337672486216245  0.645978298571178  1.0000
  H   H6        1.0  0.2750757650336211  0.5000193947428133  0.7213549284207705  1.0000
  H   H7        1.0  0.20884956072645064  0.3688405701165314  0.34842053498362047  1.0000
  H   H8        1.0  0.3373470642755991  0.3998002413111037  0.2726782550803759  1.0000
  C   C15       1.0  0.9024349443064537  0.02061655463084522  0.610745632302649  1.0000
  C   C16       1.0  0.9073984792832176  0.030020448913509634  0.47451400772967833  1.0000
  C   C17       1.0  0.9099857642695057  0.9176446197683199  0.40549520795329164  1.0000
  C   C18       1.0  0.9075419608316342  0.7947297717767479  0.47453636952525735  1.0000
  C   C19       1.0  0.9025766585446248  0.7833343849678273  0.6107678474061664  1.0000
  C   C20       1.0  0.9000515095019027  0.8968339728713742  0.678109608103441  1.0000
  C   C21       1.0  0.9152377693730543  0.9286468031297053  0.26137355381787963  1.0000
  C   C22       1.0  0.8725073360203526  0.023038015594080363  0.1848630247726304  1.0000
  C   C23       1.0  0.8775176081228153  0.03319640882598551  0.04922281869318201  1.0000
  C   C24       1.0  0.9251859588085144  0.9494864865256051  0.9883978133521487  1.0000
  C   C25       1.0  0.9679042538840106  0.8554071140383172  0.06339653591033834  1.0000
  C   C26       1.0  0.9630273917744245  0.8448537177370397  0.19905777473124497  1.0000
  Cl  Cl1       1.0  0.9313883832456085  0.9624794731837835  0.8182093476666288  1.0000
  H   H9        1.0  0.9005050468691719  0.3444877538042119  0.6626514882085273  1.0000
  H   H10       1.0  0.910300912085982  0.12494994144098692  0.42192026353526235  1.0000
  H   H11       1.0  0.9084838735970139  0.7078535488818682  0.4216351737930555  1.0000
  H   H12       1.0  0.8962216099144602  0.8888111283336048  0.7832059988959454  1.0000
  H   H13       1.0  0.9007145573469909  0.45153784702824395  0.6626847512976308  1.0000
  H   H14       1.0  0.8345176026141092  0.08781962516411679  0.2297871841561443  1.0000
  H   H15       1.0  0.844168769664707  0.1059754612438022  0.9915137044658495  1.0000
  H   H16       1.0  0.005056357464676697  0.7905954742077573  0.016742776600909615  1.0000
  H   H17       1.0  0.9973297072363277  0.7723476136951641  0.25531824430488026  1.0000
  C   C27       1.0  0.9025493056250032  0.4018058452276636  0.22938786453012283  1.0000
  C   C28       1.0  0.8300741602137354  0.45725671479447505  0.22100942395676215  1.0000
  C   C29       1.0  0.7932829884597721  0.48554631656302316  0.09960328539357155  1.0000
  C   C30       1.0  0.8299435418652037  0.4576370055400545  0.9856908416654089  1.0000
  C   C31       1.0  0.9024622789007031  0.40214509080610905  0.9921256800096527  1.0000
  C   C32       1.0  0.9383194556467428  0.3745730612526701  0.11437944653192411  1.0000
  C   C33       1.0  0.7166130620805521  0.544206931956503  0.09178531755469588  1.0000
  C   C34       1.0  0.697549764939788  0.6444123395801546  0.9955695603471484  1.0000
  C   C35       1.0  0.6253756413452302  0.6995847550748777  0.9883389667430755  1.0000
  C   C36       1.0  0.5713180367925169  0.6553797803708474  0.0769770608364515  1.0000
  C   C37       1.0  0.5897005581762014  0.5557467804594913  0.17299813198331582  1.0000
  C   C38       1.0  0.6618531124363077  0.5004872189753005  0.18047725573700868  1.0000
  C   C39       1.0  0.4970251368622572  0.7122257081184888  0.06940565964489376  1.0000
  C   C40       1.0  0.4348058814810615  0.7598333148506256  0.06306463286674235  1.0000
  C   C41       1.0  0.36194778043002457  0.8155813941221461  0.055639354993574086  1.0000
  C   C42       1.0  0.2997385798468392  0.863181545098433  0.049299459461523254  1.0000
  H   H18       1.0  0.9304103645141123  0.3804148318766871  0.5600902487790049  1.0000
  H   H19       1.0  0.8024748233051633  0.4802214603554018  0.30899191190452213  1.0000
  H   H20       1.0  0.8014408622898122  0.4776050865203829  0.8919532557313006  1.0000
  H   H21       1.0  0.994220488141428  0.3317988454923031  0.12012643516943422  1.0000
  H   H22       1.0  0.03914870778711821  0.29665258659426685  0.7970279172534616  1.0000
  H   H23       1.0  0.7387419062140325  0.6812623257488086  0.9269967383653737  1.0000
  H   H24       1.0  0.6118037340083016  0.7769137519760485  0.9138380939494639  1.0000
  H   H25       1.0  0.5482173181978794  0.5205439924099955  0.2418884539090005  1.0000
  H   H26       1.0  0.6745370702930067  0.4224149512429831  0.25454256904988815  1.0000
  H   H27       1.0  0.2451137654760893  0.9049783453329991  0.043732515113327874  1.0000
  Zn  Zn1       1.0  0.8201874599808361  0.40367890117927163  0.60681615494076  1.0000
  Zn  Zn2       1.0  0.9848169419349863  0.4002716061795397  0.6146964284447445  1.0000
  C   C43       1.0  0.90247609910837  0.3969074282893761  0.8479516532477309  1.0000
  C   C44       1.0  0.902530100846172  0.4070446805167398  0.3735611437043844  1.0000
  C   C45       1.0  0.9025465887638707  0.639162292925398  0.6055883283246901  1.0000
  C   C46       1.0  0.9024595547163499  0.16478825679201092  0.6159245351315275  1.0000
  O   O1        1.0  0.9649996849221693  0.40750416513463583  0.42493753579545146  1.0000
  O   O2        1.0  0.9649564824292889  0.39386090573013033  0.8025558325344588  1.0000
  O   O3        1.0  0.9650125613567386  0.589484790686273  0.6068456926235193  1.0000
  O   O4        1.0  0.9649435498306641  0.2118802905879571  0.620647575642995  1.0000
  O   O5        1.0  0.8400607959051967  0.5920702179350075  0.6008650050465281  1.0000
  O   O6        1.0  0.8400047172721072  0.39644789323172525  0.7965750757573833  1.0000
  O   O7        1.0  0.8400479199846758  0.41009110668525595  0.4189552176188298  1.0000
  O   O8        1.0  0.8399917848772647  0.2144672228932667  0.6146653548337877  1.0000
