data_image0
_chemical_formula_structural       NC10NC3NCH9C16H10C13NH9Zn2C4O8
_chemical_formula_sum              "N4 C47 H28 Zn2 O8"
_cell_length_a       19.437513618241372
_cell_length_b       10.29914801576943
_cell_length_c       10.298528502251457
_cell_angle_alpha    85.51780360307934
_cell_angle_beta     90.34428338018773
_cell_angle_gamma    89.53623586623313

_space_group_name_H-M_alt    "P 1"
_space_group_IT_number       1

loop_
  _space_group_symop_operation_xyz
  'x, y, z'

loop_
  _atom_site_type_symbol
  _atom_site_label
  _atom_site_symmetry_multiplicity
  _atom_site_fract_x
  _atom_site_fract_y
  _atom_site_fract_z
  _atom_site_occupancy
  N   N1        1.0  0.648062516872529  0.41107708952280353  0.574985874255959  1.0000
  C   C1        1.0  0.5891313401206439  0.4280895857187985  0.5720039042269591  1.0000
  C   C2        1.0  0.5156935658843637  0.4493451324085336  0.5683024521483406  1.0000
  C   C3        1.0  0.4739178741443121  0.34815224981202664  0.5566749026957734  1.0000
  C   C4        1.0  0.39802910737658326  0.3582206528125609  0.549449340788672  1.0000
  C   C5        1.0  0.35846633827280094  0.43904890894971293  0.6151736134860482  1.0000
  C   C6        1.0  0.2822828604440952  0.43044339102376816  0.6067312706285486  1.0000
  C   C7        1.0  0.24913138118315992  0.30908779859187296  0.6114150567960468  1.0000
  C   C8        1.0  0.1773957494054123  0.3027184454439178  0.6042481852388804  1.0000
  C   C9        1.0  0.1378409158817114  0.417231818382237  0.5927599600654416  1.0000
  C   C10       1.0  0.0639907639013463  0.4105243278101265  0.5854250869026072  1.0000
  N   N2        1.0  0.0046203398233738  0.40513209531459626  0.5795283071494925  1.0000
  C   C11       1.0  0.1702757728939048  0.5382765144139752  0.5888216459513769  1.0000
  C   C12       1.0  0.24199584374226324  0.5448998525364046  0.5960504634094201  1.0000
  C   C13       1.0  0.3871640789318374  0.5313040034816559  0.7050746148651332  1.0000
  N   N3        1.0  0.4441571440605369  0.5945295769484993  0.6846471025981735  1.0000
  C   C14       1.0  0.4879939932442461  0.5853142357084682  0.5715283256213597  1.0000
  H   H1        1.0  0.496288883228802  0.25309398474988964  0.5445833621673597  1.0000
  H   H2        1.0  0.3733042580595906  0.28872730719327144  0.4911466663705135  1.0000
  H   H3        1.0  0.2785699477721444  0.2191647964219603  0.6224667957665384  1.0000
  H   H4        1.0  0.1527896718486892  0.20848365093354548  0.6081667652412446  1.0000
  H   H5        1.0  0.140151890801867  0.6275436072624345  0.580082561038588  1.0000
  H   H6        1.0  0.2661204544005044  0.6395474834014392  0.5921162862163021  1.0000
  H   H7        1.0  0.3571655869559606  0.5516562951427522  0.7894452091597017  1.0000
  H   H8        1.0  0.5307561426555827  0.6556294715338498  0.5772693803947897  1.0000
  H   H9        1.0  0.4583285137423389  0.613462448589684  0.48086210652662653  1.0000
  C   C15       1.0  0.8262957296712656  0.02670389702706255  0.5774220969618322  1.0000
  C   C16       1.0  0.8105902743441258  0.03661010765483974  0.44373145472445175  1.0000
  C   C17       1.0  0.8026778376298186  0.9245022192937747  0.37578348115295057  1.0000
  C   C18       1.0  0.8106821263133812  0.8013568991082258  0.44332798434250575  1.0000
  C   C19       1.0  0.8263937120686933  0.789495115200197  0.5771034681014666  1.0000
  C   C20       1.0  0.8341050041510624  0.9026866654085773  0.6433268395155953  1.0000
  C   C21       1.0  0.7860635298011605  0.9360273982720704  0.23435490696204297  1.0000
  C   C22       1.0  0.8186165472340862  0.8545286030245719  0.14954134892633197  1.0000
  C   C23       1.0  0.8029556975116949  0.8655012814389089  0.016433919498085148  1.0000
  C   C24       1.0  0.7545810336104598  0.9578763608440892  0.9663335202481651  1.0000
  C   C25       1.0  0.7219025982963467  0.039358000724323494  0.04986138013255137  1.0000
  C   C26       1.0  0.737514394011232  0.028627398765341372  0.1829891338032994  1.0000
  C   C27       1.0  0.7384835639822349  0.9690486200519206  0.8292872944903031  1.0000
  C   C28       1.0  0.7250021066897921  0.9784052797131918  0.7145130622616311  1.0000
  C   C29       1.0  0.7092154794092285  0.9893618024835558  0.5801136069718691  1.0000
  C   C30       1.0  0.6957362847167629  0.9987170409269602  0.46535791363051837  1.0000
  H   H10       1.0  0.8323013376550569  0.35036872904121585  0.6288588896433025  1.0000
  H   H11       1.0  0.8054014437052608  0.13176965651442352  0.3917488213800999  1.0000
  H   H12       1.0  0.8037174543086012  0.7145973053250233  0.3918173701390575  1.0000
  H   H13       1.0  0.8462170126265355  0.8943298934150163  0.746446693643054  1.0000
  H   H14       1.0  0.8556224403344351  0.5598070996168019  0.8297705127582455  1.0000
  H   H15       1.0  0.8568345689847301  0.7834744721907124  0.1858823845999158  1.0000
  H   H16       1.0  0.8286974118799356  0.8021710503265761  0.9525790392051139  1.0000
  H   H17       1.0  0.6842318388521855  0.11096782599749067  0.012157253648075184  1.0000
  H   H18       1.0  0.7109706764655952  0.09158146868351014  0.24603090970016006  1.0000
  H   H19       1.0  0.683900466608012  0.006931729643927964  0.3645927392888173  1.0000
  C   C31       1.0  0.8263545206267662  0.4082258339012821  0.19584596570973667  1.0000
  C   C32       1.0  0.7548316699103479  0.42928198993067923  0.1924363547612351  1.0000
  C   C33       1.0  0.7185975442689887  0.4398109522063638  0.07356233577430538  1.0000
  C   C34       1.0  0.754811098125633  0.42901745118999335  0.9571765001511361  1.0000
  C   C35       1.0  0.8263349295477677  0.40797315945579204  0.9586795416686305  1.0000
  C   C36       1.0  0.8616486509392941  0.3977093453899363  0.07847522094608994  1.0000
  C   C37       1.0  0.6429835046398145  0.4620658207630073  0.07096536534138043  1.0000
  C   C38       1.0  0.6126182646641676  0.5505105804194814  0.15145768775856716  1.0000
  C   C39       1.0  0.541442840688221  0.5714120411804031  0.148893701649232  1.0000
  C   C40       1.0  0.4996856031072275  0.5042440057647133  0.06604113147783353  1.0000
  C   C41       1.0  0.5293718333538889  0.4160469218374321  0.9856440667693356  1.0000
  C   C42       1.0  0.600539901184377  0.39505121114240005  0.987971388508035  1.0000
  C   C43       1.0  0.42641043627432396  0.5258127802933026  0.06352214820324509  1.0000
  N   N4        1.0  0.367502143209162  0.5431527435951775  0.06149709048446517  1.0000
  H   H20       1.0  0.9614475630413429  0.36763049282561666  0.40967573865754003  1.0000
  H   H21       1.0  0.7270469668977868  0.43575358850208534  0.28259548714811  1.0000
  H   H22       1.0  0.7272856185168336  0.43882439904225556  0.8651179468611412  1.0000
  H   H23       1.0  0.9167726951203715  0.3814856721065263  0.08036819297370434  1.0000
  H   H24       1.0  0.9615553107894982  0.3690186163018834  0.7541323074769881  1.0000
  H   H25       1.0  0.6440077868195433  0.6047601087400452  0.21513763503777494  1.0000
  H   H26       1.0  0.5190226166965025  0.6401819417140289  0.21128643247308454  1.0000
  H   H27       1.0  0.49750697416343115  0.3632556027677225  0.9213857268739951  1.0000
  H   H28       1.0  0.622284470153327  0.3251622929629694  0.9261173040704112  1.0000
  Zn  Zn1       1.0  0.7509574073707406  0.40935800062019556  0.5763042336220627  1.0000
  Zn  Zn2       1.0  0.9017254538901099  0.40684051024743506  0.5782206234532681  1.0000
  C   C44       1.0  0.8263364310406788  0.40284686340271714  0.8144898279619455  1.0000
  C   C45       1.0  0.8263480768097948  0.4133532586875326  0.34003517683816975  1.0000
  C   C46       1.0  0.8263717886753217  0.6453131218199784  0.5719878070390327  1.0000
  C   C47       1.0  0.8263126675263214  0.17088544067413625  0.5825372670063473  1.0000
  O   O1        1.0  0.8835616013978853  0.41411302859669674  0.3891536555982342  1.0000
  O   O2        1.0  0.883552365109397  0.4001753968713002  0.7668254712578573  1.0000
  O   O3        1.0  0.8835801455170016  0.5959699793792108  0.5710033632524623  1.0000
  O   O4        1.0  0.883533769547054  0.2183184562710827  0.5849756655589191  1.0000
  O   O5        1.0  0.7691490402640621  0.5978800554570602  0.5695491908556096  1.0000
  O   O6        1.0  0.7691212600555535  0.40208703340579666  0.7653712289549377  1.0000
  O   O7        1.0  0.7691304964240937  0.416024620387887  0.3876978517180527  1.0000
  O   O8        1.0  0.7691026645667546  0.22023003874048852  0.5835199590626456  1.0000
