data_image0
_chemical_formula_structural       NC9NC5H8C12ClH9C13NH9Zn2C4O8
_chemical_formula_sum              "N3 C43 H26 Cl1 Zn2 O8"
_cell_length_a       17.807436237873137
_cell_length_b       10.299768534541528
_cell_length_c       10.298528502251457
_cell_angle_alpha    85.54291766685282
_cell_angle_beta     89.38885601427037
_cell_angle_gamma    88.408414792471

_space_group_name_H-M_alt    "P 1"
_space_group_IT_number       1

loop_
  _space_group_symop_operation_xyz
  'x, y, z'

loop_
  _atom_site_type_symbol
  _atom_site_label
  _atom_site_symmetry_multiplicity
  _atom_site_fract_x
  _atom_site_fract_y
  _atom_site_fract_z
  _atom_site_occupancy
  N   N1        1.0  0.7077102003599745  0.3882138719934012  0.5569706174364246  1.0000
  C   C1        1.0  0.6471164555982523  0.3530285499167689  0.5459446592732471  1.0000
  C   C2        1.0  0.5717444969322041  0.30926188406954136  0.5322295645050374  1.0000
  C   C3        1.0  0.5536428402772026  0.23788358278302457  0.427212041522367  1.0000
  C   C4        1.0  0.48046053945068756  0.1952780567127237  0.41381292750776044  1.0000
  C   C5        1.0  0.4243311076390178  0.22367332063214596  0.505398873878897  1.0000
  C   C6        1.0  0.3465572059098658  0.1785095060249362  0.4912411725715571  1.0000
  C   C7        1.0  0.2843952830937099  0.2602553305048101  0.5171848674746429  1.0000
  C   C8        1.0  0.2110706393305752  0.21744676573462218  0.5037994326626096  1.0000
  C   C9        1.0  0.1478591158621461  0.3018837667400631  0.530107125419577  1.0000
  N   N2        1.0  0.0970500382229101  0.36976527349153465  0.5512577837106722  1.0000
  C   C10       1.0  0.1993243263773616  0.09263441014446805  0.4644449453092807  1.0000
  C   C11       1.0  0.2606288770410493  0.010874736465098733  0.4384928593883697  1.0000
  C   C12       1.0  0.3338340213952701  0.05328883615640012  0.4516757228634838  1.0000
  C   C13       1.0  0.4431242542393957  0.2955459047546569  0.6106356633801211  1.0000
  C   C14       1.0  0.5163593955340656  0.33796109258627083  0.6238791033412587  1.0000
  H   H1        1.0  0.5960356457604165  0.21542294453808775  0.35548973146872687  1.0000
  H   H2        1.0  0.46754040373792155  0.14162475909061722  0.3308809253848273  1.0000
  H   H3        1.0  0.2929100080178831  0.3577085577557868  0.5460673334172086  1.0000
  H   H4        1.0  0.1428532888555176  0.05860260464275702  0.45384810207763016  1.0000
  H   H5        1.0  0.2514159940936579  0.9142419964715643  0.4084098436961381  1.0000
  H   H6        1.0  0.3804632000288228  0.9875515230776065  0.43262371671772426  1.0000
  H   H7        1.0  0.4014481918938514  0.31746706865511864  0.6836526273181718  1.0000
  H   H8        1.0  0.5298081371955632  0.3928353022243136  0.7057693676515602  1.0000
  C   C15       1.0  0.9023128516842135  0.9976273811418237  0.5541130871816375  1.0000
  C   C16       1.0  0.9072646537913414  0.007004897472692173  0.41755466353944093  1.0000
  C   C17       1.0  0.9098459943651955  0.8946137676126467  0.3483657542735956  1.0000
  C   C18       1.0  0.9074081368516638  0.7717103759129067  0.4175680500750911  1.0000
  C   C19       1.0  0.9024545674267422  0.7603414143086396  0.5541264375918353  1.0000
  C   C20       1.0  0.8999352183594703  0.8738559506345517  0.6216342201274967  1.0000
  C   C21       1.0  0.9150855870720181  0.9055880186201182  0.20389831147014115  1.0000
  C   C22       1.0  0.8723486948872774  0.0011785002582498372  0.13005239962008153  1.0000
  C   C23       1.0  0.8773472848597662  0.011308808711006924  0.9940825404570424  1.0000
  C   C24       1.0  0.9250102666231678  0.9263747816103943  0.930267590356761  1.0000
  C   C25       1.0  0.9677348905201033  0.8310976401610279  0.002602275226718964  1.0000
  C   C26       1.0  0.9628697119669674  0.8205687538843806  0.13858482191006494  1.0000
  Cl  Cl1       1.0  0.9311980336725412  0.9393347703750476  0.759670762654657  1.0000
  H   H9        1.0  0.9003874247197836  0.321509663709616  0.6061458809290152  1.0000
  H   H10       1.0  0.9101625541589423  0.10189790188712311  0.36477304614804007  1.0000
  H   H11       1.0  0.9083454963597332  0.6848501962638796  0.3646016181304801  1.0000
  H   H12       1.0  0.8961143701399032  0.8658534757942128  0.7269827689612403  1.0000
  H   H13       1.0  0.9005969374577971  0.428554142866272  0.6061660384962906  1.0000
  H   H14       1.0  0.8343629348460551  0.06693843470329486  0.17735900036100505  1.0000
  H   H15       1.0  0.8439935779490936  0.08502226823566761  0.9384532572523074  1.0000
  H   H16       1.0  0.004882874358946188  0.7653313631297519  0.953618280763258  1.0000
  H   H17       1.0  0.9971767685336257  0.7471039383554237  0.19270562704246164  1.0000
  C   C27       1.0  0.9023944083222014  0.37911038517048024  0.17270275580423133  1.0000
  C   C28       1.0  0.8242966377863367  0.40267273491026034  0.17135899402629629  1.0000
  C   C29       1.0  0.7847315917683687  0.41447137104074416  0.053531492283599214  1.0000
  C   C30       1.0  0.8242741625751497  0.4024089431653013  0.9360996148139686  1.0000
  C   C31       1.0  0.9023730045235945  0.3788584221818416  0.9355367841696678  1.0000
  C   C32       1.0  0.9409330355272864  0.3673571862131697  0.05431252838889433  1.0000
  C   C33       1.0  0.7021665391211979  0.4393757910092795  0.05311853744524919  1.0000
  C   C34       1.0  0.6690135150196469  0.5288768791279337  0.13452282559850381  1.0000
  C   C35       1.0  0.5912951069253398  0.5522723646712209  0.1340146306577017  1.0000
  C   C36       1.0  0.5456956134335609  0.4865752014489828  0.052333282734796205  1.0000
  C   C37       1.0  0.5781072102851534  0.397345577256653  0.9710438856216159  1.0000
  C   C38       1.0  0.6558175816144396  0.37385610885979914  0.9713155863379526  1.0000
  C   C39       1.0  0.4656844405205858  0.5107115719686743  0.051930760685873434  1.0000
  N   N3        1.0  0.4013608527929309  0.5301157092981665  0.05160719512996348  1.0000
  H   H18       1.0  0.04990618447774997  0.3337814011772162  0.3826301712798601  1.0000
  H   H19       1.0  0.7939576776116345  0.4101180873825838  0.26231990334082367  1.0000
  H   H20       1.0  0.794218410815284  0.4131802319000921  0.8448368488445324  1.0000
  H   H21       1.0  0.0011244977757851604  0.3492019405160063  0.05461331257983115  1.0000
  H   H22       1.0  0.050023901818630145  0.3351656119058115  0.727084251258693  1.0000
  H   H23       1.0  0.7032914877806806  0.5820203682370795  0.19732399803107636  1.0000
  H   H24       1.0  0.5668166757597878  0.6218218720146094  0.19708223470047348  1.0000
  H   H25       1.0  0.5433102639093444  0.34567682602693295  0.9076786288246681  1.0000
  H   H26       1.0  0.6795581864824563  0.30321138650206114  0.90880556556337  1.0000
  Zn  Zn1       1.0  0.8200652653162818  0.3828865372730923  0.5553295287062452  1.0000
  Zn  Zn2       1.0  0.984694952802976  0.37508201870245506  0.5529095502138661  1.0000
  C   C40       1.0  0.9023744108033994  0.3737325688894546  0.7913447768140691  1.0000
  C   C41       1.0  0.9023876053677902  0.3842375404088916  0.3168944031912646  1.0000
  C   C42       1.0  0.9024240521906082  0.6161741548857724  0.5489481833167897  1.0000
  C   C43       1.0  0.9023379075121425  0.14179439677842987  0.5592910667342745  1.0000
  O   O1        1.0  0.964861429607873  0.3829908207809447  0.36436806793577414  1.0000
  O   O2        1.0  0.9648507099225178  0.3690548599252208  0.7420340304779267  1.0000
  O   O3        1.0  0.9648899537247678  0.5648295461896804  0.5462970786367121  1.0000
  O   O4        1.0  0.964822129633121  0.18721614650185536  0.560104923215974  1.0000
  O   O5        1.0  0.8399380323061044  0.5707524121384067  0.5481341565231255  1.0000
  O   O6        1.0  0.8398987887922608  0.3749792861728063  0.7438710391375978  1.0000
  O   O7        1.0  0.8399095085629923  0.3889152022867406  0.3662035149962388  1.0000
  O   O8        1.0  0.8398702085807099  0.1931405186869961  0.5619404676564412  1.0000
