data_image0
_chemical_formula_structural       NC12NC2H8C12NCOCH13C12OCH12Zn2C4O8
_chemical_formula_sum              "N3 C45 H33 O10 Zn2"
_cell_length_a       19.240039667572717
_cell_length_b       10.299155265289647
_cell_length_c       10.299794127170987
_cell_angle_alpha    85.56075829467142
_cell_angle_beta     89.99328814946611
_cell_angle_gamma    89.97652338962732

_space_group_name_H-M_alt    "P 1"
_space_group_IT_number       1

loop_
  _space_group_symop_operation_xyz
  'x, y, z'

loop_
  _atom_site_type_symbol
  _atom_site_label
  _atom_site_symmetry_multiplicity
  _atom_site_fract_x
  _atom_site_fract_y
  _atom_site_fract_z
  _atom_site_occupancy
  N   N1        1.0  0.6542553069985775  0.42096625816426525  0.5671504045771565  1.0000
  C   C1        1.0  0.5941069381680195  0.42096634212811845  0.5671503226223555  1.0000
  C   C2        1.0  0.5192889010097496  0.42096645938292476  0.5671501852937941  1.0000
  C   C3        1.0  0.4828228359059684  0.35652617365820505  0.6705739815983287  1.0000
  C   C4        1.0  0.4101521066937868  0.35641530910317964  0.6706605483422958  1.0000
  C   C5        1.0  0.3729566660664063  0.42096655188937326  0.5671499575988579  1.0000
  C   C6        1.0  0.41013690377301665  0.4855179817317832  0.4636395613389628  1.0000
  C   C7        1.0  0.4828076111685221  0.4854068816951216  0.46372625063832773  1.0000
  C   C8        1.0  0.2957515756500209  0.4209664731949081  0.5671498622079283  1.0000
  C   C9        1.0  0.2585859805847542  0.3077093499814574  0.609047572169602  1.0000
  C   C10       1.0  0.1859152744858302  0.3078162318441757  0.6089562236791208  1.0000
  C   C11       1.0  0.1494192887513329  0.4209663440299891  0.5671499231483692  1.0000
  C   C12       1.0  0.0746012516057207  0.42096623035022795  0.5671501718266383  1.0000
  N   N2        1.0  0.0144529347494939  0.42096618958359655  0.5671503802467055  1.0000
  C   C13       1.0  0.18587081386013649  0.5341165320338213  0.5253435697099593  1.0000
  C   C14       1.0  0.2585414923339259  0.5342235939840632  0.525252058586477  1.0000
  H   H1        1.0  0.5105435811952149  0.3066352975520985  0.7513242358262879  1.0000
  H   H2        1.0  0.3830644341936286  0.30732289775002775  0.7525260536678611  1.0000
  H   H3        1.0  0.3830380454823045  0.5346104201247497  0.38177400516042925  1.0000
  H   H4        1.0  0.5105166373470379  0.5352976576105777  0.3829762722185486  1.0000
  H   H5        1.0  0.28569685391275046  0.21855632006380432  0.6402364942650227  1.0000
  H   H6        1.0  0.15821776859920966  0.21956274541088283  0.6411778348546586  1.0000
  H   H7        1.0  0.1581384963034355  0.6223699939326228  0.4931219730904417  1.0000
  H   H8        1.0  0.2856170978085835  0.6233767030713273  0.49406309170139484  1.0000
  C   C15       1.0  0.83443507839702  0.039568782514195044  0.56726907509475  1.0000
  C   C16       1.0  0.8225708965441197  0.04924142896747963  0.4323507625185712  1.0000
  C   C17       1.0  0.8164882009349489  0.9370079573417048  0.3638266179965879  1.0000
  C   C18       1.0  0.8224047320859111  0.8139815968072783  0.4320429934074195  1.0000
  C   C19       1.0  0.8342798619368192  0.8023537331371874  0.5670428923920452  1.0000
  C   C20       1.0  0.8402250194710393  0.9156643942561119  0.6338248174275829  1.0000
  C   C21       1.0  0.8039381870935757  0.9482141186524865  0.22109933459012798  1.0000
  C   C22       1.0  0.8391909716078014  0.04230845769447278  0.13968587870806348  1.0000
  C   C23       1.0  0.8273863006034394  0.05272331649497941  0.005369994388206845  1.0000
  C   C24       1.0  0.7805249810744269  0.9683696547416862  0.9496222805545398  1.0000
  C   C25       1.0  0.744423232074404  0.8760915875093975  0.03096758059510285  1.0000
  C   C26       1.0  0.7562532192670591  0.8654207016882967  0.16524613134678656  1.0000
  N   N3        1.0  0.766483852714231  0.9785826615316021  0.8120682333855092  1.0000
  C   C27       1.0  0.8172384765497425  0.015499180488659281  0.7138554996050854  1.0000
  O   O1        1.0  0.8809974993842805  0.018039155619639313  0.7417124860841371  1.0000
  C   C28       1.0  0.7950743507469952  0.04191773180241931  0.5753226709531671  1.0000
  H   H9        1.0  0.8390201240498494  0.363324454670221  0.619158735163208  1.0000
  H   H10       1.0  0.8170751907654973  0.14427597757242494  0.3805437646514451  1.0000
  H   H11       1.0  0.8186692234964387  0.727171799949252  0.379417225874785  1.0000
  H   H12       1.0  0.849378450645375  0.9074888147174989  0.7378896859538635  1.0000
  H   H13       1.0  0.8571097341190722  0.5731234048927896  0.8217173282307444  1.0000
  H   H14       1.0  0.8763016469979238  0.10736498121374094  0.17977614990030744  1.0000
  H   H15       1.0  0.8540532928155431  0.12816681673853503  0.945792590741358  1.0000
  H   H16       1.0  0.7072459100384455  0.8117389377599166  0.9900103176468247  1.0000
  H   H17       1.0  0.7273528712854406  0.793593719495267  0.22565644035884902  1.0000
  H   H18       1.0  0.7175330350097914  0.9497077628284581  0.7809963811274554  1.0000
  H   H19       1.0  0.7449041349173947  0.09536250047385986  0.5708692662788422  1.0000
  H   H20       1.0  0.7886457158312702  0.9482988910263777  0.5301009072492007  1.0000
  H   H21       1.0  0.8346440101802945  0.10199771867771901  0.5199301971684611  1.0000
  C   C29       1.0  0.8343809241423096  0.4208477556599648  0.18580459286213968  1.0000
  C   C30       1.0  0.7662854099557072  0.371721522904523  0.18862581727890393  1.0000
  C   C31       1.0  0.7317617408699582  0.3469314687376015  0.07290845573409155  1.0000
  C   C32       1.0  0.7662381125959257  0.3719480061395539  0.9533208584963111  1.0000
  C   C33       1.0  0.8343340158363086  0.42107474635987985  0.9485073720940798  1.0000
  C   C34       1.0  0.8680248193064526  0.44524665146112197  0.06526900983508077  1.0000
  C   C35       1.0  0.6597225355599685  0.29495160174861024  0.07694785034138252  1.0000
  C   C36       1.0  0.609956933609353  0.34362223042282114  0.9857851082988636  1.0000
  C   C37       1.0  0.5422512863189497  0.2946886561497999  0.9898508940294288  1.0000
  C   C38       1.0  0.5233270038334973  0.19674763877706591  0.0845666386358388  1.0000
  C   C39       1.0  0.5724072163813617  0.14667231136811032  0.17659237962693952  1.0000
  C   C40       1.0  0.6402072109080384  0.19624547812847215  0.17207502851021816  1.0000
  O   O2        1.0  0.5560678457254377  0.04809227928827742  0.273443269379922  1.0000
  C   C41       1.0  0.48945887958185447  0.9888144264138375  0.28949806531230005  1.0000
  H   H22       1.0  0.86033749186675  0.4395086420355443  0.5121871610132251  1.0000
  H   H23       1.0  0.7395874317685529  0.3542914285241203  0.2809080144208156  1.0000
  H   H24       1.0  0.7401885999919118  0.351352067627434  0.863995442387107  1.0000
  H   H25       1.0  0.9205579388558044  0.4831446346177497  0.062324162681122175  1.0000
  H   H26       1.0  0.86026746887787  0.43985543629419266  0.6192158353064805  1.0000
  H   H27       1.0  0.6231591205518353  0.4206939284649125  0.9124435477066224  1.0000
  H   H28       1.0  0.504243376138374  0.3330868406182963  0.9195016397811795  1.0000
  H   H29       1.0  0.4705330884403107  0.1607108237100603  0.08540578811455335  1.0000
  H   H30       1.0  0.677909106631491  0.15609714700487576  0.2422510354931786  1.0000
  H   H31       1.0  0.4751434940984318  0.9403551676284871  0.2006519048925961  1.0000
  H   H32       1.0  0.491259965626028  0.9143331930252853  0.3731920401085955  1.0000
  H   H33       1.0  0.4498583861773697  0.06307816106986452  0.3097531139417675  1.0000
  Zn  Zn1       1.0  0.7582005710869049  0.42096277314012687  0.567157886665929  1.0000
  Zn  Zn2       1.0  0.9105076909362075  0.42095908348885325  0.5671534997121759  1.0000
  C   C42       1.0  0.834342365019188  0.41585775781562884  0.8043417640562458  1.0000
  C   C43       1.0  0.8343675598515812  0.4260657375531809  0.3299697492486602  1.0000
  C   C44       1.0  0.8343059228740699  0.6581695727575876  0.5619107245059829  1.0000
  C   C45       1.0  0.8344039503382373  0.18375236221375846  0.572400858498537  1.0000
  O   O3        1.0  0.8921628340542773  0.4278098735746232  0.37835122955088396  1.0000
  O   O4        1.0  0.8921446708576604  0.4141098415271882  0.7559565806192774  1.0000
  O   O5        1.0  0.8921144641131263  0.6097796969646834  0.5601918005646442  1.0000
  O   O6        1.0  0.8921929888308089  0.23214002740032846  0.5741159122340638  1.0000
  O   O7        1.0  0.7765152212173584  0.6097818292313224  0.5601954741387067  1.0000
  O   O8        1.0  0.7765454276454095  0.41411353419396213  0.7559601844883923  1.0000
  O   O9        1.0  0.7765635909935368  0.4278135205174143  0.37835327210444514  1.0000
  O   O10       1.0  0.7765937457631258  0.2321436650825901  0.5741180521537443  1.0000
