data_image0
_chemical_formula_structural       NC8NC6H8C16H10C12BrH9Zn2C4O8
_chemical_formula_sum              "N2 C46 H27 Br1 Zn2 O8"
_cell_length_a       17.457602349358154
_cell_length_b       10.29914801576943
_cell_length_c       10.299148005577397
_cell_angle_alpha    85.52895802354352
_cell_angle_beta     92.84953389996222
_cell_angle_gamma    91.70309287404056

_space_group_name_H-M_alt    "P 1"
_space_group_IT_number       1

loop_
  _space_group_symop_operation_xyz
  'x, y, z'

loop_
  _atom_site_type_symbol
  _atom_site_label
  _atom_site_symmetry_multiplicity
  _atom_site_fract_x
  _atom_site_fract_y
  _atom_site_fract_z
  _atom_site_occupancy
  N   N1        1.0  0.7230098526614924  0.4531633533741082  0.6258733794708424  1.0000
  C   C1        1.0  0.6619282471012654  0.40723581242291584  0.6152760678996854  1.0000
  C   C2        1.0  0.5859401449540179  0.3501076649110748  0.6021025522145269  1.0000
  C   C3        1.0  0.5273967368136241  0.3902616719937997  0.6769860482122416  1.0000
  C   C4        1.0  0.4528468525917889  0.33525187562490544  0.6644261249653101  1.0000
  C   C5        1.0  0.3907116572383549  0.3776485572879116  0.7437306394522041  1.0000
  C   C6        1.0  0.3161829310604451  0.3961269342228506  0.6879579691645725  1.0000
  C   C7        1.0  0.2576394641111554  0.43609698386554774  0.762949496986467  1.0000
  C   C8        1.0  0.1816732769305447  0.4551815992395625  0.7049610539275031  1.0000
  N   N2        1.0  0.1206093779886912  0.47051924973547865  0.6583384993612378  1.0000
  C   C9        1.0  0.2731324560575951  0.45783174224245804  0.8942221284441245  1.0000
  C   C10       1.0  0.3468764277085207  0.4397423268497662  0.9503822496001593  1.0000
  C   C11       1.0  0.4054081900438725  0.39995227797500177  0.875848383072086  1.0000
  C   C12       1.0  0.438129318137121  0.23941081066221304  0.5755500202882415  1.0000
  C   C13       1.0  0.4966609384005025  0.19953544713888904  0.5010664256942245  1.0000
  C   C14       1.0  0.5704259222788766  0.2546575458899418  0.5141762690124223  1.0000
  H   H1        1.0  0.5397332861471604  0.4654523961195902  0.7435880527743362  1.0000
  H   H2        1.0  0.3038637586678746  0.3811707452425521  0.585936607923256  1.0000
  H   H3        1.0  0.2282597787021748  0.48870828968861413  0.953047094983813  1.0000
  H   H4        1.0  0.3586822147130673  0.4562563655811078  0.05202970435548249  1.0000
  H   H5        1.0  0.4618790131122104  0.38495224235673886  0.9219622962082494  1.0000
  H   H6        1.0  0.3816410850335513  0.19407299368348063  0.5649163503709149  1.0000
  H   H7        1.0  0.4848386874814578  0.12546146047056572  0.4332656096866707  1.0000
  H   H8        1.0  0.6152983787241832  0.22291114919001354  0.455862796944573  1.0000
  C   C15       1.0  0.9217586052505098  0.08043766098064631  0.6422673322285823  1.0000
  C   C16       1.0  0.90427814718217  0.08929290428182468  0.5073594942195048  1.0000
  C   C17       1.0  0.8954716068341929  0.9766554270529983  0.4387983518839089  1.0000
  C   C18       1.0  0.9043806711533176  0.8540456235897212  0.5069632554941819  1.0000
  C   C19       1.0  0.9218679444812234  0.8432352232637786  0.641956407028927  1.0000
  C   C20       1.0  0.9304506102282424  0.9569428999914471  0.7087773593843965  1.0000
  C   C21       1.0  0.8769795797189394  0.9870688204447126  0.2960821446599917  1.0000
  C   C22       1.0  0.9133005479960097  0.9076816317522755  0.21382599322544338  1.0000
  C   C23       1.0  0.8958696868073812  0.9176063652661686  0.0795048056250125  1.0000
  C   C24       1.0  0.8419389951232576  0.0068110523798301514  0.025620821349179757  1.0000
  C   C25       1.0  0.8054784880100666  0.08617265284659714  0.10658157535318691  1.0000
  C   C26       1.0  0.8228546436729182  0.07648679399221447  0.24091924369641227  1.0000
  C   C27       1.0  0.8240222225621919  0.0169061082728732  0.8873270199118903  1.0000
  C   C28       1.0  0.809017118550611  0.02536062186268917  0.7715079564517273  1.0000
  C   C29       1.0  0.7914463190007691  0.035260742203166995  0.6358850161464082  1.0000
  C   C30       1.0  0.7764437334812931  0.04371398584926922  0.5200846669971249  1.0000
  H   H9        1.0  0.9284428791042453  0.40450443038972184  0.6941695383053985  1.0000
  H   H10       1.0  0.898504802625537  0.18410378922258852  0.45497546372671716  1.0000
  H   H11       1.0  0.8966269550906221  0.7668214065967  0.45491212783419144  1.0000
  H   H12       1.0  0.9439314920370201  0.9493966347249698  0.8128359101817297  1.0000
  H   H13       1.0  0.9543991037217677  0.6155038286979546  0.8968883528176612  1.0000
  H   H14       1.0  0.9559088613416408  0.8391316466643707  0.25315652930640264  1.0000
  H   H15       1.0  0.9245901676218775  0.8559465065546578  0.01767192103301629  1.0000
  H   H16       1.0  0.7634807661519877  0.15531384304250073  0.06593093610542544  1.0000
  H   H17       1.0  0.7932400420401235  0.13771793283  0.3018762941963822  1.0000
  H   H18       1.0  0.7632702556901803  0.05113665043676585  0.4184022007956667  1.0000
  C   C31       1.0  0.9219178572244096  0.46189305872392605  0.26073217921780856  1.0000
  C   C32       1.0  0.8497631515582539  0.5195284317406634  0.24937801817894956  1.0000
  C   C33       1.0  0.8130711411234305  0.5486928122168946  0.12647415115386762  1.0000
  C   C34       1.0  0.8495070896336708  0.5194444429557556  0.014080105622158667  1.0000
  C   C35       1.0  0.9217086871674436  0.4617798473479535  0.023491496961061786  1.0000
  C   C36       1.0  0.9574693323192283  0.43335725268448066  0.14720481398821605  1.0000
  C   C37       1.0  0.7367407193864949  0.6096660371358333  0.11550777930240397  1.0000
  C   C38       1.0  0.7206400785801652  0.7102896923813327  0.19422863484407937  1.0000
  C   C39       1.0  0.6487632108064322  0.7675663044862293  0.18370947743050547  1.0000
  C   C40       1.0  0.5921700394480915  0.725148778314139  0.09474059056756001  1.0000
  C   C41       1.0  0.6075002406833878  0.6252784253384758  0.016104031096629168  1.0000
  C   C42       1.0  0.6793118513074474  0.5677769801350365  0.026225414711577244  1.0000
  Br  Br1       1.0  0.49403141708022663  0.8035426344485743  0.08064238377233734  1.0000
  H   H19       1.0  0.9496873400829413  0.439777384411969  0.5925722247869913  1.0000
  H   H20       1.0  0.8214564873569403  0.5402409249580002  0.33639700550970475  1.0000
  H   H21       1.0  0.8219582859579613  0.5433390096315751  0.9190036681188132  1.0000
  H   H22       1.0  0.013125168795275366  0.3889056382747855  0.15524660902356224  1.0000
  H   H23       1.0  0.05819973953268298  0.3536856043376091  0.8339232993748986  1.0000
  H   H24       1.0  0.7639336259955428  0.7457995259239083  0.2626571557509012  1.0000
  H   H25       1.0  0.6371889293424953  0.8451341126478285  0.2445361661310217  1.0000
  H   H26       1.0  0.5637531617822783  0.5919009656215666  0.9473305744820841  1.0000
  H   H27       1.0  0.6896022792083387  0.4894637791687797  0.9654952788745743  1.0000
  Zn  Zn1       1.0  0.8377484845252297  0.4581684060220661  0.6352496118859967  1.0000
  Zn  Zn2       1.0  0.005870727432888412  0.4655035467159139  0.6489729041145398  1.0000
  C   C43       1.0  0.9217457811569766  0.4566270137503514  0.8793156519381169  1.0000
  C   C44       1.0  0.9218752668907708  0.4670466578376029  0.404907140722353  1.0000
  C   C45       1.0  0.9218447536406583  0.6990508536765327  0.6368395167374987  1.0000
  C   C46       1.0  0.9217762367960418  0.22462125495294916  0.6473833411168648  1.0000
  O   O1        1.0  0.9856624873804986  0.47155423418538667  0.45850149504884086  1.0000
  O   O2        1.0  0.9855594529123222  0.45768565970901953  0.8361365854205582  1.0000
  O   O3        1.0  0.985638513999334  0.6534459385919609  0.6403353199304145  1.0000
  O   O4        1.0  0.9855833689527876  0.2757939621049843  0.6543026584749516  1.0000
  O   O5        1.0  0.8580357856334625  0.647877988131287  0.6299198528356666  1.0000
  O   O6        1.0  0.8579567247856295  0.4521192697051091  0.825721048441999  1.0000
  O   O7        1.0  0.8580597597265082  0.46598779915537114  0.44808439664814825  1.0000
  O   O8        1.0  0.8579806412676281  0.2702275177707212  0.6438856574483738  1.0000
