data_image0
_chemical_formula_structural       NC10NC3NH7C12ClH9C13NH13Zn2C4O8
_chemical_formula_sum              "N4 C42 H29 Cl1 Zn2 O8"
_cell_length_a       19.210446455230148
_cell_length_b       10.299768534541528
_cell_length_c       10.299780419254978
_cell_angle_alpha    85.5745780732884
_cell_angle_beta     89.97732542180437
_cell_angle_gamma    89.96529235611058

_space_group_name_H-M_alt    "P 1"
_space_group_IT_number       1

loop_
  _space_group_symop_operation_xyz
  'x, y, z'

loop_
  _atom_site_type_symbol
  _atom_site_label
  _atom_site_symmetry_multiplicity
  _atom_site_fract_x
  _atom_site_fract_y
  _atom_site_fract_z
  _atom_site_occupancy
  N   N1        1.0  0.6558873858656218  0.41986530065221106  0.5674766523562129  1.0000
  C   C1        1.0  0.5956590086211498  0.42207280515457013  0.5677079400657501  1.0000
  C   C2        1.0  0.520854782446993  0.424809706457397  0.5679944768190206  1.0000
  C   C3        1.0  0.48525258753688943  0.541040216004582  0.5831134780267924  1.0000
  C   C4        1.0  0.4125871266367799  0.5411917388948999  0.583060893200527  1.0000
  C   C5        1.0  0.3756880812502819  0.4255186721878135  0.5680810042396913  1.0000
  C   C6        1.0  0.2983658499606862  0.4241622014483959  0.5679303269089799  1.0000
  C   C7        1.0  0.260627202797601  0.5277175937963043  0.504578320423243  1.0000
  C   C8        1.0  0.1878487371211256  0.5263153772878022  0.5044691559356216  1.0000
  C   C9        1.0  0.1518075351914775  0.42161526152583884  0.5676610207797059  1.0000
  C   C10       1.0  0.076877916448696  0.42031318614391133  0.5675241098222099  1.0000
  N   N2        1.0  0.0166399847780904  0.41926627333609345  0.5674140682837623  1.0000
  C   C11       1.0  0.1888225383477706  0.31818555353063926  0.6309880284039624  1.0000
  C   C12       1.0  0.2616028239834017  0.3193135189727252  0.6311474179815351  1.0000
  C   C13       1.0  0.4139002661058267  0.31110842863968236  0.5532502783006397  1.0000
  N   N3        1.0  0.48467040770538145  0.3135533731727105  0.5534159993803476  1.0000
  H   H1        1.0  0.5133600353779341  0.6304738914028132  0.5951674328277801  1.0000
  H   H2        1.0  0.3853246647640811  0.6312075378200854  0.5965095497446253  1.0000
  H   H3        1.0  0.2873665265817537  0.6089588629065945  0.4535954227803969  1.0000
  H   H4        1.0  0.1597141637935489  0.6067292233773836  0.454816537488002  1.0000
  H   H5        1.0  0.1614437072853064  0.23680831588817397  0.6805411013470233  1.0000
  H   H6        1.0  0.2890923906014121  0.23901913728804458  0.6822377078351838  1.0000
  H   H7        1.0  0.387628464714812  0.22022972205866576  0.5397553183507817  1.0000
  C   C14       1.0  0.8362013575015536  0.038200512521511465  0.567443250782486  1.0000
  C   C15       1.0  0.8408029816404273  0.04772939777786278  0.43097912914024694  1.0000
  C   C16       1.0  0.8432015805557017  0.9354182829724698  0.36183905035418484  1.0000
  C   C17       1.0  0.8409359279497932  0.8124414628928396  0.43099459539530094  1.0000
  C   C18       1.0  0.8363326662643512  0.8009210513046893  0.5674586552744783  1.0000
  C   C19       1.0  0.8339916721907213  0.9143574833267649  0.6349187832183305  1.0000
  C   C20       1.0  0.8480706408217201  0.9465527154787656  0.2174713857013122  1.0000
  C   C21       1.0  0.8084790164125522  0.04014261413452225  0.1430175084090941  1.0000
  C   C22       1.0  0.8131239351378055  0.050426763142302544  0.007142533364033143  1.0000
  C   C23       1.0  0.8572934674316052  0.967642897880464  0.944029658875837  1.0000
  C   C24       1.0  0.8968738728229227  0.874364939235161  0.016972379642324675  1.0000
  C   C25       1.0  0.8923525683584648  0.8636883368669956  0.15286197590383854  1.0000
  Cl  Cl1       1.0  0.8630436478733623  0.9807920628484957  0.7735506632241931  1.0000
  H   H8        1.0  0.8344121961809894  0.3620233470762375  0.6194395519615381  1.0000
  H   H9        1.0  0.8434932847618919  0.14272602683238156  0.37824823789476336  1.0000
  H   H10       1.0  0.8418096637061572  0.7255949070417335  0.3780504727926439  1.0000
  H   H11       1.0  0.8304410260185335  0.9062381994471065  0.7401945713585796  1.0000
  H   H12       1.0  0.8346063231853486  0.4690774443775438  0.6194627462169051  1.0000
  H   H13       1.0  0.7732777645586439  0.10418697479771755  0.18976516294182355  1.0000
  H   H14       1.0  0.7822247335529475  0.12257999208771708  0.9510384384472452  1.0000
  H   H15       1.0  0.9312990280923147  0.8102748909653432  0.9685354511502093  1.0000
  H   H16       1.0  0.9241352668079976  0.7918266305916682  0.20747167374001574  1.0000
  C   C26       1.0  0.8363143933517615  0.41947585144449384  0.18609681166171788  1.0000
  C   C27       1.0  0.8867296136336703  0.5184203753981658  0.17742850543069966  1.0000
  C   C28       1.0  0.9122217487328503  0.5686517225117549  0.055892297145765824  1.0000
  C   C29       1.0  0.8866340396778745  0.5185927651371343  0.9421283496385282  1.0000
  C   C30       1.0  0.8362196459158728  0.41964572048901405  0.948805102322642  1.0000
  C   C31       1.0  0.8113402153747695  0.3706447682182197  0.07124365149158618  1.0000
  C   C32       1.0  0.9655590695230389  0.6733239537895492  0.04781354952514172  1.0000
  C   C33       1.0  0.9608714800923773  0.7779084223109844  0.9519901872238381  1.0000
  C   C34       1.0  0.011096331992310304  0.8763407252135897  0.9444719550754601  1.0000
  C   C35       1.0  0.0665835952072098  0.8725455333660233  0.03313672614917329  1.0000
  C   C36       1.0  0.07193843728543392  0.767681122140907  0.1279031945216167  1.0000
  C   C37       1.0  0.021727973876497275  0.6692240965977951  0.13559419434360787  1.0000
  C   C38       1.0  0.1215697733906087  0.9766710276979849  0.0226738628035823  1.0000
  N   N4        1.0  0.17492640901846324  0.9439308131554252  0.9297860647818879  1.0000
  H   H17       1.0  0.8171321154209295  0.38172644564432345  0.5168566550684202  1.0000
  H   H18       1.0  0.9056054618703163  0.5578945237076767  0.2652959124110128  1.0000
  H   H19       1.0  0.9068197129517201  0.5557138912758703  0.8483181038717147  1.0000
  H   H20       1.0  0.7724474002955857  0.2943125265267468  0.07716229090856008  1.0000
  H   H21       1.0  0.8169962467091492  0.38196537715021184  0.6238939444206886  1.0000
  H   H22       1.0  0.9179423530034282  0.7843260559611747  0.8836960590448473  1.0000
  H   H23       1.0  0.006626662010980278  0.9557474938800108  0.869635080254703  1.0000
  H   H24       1.0  0.11512615659879666  0.7619153122259408  0.19567076668865457  1.0000
  H   H25       1.0  0.027410683755467735  0.588798165454415  0.20896495052702968  1.0000
  H   H26       1.0  0.09753391484795859  0.07173653816473768  0.9893994262703645  1.0000
  H   H27       1.0  0.14557710184762662  0.9879413980951022  0.11952661156383004  1.0000
  H   H28       1.0  0.21006647854356397  0.021563196130059747  0.9198420316116649  1.0000
  H   H29       1.0  0.20283909644647813  0.8635818629668703  0.9705520631705022  1.0000
  Zn  Zn1       1.0  0.7599927908590485  0.41968897195846067  0.567466090651791  1.0000
  Zn  Zn2       1.0  0.9125345607014195  0.4194320219522927  0.5674352651396741  1.0000
  C   C39       1.0  0.836235092245645  0.4144400137067079  0.804636829616205  1.0000
  C   C40       1.0  0.836293925332453  0.4246826160305306  0.3302646533333595  1.0000
  C   C41       1.0  0.8363049003330506  0.6567495224822111  0.5622808096005572  1.0000
  C   C42       1.0  0.8362240649159985  0.18237154707041103  0.5726207425638719  1.0000
  O   O1        1.0  0.8941758617799176  0.42632687691429605  0.378636999751893  1.0000
  O   O2        1.0  0.8941288294100412  0.4125997539172319  0.7562407134958085  1.0000
  O   O3        1.0  0.8941844197868769  0.608267748290739  0.5605365128091742  1.0000
  O   O4        1.0  0.894120219364607  0.23065889189691124  0.5743411030783316  1.0000
  O   O5        1.0  0.7784070801408426  0.6084621021029393  0.5605602527168214  1.0000
  O   O6        1.0  0.7783514900380374  0.41279566800314527  0.7562643841922796  1.0000
  O   O7        1.0  0.7783985226404239  0.42652274539678503  0.3786591091071434  1.0000
  O   O8        1.0  0.7783428802085696  0.2308547511123744  0.5743633097974663  1.0000
