data_image0
_chemical_formula_structural       NC10NC5H10C13OH12C12IH9Zn2C4O8
_chemical_formula_sum              "N2 C44 H31 O9 I1 Zn2"
_cell_length_a       19.4436361288709
_cell_length_b       10.299150109392551
_cell_length_c       10.29977335064465
_cell_angle_alpha    85.52407015278276
_cell_angle_beta     89.71371329934455
_cell_angle_gamma    89.39953782186457

_space_group_name_H-M_alt    "P 1"
_space_group_IT_number       1

loop_
  _space_group_symop_operation_xyz
  'x, y, z'

loop_
  _atom_site_type_symbol
  _atom_site_label
  _atom_site_symmetry_multiplicity
  _atom_site_fract_x
  _atom_site_fract_y
  _atom_site_fract_z
  _atom_site_occupancy
  N   N1        1.0  0.6472798925836674  0.40984007751254947  0.5616209770674909  1.0000
  C   C1        1.0  0.588444337494162  0.419736044783646  0.5760016834906834  1.0000
  C   C2        1.0  0.515115535632724  0.4320776175311474  0.5939899246525941  1.0000
  C   C3        1.0  0.4729235408391063  0.40012238281160983  0.49932664018399775  1.0000
  C   C4        1.0  0.3970178232086044  0.41055900884468577  0.5046512519396973  1.0000
  C   C5        1.0  0.3572982325572389  0.3857591517291201  0.6117321696556148  1.0000
  C   C6        1.0  0.2811751431471263  0.3896821323303108  0.5987714565647753  1.0000
  C   C7        1.0  0.24061561739957954  0.4473042177717754  0.6925231367440339  1.0000
  C   C8        1.0  0.1689500732228843  0.4509471827777982  0.6819780003479492  1.0000
  C   C9        1.0  0.1368494092285432  0.3965718858129923  0.577967842969344  1.0000
  C   C10       1.0  0.0630545874436672  0.40027617144191074  0.5672674038217771  1.0000
  N   N2        1.0  0.0037285559325703  0.4032542226411704  0.5586649601566345  1.0000
  C   C11       1.0  0.1766842221901814  0.33824247500835236  0.48459963410546925  1.0000
  C   C12       1.0  0.24836616884431684  0.3345453993499743  0.4948930105633207  1.0000
  C   C13       1.0  0.3854568340538816  0.34523394768142834  0.7428405722021365  1.0000
  C   C14       1.0  0.4441196461913616  0.3883371480460407  0.7900688163272662  1.0000
  C   C15       1.0  0.4882993633411032  0.4862377956632866  0.7156686315033471  1.0000
  H   H1        1.0  0.4950147502969647  0.3710451904210137  0.40902931403556164  1.0000
  H   H2        1.0  0.3723021761978705  0.4330989723505858  0.41148520012005063  1.0000
  H   H3        1.0  0.2644900492768107  0.49056073344527085  0.7733572304891716  1.0000
  H   H4        1.0  0.1386077543363076  0.4962312885368063  0.7548839368500235  1.0000
  H   H5        1.0  0.1523379213601923  0.29518147591514476  0.4040999589331462  1.0000
  H   H6        1.0  0.2780433622313217  0.28701740246503205  0.4226841556074692  1.0000
  H   H7        1.0  0.3545117361734192  0.28098180611549695  0.8071090083203529  1.0000
  H   H8        1.0  0.4592894950322319  0.3542214755396007  0.8880148179921556  1.0000
  H   H9        1.0  0.4581709315450215  0.5769709901503666  0.6903864613736865  1.0000
  H   H10       1.0  0.5315889913979823  0.511796317995596  0.7787452348020181  1.0000
  C   C16       1.0  0.8255723503338661  0.025146209057764768  0.5602865534586057  1.0000
  C   C17       1.0  0.824317203170275  0.013325536078576672  0.6971072962015454  1.0000
  C   C18       1.0  0.823620948848765  0.8901987866187279  0.7662151197371987  1.0000
  C   C19       1.0  0.8241845644860267  0.7780727474013385  0.6967450022156259  1.0000
  C   C20       1.0  0.8254426785326355  0.7879379343159372  0.560010633590452  1.0000
  C   C21       1.0  0.826131110795166  0.9119349493630702  0.4925804585864888  1.0000
  C   C22       1.0  0.8222871408695583  0.8786757423671855  0.9108658798988587  1.0000
  C   C23       1.0  0.7800005422046754  0.7865570704752548  0.9792377702423911  1.0000
  C   C24       1.0  0.7787226434637943  0.7757957276670524  0.11535417995644737  1.0000
  C   C25       1.0  0.8201593575454422  0.8559857968704689  0.18555564054198348  1.0000
  C   C26       1.0  0.861787986849801  0.9490700737964416  0.11783177637853126  1.0000
  C   C27       1.0  0.8630818510798566  0.9600069187370599  0.9817149455527843  1.0000
  C   C28       1.0  0.817339971802048  0.8468030611763759  0.33166487044234627  1.0000
  O   O1        1.0  0.7659368112253372  0.9309165373736786  0.3723316890781113  1.0000
  H   H11       1.0  0.8274946560250787  0.2547593752038042  0.3020346955460522  1.0000
  H   H12       1.0  0.8229246912997238  0.10010793814211949  0.7501272684537119  1.0000
  H   H13       1.0  0.824581524341141  0.6829261629675558  0.7495750725151651  1.0000
  H   H14       1.0  0.8270995856008  0.9202605077466018  0.38711316478898783  1.0000
  H   H15       1.0  0.8258803001762169  0.46425781852164133  0.5074181837800789  1.0000
  H   H16       1.0  0.7471035577749227  0.7241728379097434  0.9274020364176014  1.0000
  H   H17       1.0  0.7452693632895525  0.7050681579527808  0.16600701877276292  1.0000
  H   H18       1.0  0.8934181313482004  0.013030445436543747  0.1704242195014284  1.0000
  H   H19       1.0  0.8965582452037087  0.031179237558107253  0.9318685559901319  1.0000
  H   H20       1.0  0.8679352520173507  0.8736846400305045  0.3714151818442607  1.0000
  H   H21       1.0  0.8061659133737956  0.7449761772298442  0.36957000791113026  1.0000
  H   H22       1.0  0.7661998637933838  0.92120366138962  0.4689559093925164  1.0000
  C   C29       1.0  0.8254747058381561  0.4066487877482474  0.17877962001048764  1.0000
  C   C30       1.0  0.8878106077693767  0.4745061400998065  0.17190040259031103  1.0000
  C   C31       1.0  0.9194297868184433  0.5087815440893473  0.05128437786634388  1.0000
  C   C32       1.0  0.8878768036511121  0.4742907432170542  0.9366303180506699  1.0000
  C   C33       1.0  0.8255403253668765  0.40643540662270516  0.9415175813204288  1.0000
  C   C34       1.0  0.7946886015805623  0.37299332878785707  0.06305737272552281  1.0000
  C   C35       1.0  0.9853757010235789  0.5805666457526955  0.04506076063933384  1.0000
  C   C36       1.0  0.9961776065133242  0.6833945019890204  0.12474438799060339  1.0000
  C   C37       1.0  0.058281916046790005  0.7508448304521345  0.11868462809698  1.0000
  C   C38       1.0  0.11027455282029153  0.7165218925048631  0.03327622921340634  1.0000
  C   C39       1.0  0.10013594877222376  0.6145680500598425  0.9537295199445892  1.0000
  C   C40       1.0  0.03810145126854714  0.5468904415342319  0.9593828413247607  1.0000
  I   I1        1.0  0.20390538038330153  0.8184391315352282  0.024443880725486755  1.0000
  H   H23       1.0  0.801701894746951  0.38085743497424085  0.5088495455098714  1.0000
  H   H24       1.0  0.9124009962719398  0.4993008290978629  0.260664175641389  1.0000
  H   H25       1.0  0.9115588722104728  0.5020431775041412  0.8433108878417879  1.0000
  H   H26       1.0  0.7465989048708477  0.32064561395503  0.06759601912112667  1.0000
  H   H27       1.0  0.8017979916679082  0.38054349267780396  0.6159290223081628  1.0000
  H   H28       1.0  0.956290650586145  0.7127116891993968  0.1904554850743685  1.0000
  H   H29       1.0  0.06588035299165962  0.829987799441356  0.18017868759312394  1.0000
  H   H30       1.0  0.14036031898210344  0.5874810380052258  0.8877236718569188  1.0000
  H   H31       1.0  0.03169834007481365  0.4671844569558081  0.8980399756036448  1.0000
  Zn  Zn1       1.0  0.750143279614608  0.40793606829695395  0.5607754478365579  1.0000
  Zn  Zn2       1.0  0.9008651631390955  0.40514762029644813  0.5595211744064108  1.0000
  C   C41       1.0  0.8255272636023752  0.4013016539135419  0.7973456287696967  1.0000
  C   C42       1.0  0.8254828247619913  0.4117836429513553  0.32295110665028615  1.0000
  C   C43       1.0  0.8254632032692968  0.6437556132824247  0.5548876270310086  1.0000
  C   C44       1.0  0.8255468339354513  0.16932812408125164  0.5654091786201008  1.0000
  O   O2        1.0  0.8826837198140837  0.4124430795646472  0.37086038640912977  1.0000
  O   O3        1.0  0.8827207908127822  0.398524870088133  0.7484840110076496  1.0000
  O   O4        1.0  0.8826682903411567  0.5943095224145969  0.5526974651012033  1.0000
  O   O5        1.0  0.8827361688445836  0.2166584375079339  0.5666468353655336  1.0000
  O   O6        1.0  0.7682722224751374  0.5964252520384441  0.5536497872986257  1.0000
  O   O7        1.0  0.7683247226723986  0.4006421601661776  0.7494362633951361  1.0000
  O   O8        1.0  0.7682876515928149  0.4145603248189056  0.3718110774117285  1.0000
  O   O9        1.0  0.768340100630458  0.21877567344541804  0.567597623739365  1.0000
