data_image0
_chemical_formula_structural       NC9NC5H8C12ClH9C15H12Zn2C4O8
_chemical_formula_sum              "N2 C45 H29 Cl1 Zn2 O8"
_cell_length_a       17.807436237873137
_cell_length_b       10.299768534541528
_cell_length_c       10.299157797200024
_cell_angle_alpha    85.54593967103355
_cell_angle_beta     89.41431720980768
_cell_angle_gamma    88.408414792471

_space_group_name_H-M_alt    "P 1"
_space_group_IT_number       1

loop_
  _space_group_symop_operation_xyz
  'x, y, z'

loop_
  _atom_site_type_symbol
  _atom_site_label
  _atom_site_symmetry_multiplicity
  _atom_site_fract_x
  _atom_site_fract_y
  _atom_site_fract_z
  _atom_site_occupancy
  N   N1        1.0  0.7073402456982284  0.38815489084377286  0.5570700517680949  1.0000
  C   C1        1.0  0.646743674171735  0.3529691181015504  0.546044853366842  1.0000
  C   C2        1.0  0.5713681993172383  0.30920189167526124  0.5323307036599727  1.0000
  C   C3        1.0  0.5532396189400577  0.2378192979922682  0.42732041708380786  1.0000
  C   C4        1.0  0.48005388293422285  0.195213224258034  0.41392222635736386  1.0000
  C   C5        1.0  0.4239479313428589  0.22361223158314947  0.5055018618470464  1.0000
  C   C6        1.0  0.3461703999526193  0.17844783830615718  0.49134513609958375  1.0000
  C   C7        1.0  0.2840151284153549  0.26019472318644254  0.5172870433093659  1.0000
  C   C8        1.0  0.210687052979887  0.21738561131143275  0.5039025308429075  1.0000
  C   C9        1.0  0.1474822741097958  0.301823687595022  0.5302084108246956  1.0000
  N   N2        1.0  0.0966786189413205  0.36970605884042307  0.5513576116946208  1.0000
  C   C10       1.0  0.1989306505744191  0.09257164717959832  0.4645507552757666  1.0000
  C   C11       1.0  0.2602285478079794  0.010810912756850533  0.43860045762635536  1.0000
  C   C12       1.0  0.3334370719005873  0.0532255512732458  0.451782412714409  1.0000
  C   C13       1.0  0.4427680578795662  0.2954891170642491  0.6107313998328419  1.0000
  C   C14       1.0  0.516006594442836  0.33790484619690897  0.6239739272327958  1.0000
  H   H1        1.0  0.5956140367152483  0.21535572823093152  0.3556030491748332  1.0000
  H   H2        1.0  0.467112485644136  0.14155653694415427  0.33099593880151046  1.0000
  H   H3        1.0  0.2925372580417797  0.3576491309546468  0.5461675190577384  1.0000
  H   H4        1.0  0.1424568963015506  0.05853940855157447  0.45395464223716475  1.0000
  H   H5        1.0  0.2510079523690552  0.9141769431758445  0.40851951485418736  1.0000
  H   H6        1.0  0.3800613661024199  0.9874874594790373  0.43273171937871524  1.0000
  H   H7        1.0  0.4011107151571439  0.3174132653976873  0.6837433324159543  1.0000
  H   H8        1.0  0.5294763306075636  0.39278240294762323  0.7058585487586881  1.0000
  C   C15       1.0  0.9019421644271014  0.9975682831959459  0.5542127184161667  1.0000
  C   C16       1.0  0.9068589565572754  0.006940217954522598  0.4176637045585201  1.0000
  C   C17       1.0  0.9094225589202288  0.8945462601261354  0.34847956286916015  1.0000
  C   C18       1.0  0.9070024430495522  0.7716456969418869  0.41767709017174903  1.0000
  C   C19       1.0  0.9020838835923233  0.7602823169084351  0.5542260679064328  1.0000
  C   C20       1.0  0.8995818417394121  0.8737996124897517  0.6217291987064328  1.0000
  C   C21       1.0  0.9146251139862512  0.9055146062948257  0.20402207483433132  1.0000
  C   C22       1.0  0.8718692896580145  0.0011020696182724166  0.1301812514592393  1.0000
  C   C23       1.0  0.8768330205459537  0.011226820555219286  0.99422076152474  1.0000
  C   C24       1.0  0.9244796418398014  0.9262901851368789  0.9304102086993784  1.0000
  C   C25       1.0  0.9672228104415066  0.8310160002335975  0.0027399092279682957  1.0000
  C   C26       1.0  0.9623924942256659  0.8204926719913391  0.1387130858085217  1.0000
  Cl  Cl1       1.0  0.930623672363467  0.9392432010726055  0.7598251362544803  1.0000
  H   H9        1.0  0.9000300772981892  0.3214526925076775  0.6062419267576382  1.0000
  H   H10       1.0  0.909743325110733  0.1018310650182368  0.36488572417195986  1.0000
  H   H11       1.0  0.907926223361903  0.6847833523881908  0.3647143079669317  1.0000
  H   H12       1.0  0.895788002108319  0.8658014435759567  0.7270704883237862  1.0000
  H   H13       1.0  0.9002395952040712  0.4284971724882368  0.6062620829359233  1.0000
  H   H14       1.0  0.8338956577811156  0.06686393763288323  0.17748459246042092  1.0000
  H   H15       1.0  0.8434650517547538  0.08493800633610471  0.9385953115479788  1.0000
  H   H16       1.0  0.0043582360765304085  0.7652477210723982  0.9537592900878455  1.0000
  H   H17       1.0  0.9967134259388719  0.7470300685499143  0.19283016165712596  1.0000
  C   C27       1.0  0.901925937519005  0.37903569778470825  0.17282866874989633  1.0000
  C   C28       1.0  0.8236736429813715  0.36476449042947645  0.17415158748722592  1.0000
  C   C29       1.0  0.7841582562332163  0.35741196287092625  0.05767766241213024  1.0000
  C   C30       1.0  0.8238968167763642  0.3645451855751747  0.9388810142027735  1.0000
  C   C31       1.0  0.902100076009157  0.378814921787356  0.9356101316104191  1.0000
  C   C32       1.0  0.9406579784511082  0.3859710899668609  0.05312094419988367  1.0000
  C   C33       1.0  0.7014280577359068  0.34232945668521286  0.06012258231213252  1.0000
  C   C34       1.0  0.667608438336527  0.2569538273652574  0.9795099787398973  1.0000
  C   C35       1.0  0.5897558727369027  0.2428536042660414  0.9818430115504166  1.0000
  C   C36       1.0  0.5443361606718911  0.3131856532807986  0.06534087941554412  1.0000
  C   C37       1.0  0.5777538879410556  0.39942586507811884  0.1449826814157975  1.0000
  C   C38       1.0  0.6556056968582141  0.4135303223479272  0.1427976105198543  1.0000
  C   C39       1.0  0.4604673696476786  0.30034478339216597  0.06550810831754927  1.0000
  C   C40       1.0  0.4266983185105915  0.39571144562516136  0.9685945672749612  1.0000
  C   C41       1.0  0.3989452000986414  0.47413066959838446  0.8889046273603816  1.0000
  H   H18       1.0  0.04968266204302263  0.4051743306089697  0.3776854991095493  1.0000
  H   H19       1.0  0.7934546954503322  0.3575716413122385  0.26613252041881386  1.0000
  H   H20       1.0  0.7935703890751552  0.3607442229830842  0.8486935546126002  1.0000
  H   H21       1.0  0.0009785184067419017  0.3969739882070211  0.05131374720799786  1.0000
  H   H22       1.0  0.9321827477927759  0.38426195838096167  0.6068796301761195  1.0000
  H   H23       1.0  0.7014558155660908  0.19998491301829802  0.9156401512328793  1.0000
  H   H24       1.0  0.5648709043748469  0.17687773871867218  0.9186476311376235  1.0000
  H   H25       1.0  0.5434677345491316  0.45610639529288033  0.20851394112698585  1.0000
  H   H26       1.0  0.6798783104061111  0.4816424114151958  0.20436077730854163  1.0000
  H   H27       1.0  0.4454552750212612  0.20081691969912074  0.042281078533689787  1.0000
  H   H28       1.0  0.4365562887344327  0.31692259330065453  0.1630805641414248  1.0000
  H   H29       1.0  0.3746013928862071  0.5429790149501075  0.8189438272469207  1.0000
  Zn  Zn1       1.0  0.8196948899226829  0.3828274890470056  0.5554290761198553  1.0000
  Zn  Zn2       1.0  0.9843239569907386  0.37502287156423586  0.5530092643801054  1.0000
  C   C42       1.0  0.9020645434925434  0.3736831673488974  0.7914280612057731  1.0000
  C   C43       1.0  0.9019561014987256  0.3841687465892747  0.31701038037244444  1.0000
  C   C44       1.0  0.9020520407884126  0.6161148458340284  0.549048170447582  1.0000
  C   C45       1.0  0.9019685477523753  0.1417355104728626  0.5593903411715397  1.0000
  O   O1        1.0  0.9644420967339349  0.38292396735932477  0.36448077386538946  1.0000
  O   O2        1.0  0.9645282006372836  0.3690034428993636  0.7421207127083478  1.0000
  O   O3        1.0  0.9645172626492776  0.5647701287789497  0.5463972484462669  1.0000
  O   O4        1.0  0.9644529785246837  0.18715729346116228  0.5602041415731092  1.0000
  O   O5        1.0  0.8395658122089158  0.5706930698148278  0.5482341997457831  1.0000
  O   O6        1.0  0.8395767504675807  0.37492794423127096  0.7439575947858921  1.0000
  O   O7        1.0  0.8394906462492551  0.38884842388561514  0.3663160944513313  1.0000
  O   O8        1.0  0.8395015280574393  0.19308174067077766  0.5620395595323444  1.0000
