data_image0
_chemical_formula_structural       NC12NC2H8C12NCOCH13C12OCH12Zn2C4O8
_chemical_formula_sum              "N3 C45 H33 O10 Zn2"
_cell_length_a       17.80743265337812
_cell_length_b       10.299155265289647
_cell_length_c       10.299794127170987
_cell_angle_alpha    85.56075829467142
_cell_angle_beta     91.52773436804358
_cell_angle_gamma    89.41399588169462

_space_group_name_H-M_alt    "P 1"
_space_group_IT_number       1

loop_
  _space_group_symop_operation_xyz
  'x, y, z'

loop_
  _atom_site_type_symbol
  _atom_site_label
  _atom_site_symmetry_multiplicity
  _atom_site_fract_x
  _atom_site_fract_y
  _atom_site_fract_z
  _atom_site_occupancy
  N   N1        1.0  0.7071951934738656  0.4063393298228508  0.6010232682394523  1.0000
  C   C1        1.0  0.6563729423536363  0.4358780515095251  0.5323205967026947  1.0000
  C   C2        1.0  0.593145047136092  0.4726220783369752  0.4468631213605787  1.0000
  C   C3        1.0  0.604867334721992  0.5266057190952116  0.32023624926470284  1.0000
  C   C4        1.0  0.5435469825663464  0.5618468183305247  0.23717502735081397  1.0000
  C   C5        1.0  0.470350020832275  0.5433675467880454  0.28008074340601774  1.0000
  C   C6        1.0  0.4576509583984745  0.48926524654339887  0.40717576145501666  1.0000
  C   C7        1.0  0.5198286269094282  0.4540273960730761  0.49022047182458395  1.0000
  C   C8        1.0  0.37988586620659914  0.469672693562039  0.452941901677397  1.0000
  C   C9        1.0  0.3610866825409219  0.4969028588285387  0.5799704212158134  1.0000
  C   C10       1.0  0.2878597632761501  0.47846517722021353  0.6229166858515076  1.0000
  C   C11       1.0  0.2324890674289487  0.43254331302502047  0.5396724172272334  1.0000
  C   C12       1.0  0.1571255869423638  0.4135532210406072  0.5840196750633093  1.0000
  N   N2        1.0  0.09653868557474692  0.39828646423668346  0.6196718195766637  1.0000
  C   C13       1.0  0.250596765009247  0.40514439988215467  0.4131868799396685  1.0000
  C   C14       1.0  0.3237708402358105  0.4235967841614874  0.3699847405659027  1.0000
  H   H1        1.0  0.6613316318943736  0.5414193668308602  0.2857972870812153  1.0000
  H   H2        1.0  0.5527411412994429  0.6039151496439086  0.1393903704558137  1.0000
  H   H3        1.0  0.42370773038321297  0.5729839036830553  0.21448579637999088  1.0000
  H   H4        1.0  0.5113331708339648  0.4105736043738826  0.5878810826015122  1.0000
  H   H5        1.0  0.4027510425138029  0.5341066411721178  0.6455288105782304  1.0000
  H   H6        1.0  0.2744059987209549  0.5003446675945242  0.7209131006048719  1.0000
  H   H7        1.0  0.2082152169724455  0.3692081366945945  0.34804106041674254  1.0000
  H   H8        1.0  0.33669654007732086  0.40018172316889267  0.2722920757495877  1.0000
  C   C15       1.0  0.9019544364347722  0.020913645954022675  0.6104704146073703  1.0000
  C   C16       1.0  0.8891302494681251  0.03085153525048434  0.47493785586448967  1.0000
  C   C17       1.0  0.8825553649358097  0.9187540520559017  0.40609879097905743  1.0000
  C   C18       1.0  0.8889506396049504  0.7955954179636618  0.47462148389451864  1.0000
  C   C19       1.0  0.9017866604405573  0.7837020666903125  0.6102361958582803  1.0000
  C   C20       1.0  0.9082128778325619  0.8968798142626426  0.6773259204767235  1.0000
  C   C21       1.0  0.8689898510275383  0.9302407890856387  0.2627217537177009  1.0000
  C   C22       1.0  0.9070951586931353  0.023546995502013557  0.18313344583335733  1.0000
  C   C23       1.0  0.8943352979697687  0.03422576668508359  0.04820639641138924  1.0000
  C   C24       1.0  0.8436821361592942  0.9509197650048581  0.9900325240575505  1.0000
  C   C25       1.0  0.80465916898469  0.8594488103629822  0.06950872252756946  1.0000
  C   C26       1.0  0.8174463943873893  0.8485134461752626  0.20439974908039282  1.0000
  N   N3        1.0  0.8285048523358988  0.9614466837740278  0.8517515233254058  1.0000
  C   C27       1.0  0.883366350040381  0.9972285015862931  0.7561665167258251  1.0000
  O   O1        1.0  0.9522845139541417  0.9983430413434311  0.7873245091953724  1.0000
  C   C28       1.0  0.859408786276535  0.024142567535393455  0.6164861812772786  1.0000
  H   H9        1.0  0.9069104867913439  0.3445668120493579  0.6625974569708166  1.0000
  H   H10       1.0  0.8831898517826742  0.12600894918605676  0.42284632795140786  1.0000
  H   H11       1.0  0.8849128676657751  0.7088691344006328  0.42180231728386763  1.0000
  H   H12       1.0  0.9181069703390182  0.8884995950666463  0.7818646910453626  1.0000
  H   H13       1.0  0.9264638402848886  0.5539613399808483  0.866092606286387  1.0000
  H   H14       1.0  0.947208690798608  0.08777385026074369  0.22514505390198414  1.0000
  H   H15       1.0  0.9231600832104422  0.1090730834816045  0.9900096271771637  1.0000
  H   H16       1.0  0.7644735974366751  0.7959273193668641  0.026626672195555257  1.0000
  H   H17       1.0  0.7862075386017423  0.7773325776850142  0.26331379579774716  1.0000
  H   H18       1.0  0.7755931179916936  0.9336661592320982  0.8181453326271062  1.0000
  H   H19       1.0  0.8051789846827104  0.0787089719718983  0.609435306070389  1.0000
  H   H20       1.0  0.8524599703259924  0.9306674492194364  0.5709315868393383  1.0000
  H   H21       1.0  0.9021802741946119  0.08333791111191657  0.5631423537393982  1.0000
  C   C29       1.0  0.9018959002208085  0.4021938298051464  0.22900312863795147  1.0000
  C   C30       1.0  0.8282903523333669  0.35458998165358135  0.22829883321042366  1.0000
  C   C31       1.0  0.7909731573830824  0.3305717595656632  0.11079407227648175  1.0000
  C   C32       1.0  0.8282392278485613  0.3548175222970653  0.9929914256941297  1.0000
  C   C33       1.0  0.9018451962705571  0.40242186921559253  0.9917034792787334  1.0000
  C   C34       1.0  0.9382621332422434  0.4258405622865289  0.11020939632539695  1.0000
  C   C35       1.0  0.7131048096724352  0.28020244473050293  0.11110376969415525  1.0000
  C   C36       1.0  0.6593123617956836  0.3299856633765681  0.017364505257528196  1.0000
  C   C37       1.0  0.586128227371973  0.28256575760670155  0.017924955784386798  1.0000
  C   C38       1.0  0.5656726628996733  0.1850478229676753  0.11166093051551984  1.0000
  C   C39       1.0  0.6187242622328993  0.13387522856792877  0.20622770912659316  1.0000
  C   C40       1.0  0.6920103781175113  0.18193261754111534  0.20522057786799142  1.0000
  O   O2        1.0  0.6010627709638917  0.03566048936561872  0.30223265805397537  1.0000
  C   C41       1.0  0.5290640570136694  0.9778717869256588  0.31483889742940585  1.0000
  H   H22       1.0  0.9299527760878363  0.4202744154142921  0.556729550282109  1.0000
  H   H23       1.0  0.7994320738487163  0.33775676346146  0.319198791697916  1.0000
  H   H24       1.0  0.8000818863507791  0.33480396248346245  0.9023173440418781  1.0000
  H   H25       1.0  0.995046035865704  0.46256408316982145  0.10998435469263956  1.0000
  H   H26       1.0  0.9298770871012296  0.4206227751493372  0.6637545992640672  1.0000
  H   H27       1.0  0.6735828202072458  0.4067622053224196  0.944706463581471  1.0000
  H   H28       1.0  0.5450448596007613  0.3218136699607368  0.9456079119807996  1.0000
  H   H29       1.0  0.5086068618104836  0.15019130068401942  0.10976677224849185  1.0000
  H   H30       1.0  0.7327629698890544  0.14094139997673127  0.2773485310713184  1.0000
  H   H31       1.0  0.5135903242088944  0.9297325715781009  0.22525158428909542  1.0000
  H   H32       1.0  0.5310108801878145  0.903350287365441  0.39862612013881016  1.0000
  H   H33       1.0  0.4862592401550633  0.053020854223417624  0.33304370343997336  1.0000
  Zn  Zn1       1.0  0.8195513186153873  0.40401198144906014  0.6064123249538207  1.0000
  Zn  Zn2       1.0  0.9841825595653503  0.4006032214772368  0.6142933586459005  1.0000
  C   C42       1.0  0.9018542210380117  0.397204694011946  0.8475383035044677  1.0000
  C   C43       1.0  0.9018814545417807  0.4074121104785493  0.3731675931129306  1.0000
  C   C44       1.0  0.9018148301311416  0.6395173236765983  0.6051053772292516  1.0000
  C   C45       1.0  0.9019207896101799  0.1650979215713415  0.6156005864132383  1.0000
  O   O3        1.0  0.9643533056439979  0.40786414030659546  0.42454131730290223  1.0000
  O   O4        1.0  0.9643336727496092  0.3941645143265964  0.8021457280052395  1.0000
  O   O5        1.0  0.9643010217885601  0.5898350450843877  0.6063793840520357  1.0000
  O   O6        1.0  0.9643859004319889  0.21219361997383213  0.6203075611941047  1.0000
  O   O7        1.0  0.8393479215681859  0.5924215841171185  0.6003981197093757  1.0000
  O   O8        1.0  0.8393805721871435  0.39675261376653737  0.7961643939412462  1.0000
  O   O9        1.0  0.8394002052453025  0.41045219401916544  0.4185584219311991  1.0000
  O   O10       1.0  0.8394328000257888  0.21478166442602853  0.6143247631881616  1.0000
