data_image0
_chemical_formula_structural       NC8NC6H8C12OCH12C12NCOH11Zn2C4O8
_chemical_formula_sum              "N3 C44 H31 O10 Zn2"
_cell_length_a       17.457602349358154
_cell_length_b       10.29979075500242
_cell_length_c       10.299148425239203
_cell_angle_alpha    85.53236164649607
_cell_angle_beta     92.86184502014838
_cell_angle_gamma    91.67079993281202

_space_group_name_H-M_alt    "P 1"
_space_group_IT_number       1

loop_
  _space_group_symop_operation_xyz
  'x, y, z'

loop_
  _atom_site_type_symbol
  _atom_site_label
  _atom_site_symmetry_multiplicity
  _atom_site_fract_x
  _atom_site_fract_y
  _atom_site_fract_z
  _atom_site_occupancy
  N   N1        1.0  0.7223700245005908  0.4533811372308145  0.6262745839972146  1.0000
  C   C1        1.0  0.6613019991749726  0.40746112739953433  0.6156629126615945  1.0000
  C   C2        1.0  0.5853307901608866  0.3503423454704857  0.6024715354714092  1.0000
  C   C3        1.0  0.5267835755978518  0.3904722613639513  0.6773696260427315  1.0000
  C   C4        1.0  0.452249973480179  0.3354714499167284  0.6647925074971579  1.0000
  C   C5        1.0  0.3901107884449456  0.3778426311854599  0.7441124391101224  1.0000
  C   C6        1.0  0.3155692179928443  0.39633399560837423  0.6883436798614966  1.0000
  C   C7        1.0  0.2570220175136572  0.4362799440796816  0.7633497494187507  1.0000
  C   C8        1.0  0.1810425172140084  0.45537807601441593  0.7053653337125216  1.0000
  N   N2        1.0  0.11996791661088581  0.47072659443760734  0.6587460151935387  1.0000
  C   C9        1.0  0.27252410393467646  0.45797745325234507  0.8946331016388851  1.0000
  C   C10       1.0  0.3462808414457497  0.4398749071643482  0.9507894426242092  1.0000
  C   C11       1.0  0.4048163352426344  0.40010881892294003  0.8762411035767994  1.0000
  C   C12       1.0  0.4375525708974913  0.23966391266503173  0.5758843615127087  1.0000
  C   C13       1.0  0.49608795644900283  0.1998125051003643  0.501386269899631  1.0000
  C   C14       1.0  0.569836689434389  0.2549254607108207  0.5145133599196285  1.0000
  H   H1        1.0  0.5391039466633247  0.4656375154056551  0.7439966710155794  1.0000
  H   H2        1.0  0.3032423504437473  0.3814065574279759  0.5863145780041072  1.0000
  H   H3        1.0  0.2276486524330375  0.4888351440561558  0.9534693293660099  1.0000
  H   H4        1.0  0.3580937728144448  0.45636013530189135  0.05244510227580457  1.0000
  H   H5        1.0  0.46129768803819515  0.38509801650387687  0.9223518679901181  1.0000
  H   H6        1.0  0.3810777224566437  0.1943335761084406  0.5652365108541735  1.0000
  H   H7        1.0  0.4842813745419031  0.12576419398228156  0.43356071736205437  1.0000
  H   H8        1.0  0.6147122647832296  0.22319787327571494  0.45618837683740554  1.0000
  C   C15       1.0  0.9212415755956038  0.08068924462372462  0.6425551832030463  1.0000
  C   C16       1.0  0.8990139001988602  0.06849758187675614  0.7721875332245081  1.0000
  C   C17       1.0  0.8876900919573378  0.9451810466990295  0.8378351054547009  1.0000
  C   C18       1.0  0.8988760791030048  0.8332093041062156  0.7721104876211109  1.0000
  C   C19       1.0  0.9211037205844187  0.8434087510016098  0.6424772022469953  1.0000
  C   C20       1.0  0.9321637922985389  0.9675842024170509  0.5784262257229376  1.0000
  C   C21       1.0  0.8641791443129182  0.9333372649285836  0.974980492001873  1.0000
  C   C22       1.0  0.8081945719899281  0.8400095203767145  0.015477132137759364  1.0000
  C   C23       1.0  0.7861357995682422  0.8291392135324979  0.14442420319508742  1.0000
  C   C24       1.0  0.8195650356041241  0.9109057310223696  0.2345088816788664  1.0000
  C   C25       1.0  0.875753566674079  0.004850662362034797  0.19590074100391663  1.0000
  C   C26       1.0  0.8975745823661815  0.015349633325119072  0.06640751445422488  1.0000
  O   O1        1.0  0.9112031205587959  0.08906141906992726  0.2826704214538014  1.0000
  C   C27       1.0  0.8947348382093595  0.08926242777206284  0.41667145222749025  1.0000
  H   H9        1.0  0.9297448437310027  0.41278772415206744  0.5931837284028652  1.0000
  H   H10       1.0  0.8894390110625895  0.15508452654106009  0.8218380028899368  1.0000
  H   H11       1.0  0.8912202118393671  0.737953098584196  0.8228568636104532  1.0000
  H   H12       1.0  0.9493120951889478  0.9762211844160334  0.4784203928450823  1.0000
  H   H13       1.0  0.9295352952362363  0.5198420833455955  0.5930622544669626  1.0000
  H   H14       1.0  0.7807641154757458  0.776612326507783  0.9470225541542945  1.0000
  H   H15       1.0  0.7428018614611399  0.7572642088787862  0.1745664189671735  1.0000
  H   H16       1.0  0.801368637239339  0.900319081813308  0.33369673412789946  1.0000
  H   H17       1.0  0.9415273035981887  0.08682477152070622  0.03782880208768091  1.0000
  H   H18       1.0  0.9079797802138198  0.9932894096096297  0.46837942759302764  1.0000
  H   H19       1.0  0.9309313919441554  0.1654623651130207  0.46184498355747927  1.0000
  H   H20       1.0  0.8334881886894013  0.11149495666917253  0.42610603776577727  1.0000
  C   C28       1.0  0.9212303123618721  0.4622073671923388  0.2611246989104321  1.0000
  C   C29       1.0  0.9990623010209569  0.5011616230618883  0.26350862170001554  1.0000
  C   C30       1.0  0.03840292396809164  0.5206927284832938  0.14757525283533135  1.0000
  C   C31       1.0  0.9989006313285158  0.5008144207557885  0.028238293036180417  1.0000
  C   C32       1.0  0.9211149507243457  0.4618906586830065  0.023907693536933783  1.0000
  C   C33       1.0  0.8827361388792055  0.4428063799676032  0.14089396236385765  1.0000
  C   C34       1.0  0.12069347436137923  0.5618753694914269  0.1511860357572179  1.0000
  C   C35       1.0  0.1722559084806723  0.5067540455900845  0.07180406326149646  1.0000
  C   C36       1.0  0.24965412831754774  0.5456438275744624  0.07534787945612398  1.0000
  C   C37       1.0  0.27730238552406905  0.6391226684377411  0.15910680544866618  1.0000
  C   C38       1.0  0.22566348021563387  0.6960868659050472  0.23691397456696084  1.0000
  C   C39       1.0  0.14823057042937404  0.65730223876977  0.23346415719579783  1.0000
  N   N3        1.0  0.3569713645850434  0.6788051258091241  0.15907472889626617  1.0000
  C   C40       1.0  0.40109403140913136  0.7174029194115124  0.27140507641310085  1.0000
  O   O2        1.0  0.3751379578841061  0.7021080724356574  0.3836466832760834  1.0000
  H   H21       1.0  0.7744484670264624  0.38792457751078024  0.46398807884924587  1.0000
  H   H22       1.0  0.02949861801990794  0.5146848017469392  0.35591966422022603  1.0000
  H   H23       1.0  0.028664410512313054  0.5175045136613492  0.93843482880611  1.0000
  H   H24       1.0  0.822738996968981  0.4127800131608317  0.13826883193016348  1.0000
  H   H25       1.0  0.8911987455992741  0.446883335559926  0.694769078294315  1.0000
  H   H26       1.0  0.1529268081585553  0.43240126511952237  0.008059056088159489  1.0000
  H   H27       1.0  0.28842677311458864  0.5017975098621319  0.013563470993482873  1.0000
  H   H28       1.0  0.24455682883237917  0.7725851672744539  0.2982165964624577  1.0000
  H   H29       1.0  0.1095479700132902  0.7038187294262048  0.293363112362687  1.0000
  H   H30       1.0  0.3864796130286763  0.6711531507141495  0.07430234606609432  1.0000
  H   H31       1.0  0.4586924346636714  0.7569553317362172  0.2602819723329697  1.0000
  Zn  Zn1       1.0  0.8371081871042636  0.4583831757200896  0.6356526368877333  1.0000
  Zn  Zn2       1.0  0.0052297400740968225  0.4657139038295426  0.6493785965486085  1.0000
  C   C41       1.0  0.9211359869368329  0.4567768251532647  0.879725793684399  1.0000
  C   C42       1.0  0.9212037758081676  0.46732197299648925  0.4053057169455654  1.0000
  C   C43       1.0  0.9211265928143721  0.6992405286043817  0.6373161778557608  1.0000
  C   C44       1.0  0.921213112834078  0.22485670672958147  0.647715397492659  1.0000
  O   O3        1.0  0.9849961241017418  0.47181478886031436  0.45890311444481235  1.0000
  O   O4        1.0  0.9849440075130699  0.4578468827464177  0.8365457082025869  1.0000
  O   O5        1.0  0.9849355613647441  0.6536393515921939  0.6407981579748445  1.0000
  O   O6        1.0  0.9850045128946168  0.2760223268436113  0.6546505626074264  1.0000
  O   O7        1.0  0.8573333569121093  0.6480747502058195  0.6303806661380873  1.0000
  O   O8        1.0  0.8573418027853511  0.4522838416756343  0.826128146956546  1.0000
  O   O9        1.0  0.8573939196693664  0.4662517031846205  0.4484839917143404  1.0000
  O   O10       1.0  0.8574023084460578  0.2704592318386436  0.644231537251255  1.0000
