data_image0
_chemical_formula_structural       NC9NC5H8C12OCH12C12NH11Zn2C4O8
_chemical_formula_sum              "N3 C43 H31 O9 Zn2"
_cell_length_a       17.807436237873137
_cell_length_b       10.29979075500242
_cell_length_c       10.299774167527174
_cell_angle_alpha    85.5728606880388
_cell_angle_beta     89.38598095942662
_cell_angle_gamma    88.37243818242351

_space_group_name_H-M_alt    "P 1"
_space_group_IT_number       1

loop_
  _space_group_symop_operation_xyz
  'x, y, z'

loop_
  _atom_site_type_symbol
  _atom_site_label
  _atom_site_symmetry_multiplicity
  _atom_site_fract_x
  _atom_site_fract_y
  _atom_site_fract_z
  _atom_site_occupancy
  N   N1        1.0  0.707262988531668  0.3873318620783741  0.5570728529435849  1.0000
  C   C1        1.0  0.646682441237843  0.352138731030482  0.5460523638734442  1.0000
  C   C2        1.0  0.5713268987691428  0.30836235167216786  0.5323440720575718  1.0000
  C   C3        1.0  0.5532552489840996  0.23691583419088236  0.42735163918591557  1.0000
  C   C4        1.0  0.48008893070304914  0.19430082196751597  0.4139591557480402  1.0000
  C   C5        1.0  0.4239456128068072  0.22275478653897207  0.5055266867289765  1.0000
  C   C6        1.0  0.3461886515110232  0.17758094530782143  0.49137600635247125  1.0000
  C   C7        1.0  0.2839960543042624  0.25934511963741236  0.5173069395493726  1.0000
  C   C8        1.0  0.2106874662184118  0.216527072639755  0.5039281537834988  1.0000
  C   C9        1.0  0.1474442776964393  0.300982717021423  0.5302227476927726  1.0000
  N   N2        1.0  0.0966097435022201  0.3688792124504199  0.5513628752314446  1.0000
  C   C10       1.0  0.1989879779213663  0.09168686287757977  0.4645931078852734  1.0000
  C   C11       1.0  0.2603232083287935  0.009908833707659825  0.43865378650920706  1.0000
  C   C12       1.0  0.3335124480529981  0.05233227804403762  0.4518300756227862  1.0000
  C   C13       1.0  0.442708564620541  0.29469573734992216  0.6107382983888439  1.0000
  C   C14       1.0  0.5159277985201158  0.3371203082389185  0.6239751536194869  1.0000
  H   H1        1.0  0.5956590100968969  0.21440922136677099  0.355643773416938  1.0000
  H   H2        1.0  0.4671915066479843  0.14059371762941097  0.3310466893724924  1.0000
  H   H3        1.0  0.2924742908438729  0.3568189259283516  0.5461745381364187  1.0000
  H   H4        1.0  0.1425297025546182  0.057647547276880706  0.4540015429941813  1.0000
  H   H5        1.0  0.2511465630503901  0.9132547730602398  0.4085857574684362  1.0000
  H   H6        1.0  0.3801662231617417  0.9865813562752348  0.43278802535120686  1.0000
  H   H7        1.0  0.4010216917209286  0.31666368364083164  0.6837406540431634  1.0000
  H   H8        1.0  0.5293534263110086  0.3920476929706218  0.7058459335934919  1.0000
  C   C15       1.0  0.9020074653496231  0.9967344366522177  0.5542557922252089  1.0000
  C   C16       1.0  0.8802517181811012  0.986636734843493  0.6860072972610192  1.0000
  C   C17       1.0  0.8691683002053946  0.8643866832500495  0.7527345112658528  1.0000
  C   C18       1.0  0.8801167518846702  0.7513608195226115  0.6859434943247238  1.0000
  C   C19       1.0  0.9018724657661387  0.7594663078758594  0.5541910573022057  1.0000
  C   C20       1.0  0.9126977514898261  0.8826001622680124  0.48908557643144457  1.0000
  C   C21       1.0  0.8461565290073876  0.8547577736587427  0.89212139479493  1.0000
  C   C22       1.0  0.7913374264091388  0.7665024199657275  0.9379889689734435  1.0000
  C   C23       1.0  0.7697470204268625  0.7577103738782501  0.06903905702177404  1.0000
  C   C24       1.0  0.80248959378764  0.8365286505754763  0.15590330768857008  1.0000
  C   C25       1.0  0.857508574125932  0.9253841471674688  0.11190442790648336  1.0000
  C   C26       1.0  0.8788661147475407  0.9338258926273363  0.9803310777633154  1.0000
  O   O1        1.0  0.8922292568116437  0.0064623086437827215  0.1952600761456703  1.0000
  C   C27       1.0  0.876113696826519  0.008241475114685537  0.3308267309785625  1.0000
  H   H9        1.0  0.9103302136434149  0.32803201971853335  0.5040736222094693  1.0000
  H   H10       1.0  0.8708796173711043  0.07412131864586402  0.736571347155395  1.0000
  H   H11       1.0  0.8726239245740107  0.6568301346080628  0.7374190568526597  1.0000
  H   H12       1.0  0.9294819694380115  0.8896216887121324  0.3874448482942032  1.0000
  H   H13       1.0  0.9101250053446382  0.4351051722026247  0.5039722834403735  1.0000
  H   H14       1.0  0.7644708556487835  0.705528266366306  0.872176283354114  1.0000
  H   H15       1.0  0.7273150975039486  0.6897607214732445  0.10333869675606355  1.0000
  H   H16       1.0  0.7846789716109162  0.8276513066906341  0.2568267897542509  1.0000
  H   H17       1.0  0.9219041020815069  0.0013210326219477153  0.9475353427078896  1.0000
  H   H18       1.0  0.8890878748228062  0.9111116308707327  0.38125687319131873  1.0000
  H   H19       1.0  0.9115625025186408  0.0812121910302055  0.3725193668347516  1.0000
  H   H20       1.0  0.8161392365746468  0.03599857359646319  0.34614115038052684  1.0000
  C   C28       1.0  0.9019655353337339  0.3779846547976493  0.17287099227644243  1.0000
  C   C29       1.0  0.8283966184749065  0.3321696190461203  0.17677498583711015  1.0000
  C   C30       1.0  0.7910923412491246  0.30907184277773436  0.061605726925548776  1.0000
  C   C31       1.0  0.8283449646424967  0.3324033675884819  0.9414710121073022  1.0000
  C   C32       1.0  0.9019143597804711  0.3782161541808773  0.9355758673652375  1.0000
  C   C33       1.0  0.938312555680226  0.4007507591229096  0.05180112059554087  1.0000
  C   C34       1.0  0.7132606909333709  0.2606027570157896  0.06678927444976712  1.0000
  C   C35       1.0  0.6921643628688078  0.1631489728212081  0.1624060067736628  1.0000
  C   C36       1.0  0.6189057144404755  0.11758555906889634  0.16715110372829622  1.0000
  C   C37       1.0  0.5655845644139651  0.1686382074441406  0.07662423895726711  1.0000
  C   C38       1.0  0.5861852057726483  0.2657253244064415  0.9811741748825891  1.0000
  C   C39       1.0  0.6594212774761933  0.31139106975235653  0.9761631200715142  1.0000
  N   N3        1.0  0.4906579794656604  0.1219777949699119  0.08161409988764445  1.0000
  H   H21       1.0  0.9300114472366827  0.3953880090532782  0.4988408098167334  1.0000
  H   H22       1.0  0.7995566356115632  0.316033358312902  0.2694851501578208  1.0000
  H   H23       1.0  0.8002130308075988  0.31306115097254494  0.8525549710426281  1.0000
  H   H24       1.0  0.9950677511275303  0.4360940553225301  0.04802137986850341  1.0000
  H   H25       1.0  0.9299363480009197  0.39572851739629167  0.6058721041464366  1.0000
  H   H26       1.0  0.7325838098238421  0.12096525886996057  0.2324665773862491  1.0000
  H   H27       1.0  0.6037641137116164  0.04225672251310986  0.24119815716803994  1.0000
  H   H28       1.0  0.545452427653842  0.30625858224120583  0.9108482918520613  1.0000
  H   H29       1.0  0.6736844669599015  0.38762803014830305  0.9024608910097354  1.0000
  H   H30       1.0  0.4505182518623467  0.15943650143990085  0.014535117479612447  1.0000
  H   H31       1.0  0.47477199398978126  0.049629500932946824  0.15242467765523404  1.0000
  Zn  Zn1       1.0  0.8196200505800559  0.3820033629696804  0.5554325874802706  1.0000
  Zn  Zn2       1.0  0.984252664414514  0.37419712856879195  0.5530138177437642  1.0000
  C   C40       1.0  0.9019232823746823  0.3729987419391567  0.7914088076757482  1.0000
  C   C41       1.0  0.9019512301042834  0.383203303022456  0.31703769845737373  1.0000
  C   C42       1.0  0.9018944450823809  0.6152923861753954  0.5490284402148391  1.0000
  C   C43       1.0  0.9019800114905502  0.14090810116007568  0.5594181361116122  1.0000
  O   O2        1.0  0.9644236491016811  0.38198663799549615  0.3645034520018564  1.0000
  O   O3        1.0  0.9644032081367723  0.36828967583865047  0.7421068901209693  1.0000
  O   O4        1.0  0.9643790793451655  0.5639448981254696  0.5463830407744998  1.0000
  O   O5        1.0  0.9644477217202159  0.18633142763313737  0.5602272048024348  1.0000
  O   O6        1.0  0.8394249370933229  0.5698690665706314  0.5482192012401765  1.0000
  O   O7        1.0  0.8394490656099332  0.37421540457525015  0.7439429812118927  1.0000
  O   O8        1.0  0.8394695067375547  0.38791232099968687  0.36633798176258314  1.0000
  O   O9        1.0  0.8394935793481303  0.1922571013781642  0.5620618319276296  1.0000
