data_image0
_chemical_formula_structural       NC9NC5H8C16H10C13NH9Zn2C4O8
_chemical_formula_sum              "N3 C47 H27 Zn2 O8"
_cell_length_a       17.807436237873137
_cell_length_b       10.29914801576943
_cell_length_c       10.298528502251457
_cell_angle_alpha    85.51780360307934
_cell_angle_beta     89.38885601427037
_cell_angle_gamma    88.40369483635645

_space_group_name_H-M_alt    "P 1"
_space_group_IT_number       1

loop_
  _space_group_symop_operation_xyz
  'x, y, z'

loop_
  _atom_site_type_symbol
  _atom_site_label
  _atom_site_symmetry_multiplicity
  _atom_site_fract_x
  _atom_site_fract_y
  _atom_site_fract_z
  _atom_site_occupancy
  N   N1        1.0  0.7076470263798559  0.3883480449713077  0.5563611244561464  1.0000
  C   C1        1.0  0.6470548828100554  0.35315932217988877  0.5453506143498188  1.0000
  C   C2        1.0  0.5716849158504251  0.3093884262179729  0.5316547352630994  1.0000
  C   C3        1.0  0.5535865074351056  0.23800322611029134  0.4266685508043091  1.0000
  C   C4        1.0  0.48040614547457616  0.1953935821512247  0.41328814267471436  1.0000
  C   C5        1.0  0.4242754214687607  0.22379159051600594  0.5048616221526858  1.0000
  C   C6        1.0  0.3465035750266099  0.17862341075755994  0.4907237499426633  1.0000
  C   C7        1.0  0.2843379321719249  0.2603771360954523  0.516631554478139  1.0000
  C   C8        1.0  0.2110152365145355  0.21756443381250024  0.5032649146949195  1.0000
  C   C9        1.0  0.1477998705391768  0.3020095957822557  0.5295355355277209  1.0000
  N   N2        1.0  0.0969877037902262  0.36989766338439223  0.5506563905567323  1.0000
  C   C10       1.0  0.1992746034449693  0.09274001491872497  0.46396522599770473  1.0000
  C   C11       1.0  0.2605828747774269  0.010972439042790993  0.4380490365248717  1.0000
  C   C12       1.0  0.3337860889769757  0.0533906381212077  0.4512132781604057  1.0000
  C   C13       1.0  0.4430652973359381  0.2956711212328682  0.6100668561159766  1.0000
  C   C14       1.0  0.5162985084264178  0.33809040855676864  0.6232916737597887  1.0000
  H   H1        1.0  0.5959803350431826  0.21554041701057503  0.35495610205634964  1.0000
  H   H2        1.0  0.4674884513829647  0.14173509885646252  0.3303796969424273  1.0000
  H   H3        1.0  0.2928482222547778  0.35783978234876823  0.5454712337441607  1.0000
  H   H4        1.0  0.1428051146215265  0.05870492019135498  0.4533833243733798  1.0000
  H   H5        1.0  0.2513743893331279  0.9143303593482568  0.4080084472756247  1.0000
  H   H6        1.0  0.3804182591436008  0.9876469714313226  0.4321901338720826  1.0000
  H   H7        1.0  0.4013882374155963  0.3175944038470955  0.6830741956036555  1.0000
  H   H8        1.0  0.52974475290625  0.3929699218704663  0.7051578456400631  1.0000
  C   C15       1.0  0.9022674522730613  0.9977238033425158  0.5536750805473527  1.0000
  C   C16       1.0  0.8851179975972584  0.008180840448507753  0.4204357993566996  1.0000
  C   C17       1.0  0.8764780714072368  0.8963504594604327  0.3527152222944452  1.0000
  C   C18       1.0  0.8852182946692512  0.7729244104418542  0.42002968922951056  1.0000
  C   C19       1.0  0.9023744434203226  0.7605115850473797  0.5533536357586017  1.0000
  C   C20       1.0  0.9107947312313955  0.8734326824881233  0.61935539138424  1.0000
  C   C21       1.0  0.8583362020285731  0.9084583404666935  0.2117641287760803  1.0000
  C   C22       1.0  0.8938822263492985  0.8258178359484764  0.12601502549722943  1.0000
  C   C23       1.0  0.8767814784305421  0.837339776419771  0.9933576751896509  1.0000
  C   C24       1.0  0.8239591253849835  0.9314114666647216  0.944647521461349  1.0000
  C   C25       1.0  0.788276151945359  0.014039214509527387  0.02911453098906236  1.0000
  C   C26       1.0  0.8053233357068933  0.002761070930571874  0.16179361530840497  1.0000
  C   C27       1.0  0.8063816136201823  0.9431483011948721  0.8080639228982864  1.0000
  C   C28       1.0  0.7916606369923355  0.9529777866027976  0.6936771359584126  1.0000
  C   C29       1.0  0.774422547208082  0.9644879827386719  0.5597313745263093  1.0000
  C   C30       1.0  0.759704041209386  0.9743159675741403  0.44536306144861104  1.0000
  H   H9        1.0  0.9088252310686042  0.3211780048574986  0.6049392773091675  1.0000
  H   H10       1.0  0.8794520927248374  0.10352237354524507  0.368602288465639  1.0000
  H   H11       1.0  0.8776132730770783  0.6864090837411658  0.36871923360667735  1.0000
  H   H12       1.0  0.9240203484488808  0.8646511144709079  0.7221271569838865  1.0000
  H   H13       1.0  0.934290535006569  0.5297984506681289  0.8051806723347663  1.0000
  H   H14       1.0  0.9356141098356002  0.7534233110994956  0.16125770865941624  1.0000
  H   H15       1.0  0.9048899512280639  0.7731067241173912  0.9287630005449863  1.0000
  H   H16       1.0  0.7471418474483519  0.08697024004872245  0.9924930291760496  1.0000
  H   H17       1.0  0.7763391215281686  0.06664609013673273  0.22559823442667293  1.0000
  H   H18       1.0  0.7467800080005992  0.9829457656827074  0.34493803816519897  1.0000
  C   C31       1.0  0.902331648617943  0.3792436782825668  0.17209725969462775  1.0000
  C   C32       1.0  0.8242328058212082  0.40280830535921486  0.17074315290642073  1.0000
  C   C33       1.0  0.784667222878189  0.41460808184579  0.052910470992250325  1.0000
  C   C34       1.0  0.8242103426144932  0.40254448811838306  0.9354838895114179  1.0000
  C   C35       1.0  0.9023102562855121  0.3789916909413229  0.9349313986839927  1.0000
  C   C36       1.0  0.9408708106803523  0.3674893433607367  0.05371219250164905  1.0000
  C   C37       1.0  0.7021010368960446  0.43951490886431777  0.05248658190993738  1.0000
  C   C38       1.0  0.6689439398342132  0.529024647398993  0.13385157476004372  1.0000
  C   C39       1.0  0.591224467072589  0.5524223941514699  0.1333331080704161  1.0000
  C   C40       1.0  0.5456279632867674  0.486718881198684  0.05168060437721933  1.0000
  C   C41       1.0  0.5780436207450276  0.39748063282773405  0.9704303833814043  1.0000
  C   C42       1.0  0.6557550610185447  0.3739888941381049  0.9707123971095815  1.0000
  C   C43       1.0  0.4656156919907389  0.5108575845352232  0.05126748529516001  1.0000
  N   N3        1.0  0.4012912212315783  0.5302635973040422  0.050935400385187624  1.0000
  H   H19       1.0  0.04984548757691898  0.3339103131741952  0.3820445767849172  1.0000
  H   H20       1.0  0.7938935068280008  0.4102543774361558  0.26170079335138885  1.0000
  H   H21       1.0  0.7941541006814675  0.4133168179145801  0.8442163944256658  1.0000
  H   H22       1.0  0.001063099126567435  0.3493323429315187  0.05402094772286503  1.0000
  H   H23       1.0  0.04996314192599205  0.33529465768885824  0.726498049028343  1.0000
  H   H24       1.0  0.7032194941741433  0.5821732729070277  0.19662941463254513  1.0000
  H   H25       1.0  0.5667428708909809  0.6219786235603126  0.1963701765182322  1.0000
  H   H26       1.0  0.543249025678861  0.3458068877347795  0.9070878116633265  1.0000
  H   H27       1.0  0.6794988807429861  0.3033373438607192  0.9082333927822752  1.0000
  Zn  Zn1       1.0  0.8200023337692238  0.3830201953560115  0.5547223746833723  1.0000
  Zn  Zn2       1.0  0.9846323764191324  0.375214922466808  0.5523058227518274  1.0000
  C   C44       1.0  0.9023118958294851  0.3738653422274347  0.7907416418257156  1.0000
  C   C45       1.0  0.9023246123401154  0.38437132906831484  0.3162866560127231  1.0000
  C   C46       1.0  0.9023505043346268  0.6163303605710422  0.5482386047553143  1.0000
  C   C47       1.0  0.9022859474374187  0.14190475294001503  0.5587897638127313  1.0000
  O   O1        1.0  0.9647984933151457  0.383124488943023  0.3637608681274014  1.0000
  O   O2        1.0  0.9647884078188959  0.3691871811555292  0.7414329492298755  1.0000
  O   O3        1.0  0.9648187424275505  0.5649807893405843  0.5456100428398682  1.0000
  O   O4        1.0  0.9647681025334438  0.18733089274449743  0.5595836779511312  1.0000
  O   O5        1.0  0.8398665514747589  0.5709042277432947  0.5474445203018863  1.0000
  O   O6        1.0  0.8398362170835059  0.37511218000790425  0.7432673567801042  1.0000
  O   O7        1.0  0.8398463026671676  0.38904944304928457  0.3655937140980672  1.0000
  O   O8        1.0  0.8398159118783596  0.1932558375292024  0.5614166213058926  1.0000
