data_image0
_chemical_formula_structural       NC10NC3NH7C12OCH12C15H12Zn2C4O8
_chemical_formula_sum              "N3 C45 H31 O9 Zn2"
_cell_length_a       19.210446455230148
_cell_length_b       10.29979075500242
_cell_length_c       10.299157797200024
_cell_angle_alpha    85.53980185155037
_cell_angle_beta     90.0131967510761
_cell_angle_gamma    89.92936594805748

_space_group_name_H-M_alt    "P 1"
_space_group_IT_number       1

loop_
  _space_group_symop_operation_xyz
  'x, y, z'

loop_
  _atom_site_type_symbol
  _atom_site_label
  _atom_site_symmetry_multiplicity
  _atom_site_fract_x
  _atom_site_fract_y
  _atom_site_fract_z
  _atom_site_occupancy
  N   N1        1.0  0.6549286781117527  0.4205936734656168  0.5671815621216421  1.0000
  C   C1        1.0  0.5946996364051197  0.4228010769000663  0.5674126351653674  1.0000
  C   C2        1.0  0.51989458634644  0.4255378530063958  0.5676989057507338  1.0000
  C   C3        1.0  0.48425839412647437  0.5417615654234327  0.5828068963252551  1.0000
  C   C4        1.0  0.4115928646144678  0.5419131157251034  0.5827542899664275  1.0000
  C   C5        1.0  0.3747276758649734  0.42624678013314665  0.5677853654450444  1.0000
  C   C6        1.0  0.2974058500004455  0.42489037579054756  0.5676348191729912  1.0000
  C   C7        1.0  0.2596111000480041  0.5284782562903463  0.5042653745492367  1.0000
  C   C8        1.0  0.1868330691252823  0.5270760850400691  0.5041563501667925  1.0000
  C   C9        1.0  0.1508483010391934  0.42234355370809706  0.5673657604737339  1.0000
  C   C10       1.0  0.0759190740590402  0.42104153818501144  0.5672289760863416  1.0000
  N   N2        1.0  0.0156814573921653  0.41999467348590636  0.5671190363184779  1.0000
  C   C11       1.0  0.1879193563291451  0.3188813709563558  0.6307101902241044  1.0000
  C   C12       1.0  0.2606993162920083  0.3200092640802048  0.630869474206111  1.0000
  C   C13       1.0  0.4129733429085356  0.31184320142777877  0.5529654828173347  1.0000
  N   N3        1.0  0.48374271818615455  0.3142880794004903  0.55313095716086  1.0000
  H   H1        1.0  0.5123398240389493  0.6311897997231763  0.5948524207509518  1.0000
  H   H2        1.0  0.3843046577314042  0.6319227777370848  0.5961945919610887  1.0000
  H   H3        1.0  0.2863059793174936  0.6097456562143158  0.45326866904202423  1.0000
  H   H4        1.0  0.1586547764530825  0.6075153888887295  0.4544901450176426  1.0000
  H   H5        1.0  0.160584535061424  0.23747871896397155  0.6802769436906626  1.0000
  H   H6        1.0  0.2882330451599132  0.23968870412378895  0.6819734806579387  1.0000
  H   H7        1.0  0.386727561084494  0.22097064913765885  0.5394789657088455  1.0000
  C   C14       1.0  0.8353709566132507  0.03892631281001768  0.567189242436489  1.0000
  C   C15       1.0  0.8152489617139779  0.027754844372684495  0.6986389482633597  1.0000
  C   C16       1.0  0.8049977475710712  0.9049579925785798  0.7652123701300404  1.0000
  C   C17       1.0  0.8151238894499329  0.7924727782295417  0.6985731807737925  1.0000
  C   C18       1.0  0.83524585325144  0.8016520322252547  0.5671225423797355  1.0000
  C   C19       1.0  0.8452583356556196  0.9253199126687104  0.5021672789216074  1.0000
  C   C20       1.0  0.7837140579564159  0.8941933078301422  0.9042800337178032  1.0000
  C   C21       1.0  0.7329332593629352  0.8033980933494639  0.9493571850546485  1.0000
  C   C22       1.0  0.7129642714370228  0.793540267395737  0.08010779893855191  1.0000
  C   C23       1.0  0.7433261187418384  0.8738093634175363  0.16745612251842912  1.0000
  C   C24       1.0  0.7942926283899379  0.9652128019091977  0.12425076077955599  1.0000
  C   C25       1.0  0.8140457085738648  0.9747099542401054  0.9929734519699704  1.0000
  O   O1        1.0  0.8264863580660718  0.047834505689716256  0.20811880968275465  1.0000
  C   C26       1.0  0.8115913973152065  0.04879628030833327  0.3434658835112002  1.0000
  H   H8        1.0  0.8430687666421948  0.3706345422033137  0.5171225499468017  1.0000
  H   H9        1.0  0.8065789649161111  0.11478045102727275  0.7490723383251678  1.0000
  H   H10       1.0  0.8081954077709278  0.6975687469488424  0.7499454403706793  1.0000
  H   H11       1.0  0.860782140291462  0.9331698312132215  0.40075938450956516  1.0000
  H   H12       1.0  0.8428786004507571  0.4776983452334542  0.5170182237367675  1.0000
  H   H13       1.0  0.7080216639938597  0.7412303203534977  0.8831478706500397  1.0000
  H   H14       1.0  0.6736578089875936  0.7236253702349628  0.11379549742112416  1.0000
  H   H15       1.0  0.7268510893958668  0.8640569855198657  0.2681318063420072  1.0000
  H   H16       1.0  0.8539141397749467  0.04419725385465978  0.9607986074603463  1.0000
  H   H17       1.0  0.8236266016445731  0.9522320443490453  0.39408951532696335  1.0000
  H   H18       1.0  0.8444483701602218  0.12336805900540782  0.38567711926435444  1.0000
  H   H19       1.0  0.7560254679561514  0.07379486235214894  0.35791189482690144  1.0000
  C   C27       1.0  0.8352276696281051  0.4203955713896317  0.18576389341811916  1.0000
  C   C28       1.0  0.7627267775772948  0.40253664125098654  0.1859531914277921  1.0000
  C   C29       1.0  0.7261157495369203  0.3933724054014027  0.06890683288701349  1.0000
  C   C30       1.0  0.7629336359165952  0.40232756673794556  0.9506858791932782  1.0000
  C   C31       1.0  0.8353890941570035  0.4201827776063136  0.9485479061625135  1.0000
  C   C32       1.0  0.8711130185691822  0.4291067550471679  0.06661728373058651  1.0000
  C   C33       1.0  0.6494660695890012  0.3744968728650171  0.07015326124770782  1.0000
  C   C34       1.0  0.6181587613649593  0.28757013926847286  0.9890592481169964  1.0000
  C   C35       1.0  0.5460281859198527  0.26990052088278405  0.9902644404109942  1.0000
  C   C36       1.0  0.5039203097559692  0.33815069355689387  0.07309586192486273  1.0000
  C   C37       1.0  0.5348549488761767  0.425923589983656  0.1532131504163623  1.0000
  C   C38       1.0  0.6069848217836626  0.443597407877109  0.15215590860442463  1.0000
  C   C39       1.0  0.42621489831255677  0.3214646115752775  0.0720478411332639  1.0000
  C   C40       1.0  0.3948936780865421  0.4152837141189376  0.9746341676645116  1.0000
  C   C41       1.0  0.3691522970866271  0.4924310753591419  0.8945331890357151  1.0000
  H   H20       1.0  0.9721248132303206  0.45330857090754595  0.3927613242062924  1.0000
  H   H21       1.0  0.7347294335715192  0.39395829794523607  0.2774965313211022  1.0000
  H   H22       1.0  0.7348355643756199  0.3971362053347476  0.8600589022897545  1.0000
  H   H23       1.0  0.9270001069857535  0.4428752383457284  0.06568393456776489  1.0000
  H   H24       1.0  0.863260757034252  0.42700904872249046  0.6202532088317496  1.0000
  H   H25       1.0  0.6495396460965556  0.23215263611754078  0.9256865558476393  1.0000
  H   H26       1.0  0.522992873508992  0.2027833088191966  0.926715171488476  1.0000
  H   H27       1.0  0.5030676072914535  0.4810325905143775  0.21624094088293266  1.0000
  H   H28       1.0  0.6294520305960839  0.5128227833766033  0.21406385089658153  1.0000
  H   H29       1.0  0.4123387069783639  0.22124781450431152  0.0486137542141587  1.0000
  H   H30       1.0  0.4040541990321262  0.33694628475768895  0.16927164933728922  1.0000
  H   H31       1.0  0.3465730758956858  0.5601637994336013  0.8242118372283023  1.0000
  Zn  Zn1       1.0  0.7590341388391658  0.4204173488747469  0.5671710183497904  1.0000
  Zn  Zn2       1.0  0.9115759847120986  0.4201604125914724  0.567140217436777  1.0000
  C   C42       1.0  0.8353578963655104  0.4150493592969793  0.8043658727297194  1.0000
  C   C43       1.0  0.8352538926961349  0.4255300379430229  0.32994549005148244  1.0000
  C   C44       1.0  0.8352648047744454  0.657482109272437  0.5619597034734785  1.0000
  C   C45       1.0  0.8353469325059512  0.18309572773763705  0.5723517286974098  1.0000
  O   O2        1.0  0.8931515298570414  0.42715004011596935  0.3783224627059383  1.0000
  O   O3        1.0  0.8932359907256984  0.4132333688146066  0.7559651491118993  1.0000
  O   O4        1.0  0.8931600380052533  0.6090008813381067  0.5602204524131889  1.0000
  O   O5        1.0  0.8932274305031519  0.23138253699750422  0.5740670620337793  1.0000
  O   O6        1.0  0.777382640993065  0.6091952245578105  0.5602441737564672  1.0000
  O   O7        1.0  0.7774585934397112  0.4134292723533346  0.75598880106917  1.0000
  O   O8        1.0  0.7773741322942723  0.4273458988343357  0.3783445531718608  1.0000
  O   O9        1.0  0.7774500329596701  0.23157838639993122  0.5740892498742514  1.0000
