data_image0
_chemical_formula_structural       NC8NC6H8C13OH12C12IH9Zn2C4O8
_chemical_formula_sum              "N2 C43 H29 O9 I1 Zn2"
_cell_length_a       17.457602349358154
_cell_length_b       10.299150109392551
_cell_length_c       10.29977335064465
_cell_angle_alpha    85.52407015278276
_cell_angle_beta     92.8856157993103
_cell_angle_gamma    91.67070309183428

_space_group_name_H-M_alt    "P 1"
_space_group_IT_number       1

loop_
  _space_group_symop_operation_xyz
  'x, y, z'

loop_
  _atom_site_type_symbol
  _atom_site_label
  _atom_site_symmetry_multiplicity
  _atom_site_fract_x
  _atom_site_fract_y
  _atom_site_fract_z
  _atom_site_occupancy
  N   N1        1.0  0.7220176146683287  0.45330814928605556  0.6259423678318274  1.0000
  C   C1        1.0  0.6609473726101602  0.40738281480985417  0.6153439316751286  1.0000
  C   C2        1.0  0.5849734082888132  0.3502574108462382  0.6021690169847875  1.0000
  C   C3        1.0  0.5264443517758217  0.3904012507997061  0.6770522138666373  1.0000
  C   C4        1.0  0.4519081274449474  0.335394080539571  0.6644909410456825  1.0000
  C   C5        1.0  0.3897881736082512  0.37777999726082  0.7437951350470111  1.0000
  C   C6        1.0  0.3152326548448721  0.39626502368739436  0.6880240904677868  1.0000
  C   C7        1.0  0.2567036407330412  0.4362248961469035  0.7630153117287386  1.0000
  C   C8        1.0  0.18070963909608873  0.4553164276271455  0.7050285552573932  1.0000
  N   N2        1.0  0.1196233795117094  0.4706596387748776  0.6584073565195732  1.0000
  C   C9        1.0  0.272237985378768  0.4579427593812353  0.8942860080294486  1.0000
  C   C10       1.0  0.3460087635626237  0.43984663843535166  0.9504445071834551  1.0000
  C   C11       1.0  0.4045261825413035  0.40006670585348236  0.875910943491764  1.0000
  C   C12       1.0  0.4371895963978897  0.239566001599117  0.5756137942709747  1.0000
  C   C13       1.0  0.495706920305948  0.19970074968464546  0.5011304990571936  1.0000
  C   C14       1.0  0.5694584104525312  0.25482015114536316  0.5142416844589779  1.0000
  H   H1        1.0  0.5387805265482404  0.4655821791882211  0.743655097050363  1.0000
  H   H2        1.0  0.3028807001458837  0.38132192821461075  0.5860042892943045  1.0000
  H   H3        1.0  0.227376803836305  0.4888113327211465  0.9531107202706615  1.0000
  H   H4        1.0  0.3578466759943114  0.4563476008860614  0.05209045434816806  1.0000
  H   H5        1.0  0.4610190656279133  0.3850611670007693  0.9220235205287071  1.0000
  H   H6        1.0  0.3807125170653619  0.19423038441133933  0.5649790175778275  1.0000
  H   H7        1.0  0.48388422856806323  0.1256366879567632  0.43332886023556205  1.0000
  H   H8        1.0  0.6143198499052914  0.2230816809281797  0.4559284314723524  1.0000
  C   C15       1.0  0.9208964869044419  0.08058750823869976  0.642325192938191  1.0000
  C   C16       1.0  0.9194964150475881  0.06868254586999356  0.7790212094041351  1.0000
  C   C17       1.0  0.9187197682056593  0.945509039461309  0.8480598448701477  1.0000
  C   C18       1.0  0.9193484613300216  0.8334208498438436  0.7786457348687534  1.0000
  C   C19       1.0  0.9207518426389748  0.8433705253889463  0.6420363873451855  1.0000
  C   C20       1.0  0.9215197642533307  0.9674137720946582  0.574674623118508  1.0000
  C   C21       1.0  0.9172319530168878  0.9338964233543195  0.9925780620852118  1.0000
  C   C22       1.0  0.8700627616820754  0.8389379955439938  0.05674785551829975  1.0000
  C   C23       1.0  0.8686373112529021  0.8280908354644312  0.19273727808937324  1.0000
  C   C24       1.0  0.9148584866728658  0.911063586599415  0.2670563809946749  1.0000
  C   C25       1.0  0.9612937366730967  0.006943433520944842  0.2034692301188571  1.0000
  C   C26       1.0  0.9627369960355351  0.017967167895116987  0.06748097295605071  1.0000
  C   C27       1.0  0.9117135625177989  0.9016915150967246  0.4128854433597967  1.0000
  O   O1        1.0  0.8543751717980342  0.9823530127930192  0.44844423559792546  1.0000
  H   H9        1.0  0.9230407502837547  0.3103297667954781  0.38426435806984083  1.0000
  H   H10       1.0  0.9179431177635344  0.15537143381911966  0.8319028051962942  1.0000
  H   H11       1.0  0.9197912558783965  0.7383009232433584  0.8315152517975655  1.0000
  H   H12       1.0  0.9226000633280314  0.9758043683896784  0.4693035684397129  1.0000
  H   H13       1.0  0.921239993960909  0.5197197980697612  0.5894874248006243  1.0000
  H   H14       1.0  0.8333673498518971  0.7743445664675008  0.0016430879807088905  1.0000
  H   H15       1.0  0.831321371377456  0.7551167112065468  0.2400658030638867  1.0000
  H   H16       1.0  0.9965760337813713  0.07302792705486127  0.25920481874576995  1.0000
  H   H17       1.0  7.871869668862885e-05  0.0913875934767272  0.020961194110790338  1.0000
  H   H18       1.0  0.9681507915327675  0.9319708192579391  0.4576635006052746  1.0000
  H   H19       1.0  0.8992492992138243  0.7991142374189404  0.4496801941367924  1.0000
  H   H20       1.0  0.854668597547682  0.9726578021003427  0.5450945959287513  1.0000
  C   C28       1.0  0.9207875679550264  0.4620835296144934  0.26080855637734457  1.0000
  C   C29       1.0  0.9903210413971372  0.5341270485537346  0.260123771926128  1.0000
  C   C30       1.0  0.025591106938106956  0.5705258380524991  0.14264980304935349  1.0000
  C   C31       1.0  0.9903948805402637  0.5339160970544576  0.02486026539273234  1.0000
  C   C32       1.0  0.9208607641969385  0.4618745551674479  0.02355303842027401  1.0000
  C   C33       1.0  0.886446767606242  0.4263606302703855  0.14202703741601108  1.0000
  C   C34       1.0  0.09915142020762424  0.646739536625287  0.14297935233577963  1.0000
  C   C35       1.0  0.11120056019318425  0.7502927946676907  0.2237363848583922  1.0000
  C   C36       1.0  0.18047570058259543  0.8219137371343845  0.22384804417216353  1.0000
  C   C37       1.0  0.2384716309577506  0.7910823639535438  0.14360624901766217  1.0000
  C   C38       1.0  0.2271623800529632  0.688447663701115  0.06305204805900244  1.0000
  C   C39       1.0  0.15796511249074907  0.6166041293977702  0.0625408875812925  1.0000
  I   I1        1.0  0.34291347682851137  0.899287379847294  0.14407816768877613  1.0000
  H   H21       1.0  0.8942698457846069  0.4346957140573682  0.58851613401256  1.0000
  H   H22       1.0  0.0177507419854237  0.5605731047340796  0.3513311370090966  1.0000
  H   H23       1.0  0.01681138265558535  0.5632589003112562  0.9338941657961062  1.0000
  H   H24       1.0  0.832804427551652  0.37078345255435297  0.14178692239905621  1.0000
  H   H25       1.0  0.8943770384696283  0.4343882251482607  0.695605160138236  1.0000
  H   H26       1.0  0.0667080846738708  0.7769313739328267  0.28548384193419807  1.0000
  H   H27       1.0  0.1889514857583776  0.9015669790461402  0.2860971742915863  1.0000
  H   H28       1.0  0.2720312291601812  0.6640619186429861  0.0010433694557594464  1.0000
  H   H29       1.0  0.150822670521632  0.5364681439802466  0.000561732950358218  1.0000
  Zn  Zn1       1.0  0.8367580510571894  0.45831192933065057  0.6353185621371391  1.0000
  Zn  Zn2       1.0  0.0048829319125009985  0.4656452072263866  0.6490417988660335  1.0000
  C   C40       1.0  0.9208461942648941  0.45673992529567964  0.8793797878980345  1.0000
  C   C41       1.0  0.9207966243247487  0.467218930043813  0.404980849809504  1.0000
  C   C42       1.0  0.9207747372500632  0.6991895826938261  0.6369154203664897  1.0000
  C   C43       1.0  0.9208680242728516  0.22476770970882187  0.6474452824883499  1.0000
  O   O2        1.0  0.9846021808940294  0.4717196919324944  0.4585742874803589  1.0000
  O   O3        1.0  0.9846435322697795  0.45780397195835887  0.8362015958920495  1.0000
  O   O4        1.0  0.9845849698677548  0.653585098616414  0.6404098329173926  1.0000
  O   O5        1.0  0.9846606859153152  0.2759385720896619  0.6543659483931741  1.0000
  O   O6        1.0  0.856980239681604  0.648018561966303  0.6299944079200996  1.0000
  O   O7        1.0  0.8570388017775852  0.4522389957440198  0.8257861010575562  1.0000
  O   O8        1.0  0.8569974503116107  0.4661546708889375  0.4481572312529398  1.0000
  O   O9        1.0  0.857055955340864  0.27037354172981054  0.643948989537698  1.0000
