data_image0
_chemical_formula_structural       NC10NC3NH7C16H10C12OCH12Zn2C4O8
_chemical_formula_sum              "N3 C46 H29 O9 Zn2"
_cell_length_a       19.210446455230148
_cell_length_b       10.29914801576943
_cell_length_c       10.299794127170987
_cell_angle_alpha    85.55374609457252
_cell_angle_beta     89.98403246644892
_cell_angle_gamma    89.9607823085547

_space_group_name_H-M_alt    "P 1"
_space_group_IT_number       1

loop_
  _space_group_symop_operation_xyz
  'x, y, z'

loop_
  _atom_site_type_symbol
  _atom_site_label
  _atom_site_symmetry_multiplicity
  _atom_site_fract_x
  _atom_site_fract_y
  _atom_site_fract_z
  _atom_site_occupancy
  N   N1        1.0  0.6557376677467072  0.41989187611017353  0.5668627187007167  1.0000
  C   C1        1.0  0.5955092119652685  0.4220996060787363  0.5670930342594873  1.0000
  C   C2        1.0  0.5207048884060018  0.4248367869020615  0.5673783657254097  1.0000
  C   C3        1.0  0.4850987428469544  0.541079388098171  0.582446159702166  1.0000
  C   C4        1.0  0.4124332722611636  0.5412309213365316  0.5823935086390868  1.0000
  C   C5        1.0  0.3755381627545354  0.4255458259608913  0.5674645808406351  1.0000
  C   C6        1.0  0.2982159791877317  0.4241892160358325  0.5673145009400353  1.0000
  C   C7        1.0  0.2604689927008225  0.5277496271501751  0.5039174230044354  1.0000
  C   C8        1.0  0.1876905792796748  0.5263472702522045  0.5038088757601966  1.0000
  C   C9        1.0  0.1516577548776804  0.4216420157945553  0.5670463164612485  1.0000
  C   C10       1.0  0.0767281824285539  0.42033980738698573  0.566909978921073  1.0000
  N   N2        1.0  0.0164902879820977  0.41929278762499633  0.5668003984293322  1.0000
  C   C11       1.0  0.1886810904918436  0.3182072990109819  0.6304183404599526  1.0000
  C   C12       1.0  0.2614613385828174  0.3193353827459062  0.6305772330031656  1.0000
  C   C13       1.0  0.4137542396194299  0.31112368398654655  0.5526842598152255  1.0000
  N   N3        1.0  0.48452428856048096  0.3135688714624192  0.5528489048286105  1.0000
  H   H1        1.0  0.5132031772456488  0.6305223989334541  0.5944607100309423  1.0000
  H   H2        1.0  0.3851678599070477  0.6312562150545085  0.5958024947772835  1.0000
  H   H3        1.0  0.2872016936929284  0.6089947375572926  0.45289917511506705  1.0000
  H   H4        1.0  0.1595495014921931  0.6067649792650838  0.4541212612770389  1.0000
  H   H5        1.0  0.1613087982514643  0.23682610015231842  0.6800068336912628  1.0000
  H   H6        1.0  0.2889574948186171  0.2390372570888999  0.6817024560500358  1.0000
  H   H7        1.0  0.3874854221767674  0.2202353977823246  0.5392293499657599  1.0000
  C   C14       1.0  0.8360677245706993  0.03819109894365136  0.5669971095234743  1.0000
  C   C15       1.0  0.8201822434227795  0.04777783809171621  0.4335322347088193  1.0000
  C   C16       1.0  0.812179130495312  0.9355086254259726  0.365698105308633  1.0000
  C   C17       1.0  0.8202751903753907  0.8125257521070337  0.43312764763066736  1.0000
  C   C18       1.0  0.836166871061929  0.8009835849287184  0.5666772702297789  1.0000
  C   C19       1.0  0.8439665341510572  0.914332360078936  0.6327896910740431  1.0000
  C   C20       1.0  0.795374379057365  0.9466958446533317  0.22450836363013615  1.0000
  C   C21       1.0  0.8283133994429578  0.8656315009607354  0.1392890429371656  1.0000
  C   C22       1.0  0.812473027966009  0.8762857432909873  0.006406704751028114  1.0000
  C   C23       1.0  0.7635310117588533  0.9679043887716077  0.956939546092805  1.0000
  C   C24       1.0  0.7304651436227506  0.048948888688927994  0.04087500900486485  1.0000
  C   C25       1.0  0.7462558832449915  0.038536000512156665  0.1737783013445946  1.0000
  C   C26       1.0  0.7472490234563846  0.9787491906552889  0.8201247261990923  1.0000
  C   C27       1.0  0.7336130337453365  0.9878316086548612  0.7055442938005236  1.0000
  C   C28       1.0  0.7176454508340976  0.9984669975617626  0.5713717758548911  1.0000
  C   C29       1.0  0.7040117496839987  0.0075480399142056065  0.4568098499424811  1.0000
  H   H8        1.0  0.8421421614288221  0.36197829173523366  0.6183475169155459  1.0000
  H   H9        1.0  0.8149342127672353  0.1428269223958485  0.3816255339169603  1.0000
  H   H10       1.0  0.8132304086405023  0.7256293792118147  0.3817158151915967  1.0000
  H   H11       1.0  0.8562173774580609  0.9062219750045886  0.7357354308348554  1.0000
  H   H12       1.0  0.8657305002190244  0.5718925531758543  0.8189234856135927  1.0000
  H   H13       1.0  0.8669797685476862  0.7951729458825327  0.17513034868799604  1.0000
  H   H14       1.0  0.838519864951292  0.8133010816634594  0.9422304104286705  1.0000
  H   H15       1.0  0.6923525238510971  0.11997048143229727  0.003663780216627277  1.0000
  H   H16       1.0  0.7193976363306729  0.10113197105074123  0.23715198675290705  1.0000
  H   H17       1.0  0.692040262482129  0.01552196211368062  0.3562148190780978  1.0000
  C   C30       1.0  0.8361407655110636  0.41947382343004946  0.1854857873762159  1.0000
  C   C31       1.0  0.7679239369936641  0.37046036182514697  0.18832481823454073  1.0000
  C   C32       1.0  0.7333388017467939  0.34572748249629903  0.07261647005521765  1.0000
  C   C33       1.0  0.7678766423673554  0.3706869258905583  0.9530198397982508  1.0000
  C   C34       1.0  0.8360938607073543  0.4197008943182208  0.9481885468248583  1.0000
  C   C35       1.0  0.8698446407889454  0.44381700370168087  0.06494139111313535  1.0000
  C   C36       1.0  0.6611712534462553  0.2938669176167732  0.0766747033966726  1.0000
  C   C37       1.0  0.6113452246956413  0.3426207738909486  0.9855145828334031  1.0000
  C   C38       1.0  0.543518928057052  0.2937993242695516  0.9895980839454914  1.0000
  C   C39       1.0  0.524532794170274  0.1958888375012915  0.08432913396233688  1.0000
  C   C40       1.0  0.5736719086194044  0.14573140880666102  0.17635254454264349  1.0000
  C   C41       1.0  0.6415929113642949  0.19519230015764544  0.17181738314747297  1.0000
  O   O1        1.0  0.5572744558289768  0.047177602484745895  0.27321837143013616  1.0000
  C   C42       1.0  0.4905430768683925  0.9880099511480401  0.28929196422896  1.0000
  H   H18       1.0  0.8621435539929384  0.4380917232074655  0.5118615760748799  1.0000
  H   H19       1.0  0.7411790066185928  0.35307449882791264  0.2806137717470951  1.0000
  H   H20       1.0  0.7417801198458709  0.3501341099624111  0.8637014569743204  1.0000
  H   H21       1.0  0.922471349415559  0.48162798816109054  0.06198280709066828  1.0000
  H   H22       1.0  0.8620735388863259  0.43843863724453547  0.6188902198593977  1.0000
  H   H23       1.0  0.6245934803857173  0.4196712567773777  0.9121612701745847  1.0000
  H   H24       1.0  0.5054652770444324  0.33226108464517146  0.9192506811112602  1.0000
  H   H25       1.0  0.4716455091862824  0.15993947270730402  0.08518183669815582  1.0000
  H   H26       1.0  0.679339492207887  0.15498088522318332  0.24199180665762232  1.0000
  H   H27       1.0  0.4761894589391939  0.9395740335231239  0.20045423256379924  1.0000
  H   H28       1.0  0.4923220745105201  0.9135250073360789  0.3729947795205182  1.0000
  H   H29       1.0  0.4509063615790819  0.06234025458201686  0.30954473260181126  1.0000
  Zn  Zn1       1.0  0.7598430795098444  0.4197155299995756  0.5668522345919067  1.0000
  Zn  Zn2       1.0  0.9123848582488733  0.4194585534570776  0.5668215222646189  1.0000
  C   C43       1.0  0.8361004812175853  0.41448384179244546  0.8040235783761784  1.0000
  C   C44       1.0  0.8361291224977893  0.42469187765445615  0.32965030491837255  1.0000
  C   C45       1.0  0.836144871509317  0.6567980441691579  0.5615627713012916  1.0000
  C   C46       1.0  0.8360846799471129  0.18237611495120465  0.5721111818935345  1.0000
  O   O2        1.0  0.8940140243129348  0.4263399168393751  0.37802158117255646  1.0000
  O   O3        1.0  0.8939912597845031  0.4126397834409692  0.7556286187582313  1.0000
  O   O4        1.0  0.8940263250545358  0.6083115680581204  0.5598398011856422  1.0000
  O   O5        1.0  0.8939789069979247  0.23066814157193605  0.5738103013815368  1.0000
  O   O6        1.0  0.778248978705771  0.6085059419738226  0.559863455478639  1.0000
  O   O7        1.0  0.7782139136396607  0.4128357177723161  0.7556522031546022  1.0000
  O   O8        1.0  0.7782366783045729  0.42653580544604774  0.37804360425896566  1.0000
  O   O9        1.0  0.7782015609795181  0.23086402091800196  0.5738324218352044  1.0000
