data_image0
_chemical_formula_structural       NC12NC2H8C12ClH9C12NH11Zn2C4O8
_chemical_formula_sum              "N3 C42 H28 Cl1 Zn2 O8"
_cell_length_a       19.240039667572717
_cell_length_b       10.299768534541528
_cell_length_c       10.299774167527174
_cell_angle_alpha    85.57901690489705
_cell_angle_beta     89.99323073403258
_cell_angle_gamma    90.01670575511149

_space_group_name_H-M_alt    "P 1"
_space_group_IT_number       1

loop_
  _space_group_symop_operation_xyz
  'x, y, z'

loop_
  _atom_site_type_symbol
  _atom_site_label
  _atom_site_symmetry_multiplicity
  _atom_site_fract_x
  _atom_site_fract_y
  _atom_site_fract_z
  _atom_site_occupancy
  N   N1        1.0  0.6547894893251919  0.4208428985420698  0.5675980734579882  1.0000
  C   C1        1.0  0.5946411205261969  0.42084298249864105  0.5675979915296443  1.0000
  C   C2        1.0  0.5198230834120168  0.42084309974321554  0.5675978542379903  1.0000
  C   C3        1.0  0.48333277273386815  0.35640851360657155  0.6710014153170736  1.0000
  C   C4        1.0  0.4106620018580138  0.35629765860705476  0.6710879470901117  1.0000
  C   C5        1.0  0.3734908485035213  0.42084319224126476  0.5675976265719656  1.0000
  C   C6        1.0  0.41069537355313424  0.48538891291650144  0.46410750059695527  1.0000
  C   C7        1.0  0.4833660391965039  0.4852778224554777  0.46419415485100535  1.0000
  C   C8        1.0  0.2962857580576462  0.42084311355315296  0.5675975311559418  1.0000
  C   C9        1.0  0.2590776251200347  0.3075956246300662  0.6094594351158249  1.0000
  C   C10       1.0  0.18640695919229  0.3077024972589373  0.6093681203263508  1.0000
  C   C11       1.0  0.1499534711104384  0.4208429843992578  0.5675975920555703  1.0000
  C   C12       1.0  0.0751354339220189  0.4208428707297327  0.5675978406982565  1.0000
  N   N2        1.0  0.014987117050377  0.42084282996709876  0.5675980491057695  1.0000
  C   C13       1.0  0.1864474939003772  0.5339835473510797  0.5258270109010581  1.0000
  C   C14       1.0  0.2591182126130359  0.5340906000518917  0.5257355335353513  1.0000
  H   H1        1.0  0.5110347462821391  0.3065220520838583  0.7517360042246766  1.0000
  H   H2        1.0  0.38355585675353393  0.30720959777820656  0.7529380419642961  1.0000
  H   H3        1.0  0.38361498787692133  0.5344770007827522  0.3822573548782804  1.0000
  H   H4        1.0  0.5110938370782373  0.5351641837967165  0.38345984172031966  1.0000
  H   H5        1.0  0.2861550147136705  0.21845017366574782  0.6406201685736048  1.0000
  H   H6        1.0  0.1586763066960044  0.21945651699786994  0.6415618296110492  1.0000
  H   H7        1.0  0.1587483229441237  0.6222295030797576  0.4936333161646336  1.0000
  H   H8        1.0  0.28622730185179746  0.6232361301790446  0.49457475531291295  1.0000
  C   C15       1.0  0.8348260884565641  0.039477480677321486  0.5675959225170539  1.0000
  C   C16       1.0  0.8394121587945298  0.049003397346366384  0.4311333365109351  1.0000
  C   C17       1.0  0.8418027739937087  0.9366908900129794  0.361994047401891  1.0000
  C   C18       1.0  0.8395449015579716  0.8137156843926464  0.43114882572343416  1.0000
  C   C19       1.0  0.8349571961885806  0.8021982386682046  0.5676113496830195  1.0000
  C   C20       1.0  0.8326239928839811  0.9156360282609024  0.6350707070201334  1.0000
  C   C21       1.0  0.8466553782112644  0.9478221835380237  0.21762800748442301  1.0000
  C   C22       1.0  0.8071200320999747  0.04134056077254278  0.14316767123013796  1.0000
  C   C23       1.0  0.811749367015581  0.05162185887417947  0.007294236137997068  1.0000
  C   C24       1.0  0.8558470352121033  0.9689064213529869  0.9441893581017222  1.0000
  C   C25       1.0  0.8953710857109203  0.8756998480261445  0.017138544059609018  1.0000
  C   C26       1.0  0.8908651758128545  0.8650263029358582  0.15302662171286951  1.0000
  Cl  Cl1       1.0  0.8615777825305561  0.9820518803796113  0.7737122811275028  1.0000
  H   H9        1.0  0.8330429086387845  0.36330138685874225  0.6195916323707245  1.0000
  H   H10       1.0  0.8420950485968093  0.14400039382141316  0.3784031967422403  1.0000
  H   H11       1.0  0.8404140051116928  0.7268664633632784  0.37820514091923063  1.0000
  H   H12       1.0  0.8290853468376533  0.9075190333392478  0.7403453103656248  1.0000
  H   H13       1.0  0.8332367384651385  0.47035580826960466  0.6196148601450433  1.0000
  H   H14       1.0  0.7719758323792193  0.10533011139256776  0.189908972133503  1.0000
  H   H15       1.0  0.780894212128616  0.12371942480719511  0.9511850895020215  1.0000
  H   H16       1.0  0.929740277773678  0.8116631899340869  0.9687078438276719  1.0000
  H   H17       1.0  0.9226023757018117  0.7932216103577664  0.20764153247130301  1.0000
  C   C27       1.0  0.8349152663890215  0.42072336173208846  0.18625156565642675  1.0000
  C   C28       1.0  0.7668376602139709  0.371421928330131  0.18907134158395777  1.0000
  C   C29       1.0  0.7323178832968792  0.3465563184366074  0.07335232742920406  1.0000
  C   C30       1.0  0.7667899511692498  0.37165322738176076  0.9537666352462528  1.0000
  C   C31       1.0  0.8348679990689456  0.42095243430571605  0.948955714911639  1.0000
  C   C32       1.0  0.8685493264971081  0.4452119340824887  0.06571737018175905  1.0000
  C   C33       1.0  0.660295721623351  0.29439882601281653  0.07738883559494636  1.0000
  C   C34       1.0  0.6407457585209337  0.19594581607874262  0.1726855817103654  1.0000
  C   C35       1.0  0.5729552814094452  0.1469107077964309  0.17635103988437284  1.0000
  C   C36       1.0  0.5236423958231176  0.19543597168364446  0.0850474318574106  1.0000
  C   C37       1.0  0.5427336516683755  0.2934988243743015  0.9899100425933094  1.0000
  C   C38       1.0  0.6105032762882883  0.3426351936320611  0.985978306374288  1.0000
  N   N3        1.0  0.4543084602807406  0.1452248222824335  0.08893306661209865  1.0000
  H   H18       1.0  0.8608677622262787  0.4394557994343391  0.5126347014898491  1.0000
  H   H19       1.0  0.7401509555351138  0.3539189426292557  0.2813566747501528  1.0000
  H   H20       1.0  0.7407572214129529  0.3509778623990498  0.8644358051112797  1.0000
  H   H21       1.0  0.9210682160556409  0.48324483329595447  0.06277405573922734  1.0000
  H   H22       1.0  0.8607983985190212  0.4397927464715541  0.619664930756131  1.0000
  H   H23       1.0  0.6781256201517329  0.15567797656344928  0.24333457787607427  1.0000
  H   H24       1.0  0.5589217562188159  0.0708647238193183  0.2501678479182732  1.0000
  H   H25       1.0  0.5050633579596148  0.33210136812127855  0.9189909595801877  1.0000
  H   H26       1.0  0.623724444795572  0.41954766496922735  0.9124935338945637  1.0000
  H   H27       1.0  0.4171857948137974  0.1807809402867322  0.021269253385735265  1.0000
  H   H28       1.0  0.4395872685432175  0.07212408353990685  0.15950279955540503  1.0000
  Zn  Zn1       1.0  0.7587347521012712  0.4208394138313454  0.5676055544556717  1.0000
  Zn  Zn2       1.0  0.9110418705678728  0.42083572447818396  0.56760116632551  1.0000
  C   C39       1.0  0.8348745025372581  0.4157354770941408  0.8047882242379314  1.0000
  C   C40       1.0  0.8349037835946385  0.4259412998178247  0.330418623989402  1.0000
  C   C41       1.0  0.8349291513914611  0.6580262612251098  0.5624335272034657  1.0000
  C   C42       1.0  0.8348490824961812  0.18364895542073856  0.5727733902292889  1.0000
  O   O1        1.0  0.8926996865929538  0.42768542172646873  0.37880074036082645  1.0000
  O   O2        1.0  0.8926761781630275  0.4139875752260991  0.7564024035278285  1.0000
  O   O3        1.0  0.8927195285518822  0.609640448021411  0.5606992710226497  1.0000
  O   O4        1.0  0.8926562842396265  0.23203255819331203  0.5745037754973188  1.0000
  O   O5        1.0  0.7771202864545734  0.6096425801188878  0.5607029452785299  1.0000
  O   O6        1.0  0.7770769363350294  0.4139912675923636  0.7564060085729547  1.0000
  O   O7        1.0  0.7771004449001389  0.42768906836831766  0.37880278407321843  1.0000
  O   O8        1.0  0.7770570425363402  0.23203619557567667  0.5745059165730639  1.0000
