data_image0
_chemical_formula_structural       NC11NC3H8C12NH11C13NH9Zn2C4O8
_chemical_formula_sum              "N4 C43 H28 Zn2 O8"
_cell_length_a       17.807433833752565
_cell_length_b       10.299770795358612
_cell_length_c       10.298528502251457
_cell_angle_alpha    85.53666946162151
_cell_angle_beta     88.52196449538943
_cell_angle_gamma    90.70213480944165

_space_group_name_H-M_alt    "P 1"
_space_group_IT_number       1

loop_
  _space_group_symop_operation_xyz
  'x, y, z'

loop_
  _atom_site_type_symbol
  _atom_site_label
  _atom_site_symmetry_multiplicity
  _atom_site_fract_x
  _atom_site_fract_y
  _atom_site_fract_z
  _atom_site_occupancy
  N   N1        1.0  0.7077090409596227  0.43896805265069005  0.5343577327834941  1.0000
  C   C1        1.0  0.6568815864848202  0.4042190242194008  0.6009310017059821  1.0000
  C   C2        1.0  0.5936471082313421  0.3609940981677666  0.6837396526959583  1.0000
  C   C3        1.0  0.6053596019502832  0.2974027659207512  0.8064781638143244  1.0000
  C   C4        1.0  0.5440328779129742  0.2558583805324939  0.8870024702468562  1.0000
  C   C5        1.0  0.4708392394756645  0.27759184414012994  0.8454291645731591  1.0000
  C   C6        1.0  0.458149992324245  0.34133788195388504  0.7222303880607968  1.0000
  C   C7        1.0  0.38038844663286664  0.36440239647955197  0.6778759857649646  1.0000
  C   C8        1.0  0.36160531407026203  0.34757350912790774  0.5482814420827755  1.0000
  C   C9        1.0  0.2883817273658741  0.36926825946993014  0.5066640628220356  1.0000
  C   C10       1.0  0.23299827828073094  0.4081106992940111  0.5938208277946098  1.0000
  C   C11       1.0  0.1576381242502568  0.43046437050903186  0.55084193537925  1.0000
  N   N2        1.0  0.09705393347179682  0.4484350614931356  0.5162900338753986  1.0000
  C   C12       1.0  0.2510898991902957  0.4251503414198434  0.7228841558960113  1.0000
  C   C13       1.0  0.3242607111051766  0.40342057561801026  0.7647569981277378  1.0000
  C   C14       1.0  0.5203340269920527  0.3828776969171235  0.6417224998132907  1.0000
  H   H1        1.0  0.661821387207454  0.2799771229397876  0.8398491746600638  1.0000
  H   H2        1.0  0.553219600766692  0.20637440106302618  0.9817541448406175  1.0000
  H   H3        1.0  0.4241921023940032  0.24301458795469344  0.9088787595333712  1.0000
  H   H4        1.0  0.4032798452498118  0.3159546795354813  0.4795593076750657  1.0000
  H   H5        1.0  0.27494043657865574  0.3554210042966832  0.40661866531334545  1.0000
  H   H6        1.0  0.2086983796572559  0.45554631737068263  0.7910915621518395  1.0000
  H   H7        1.0  0.3371738505985867  0.4188133000080305  0.8646194900684538  1.0000
  H   H8        1.0  0.5118460188749322  0.43372394957038796  0.5472050555281729  1.0000
  C   C15       1.0  0.9023169976612186  0.06233143495146609  0.5253664498185346  1.0000
  C   C16       1.0  0.8805156488562009  0.07102173232543074  0.39495132473937034  1.0000
  C   C17       1.0  0.8695376426452005  0.9582907044088744  0.32883065535641864  1.0000
  C   C18       1.0  0.8806531584366182  0.8357434860235874  0.3948763821229162  1.0000
  C   C19       1.0  0.9024531476897886  0.8250618635894335  0.5252921209089365  1.0000
  C   C20       1.0  0.9131633523834373  0.9389078961515622  0.5898067021704378  1.0000
  C   C21       1.0  0.8464734098799271  0.9685379478067617  0.19085900719374926  1.0000
  C   C22       1.0  0.7917711038206869  0.05840126526048217  0.1482046873250975  1.0000
  C   C23       1.0  0.7700952608929046  0.0679175290757521  0.018343216207241664  1.0000
  C   C24       1.0  0.8027115216345415  0.9879806597309172  0.9290747017846246  1.0000
  C   C25       1.0  0.8572335754859819  0.8983113468997841  0.9708467162304775  1.0000
  C   C26       1.0  0.8789696012113739  0.888540530964484  0.10067541777329247  1.0000
  N   N3        1.0  0.7805079338191054  0.9978451713016778  0.7962528424539586  1.0000
  H   H9        1.0  0.9105923697902337  0.3864715048368337  0.5750792759415315  1.0000
  H   H10       1.0  0.8730172727944501  0.16576235316007804  0.34394063072936554  1.0000
  H   H11       1.0  0.8712689416124227  0.7485036823862674  0.3448934222229356  1.0000
  H   H12       1.0  0.9299815343952199  0.931435675276887  0.6904162230307578  1.0000
  H   H13       1.0  0.9107926172570865  0.49354002874421743  0.5749703471866339  1.0000
  H   H14       1.0  0.7650448268573298  0.1201397612423809  0.2156564378645276  1.0000
  H   H15       1.0  0.7277404454042428  0.13738013267445792  0.9873930294376128  1.0000
  H   H16       1.0  0.8830307720666694  0.836204942102841  0.9027487208885803  1.0000
  H   H17       1.0  0.9219003888971469  0.8196026983616055  0.1301591537495086  1.0000
  H   H18       1.0  0.8045019197842983  0.9386559978373434  0.7289915050231901  1.0000
  H   H19       1.0  0.7399115728121164  0.06441086432420473  0.7641977579499097  1.0000
  C   C27       1.0  0.9023957772640883  0.4438233789633417  0.1439119262835442  1.0000
  C   C28       1.0  0.8242968474874407  0.4617862978345282  0.14504428205967757  1.0000
  C   C29       1.0  0.784731215194365  0.4707482098690141  0.028471219232922618  1.0000
  C   C30       1.0  0.8242743739130296  0.461520892475217  0.9097856449399511  1.0000
  C   C31       1.0  0.9023743750296662  0.44356987927667957  0.9067466614467943  1.0000
  C   C32       1.0  0.9409349774329254  0.4348333100874171  0.024299831742366607  1.0000
  C   C33       1.0  0.7021649370381859  0.48973290505013645  0.030676019338856886  1.0000
  C   C34       1.0  0.6690108418992078  0.5768576418745939  0.11312276594301562  1.0000
  C   C35       1.0  0.5912912805768268  0.594680895540656  0.11507866645097264  1.0000
  C   C36       1.0  0.5456916888423019  0.5257137092399795  0.03485173181679313  1.0000
  C   C37       1.0  0.5781043453780831  0.43880727809727693  0.9525433782570039  1.0000
  C   C38       1.0  0.655815870518217  0.4208894645785497  0.9503512488470669  1.0000
  C   C39       1.0  0.4656793283107729  0.5441134623065687  0.03698599277932657  1.0000
  N   N4        1.0  0.4013547858169885  0.5589057460349869  0.03870182969146674  1.0000
  H   H20       1.0  0.04990974900621281  0.4090706440158285  0.34916251838796764  1.0000
  H   H21       1.0  0.7939574494159408  0.46705640266211335  0.2369672851542881  1.0000
  H   H22       1.0  0.7942181636175208  0.47013726661167055  0.8194756214895378  1.0000
  H   H23       1.0  0.0011273330963952333  0.42099365409801504  0.022692223729568584  1.0000
  H   H24       1.0  0.050027457755578375  0.4104633063160581  0.6936127112644739  1.0000
  H   H25       1.0  0.7032888611462582  0.6324592975645882  0.1748302195117617  1.0000
  H   H26       1.0  0.5668120333689618  0.6624758594746851  0.17891558834887045  1.0000
  H   H27       1.0  0.5433073352136707  0.3846431617550907  0.8902881508108571  1.0000
  H   H28       1.0  0.6795572900733876  0.35194637449592037  0.8870954469806742  1.0000
  Zn  Zn1       1.0  0.8200655655945488  0.44169654976622863  0.5291512709708421  1.0000
  Zn  Zn2       1.0  0.9846973918835112  0.44569594123200784  0.5215070840812124  1.0000
  C   C40       1.0  0.9023758186551609  0.43844408526380874  0.7625551684725376  1.0000
  C   C41       1.0  0.9023889368862581  0.4489500879904116  0.2881032304283013  1.0000
  C   C42       1.0  0.9024236951423458  0.6808911958239068  0.5201305593014056  1.0000
  C   C43       1.0  0.9023410039412633  0.20650141573474712  0.5305279116072454  1.0000
  O   O1        1.0  0.9648635602722595  0.45218274083068644  0.3335942207682927  1.0000
  O   O2        1.0  0.9648529419369251  0.4382458984048674  0.7112620433596291  1.0000
  O   O3        1.0  0.9648907605491472  0.6340249854356228  0.5155024952345784  1.0000
  O   O4        1.0  0.9648256854867382  0.2564036617578216  0.5293536741138387  1.0000
  O   O5        1.0  0.8399372158105597  0.6309888278770348  0.52130468353997  1.0000
  O   O6        1.0  0.8398993974753857  0.43521130117846485  0.717064162258962  1.0000
  O   O7        1.0  0.839910015896423  0.4491480988682537  0.33939477807058904  1.0000
  O   O8        1.0  0.839872141103439  0.253369010474118  0.5351543287973937  1.0000
