data_image0
_chemical_formula_structural       NC10NC5H10C16H10C12ClH9Zn2C4O8
_chemical_formula_sum              "N2 C47 H29 Cl1 Zn2 O8"
_cell_length_a       19.4436361288709
_cell_length_b       10.29914801576943
_cell_length_c       10.299771906710086
_cell_angle_alpha    85.52082016499398
_cell_angle_beta     89.71369758328774
_cell_angle_gamma    89.43179634642199

_space_group_name_H-M_alt    "P 1"
_space_group_IT_number       1

loop_
  _space_group_symop_operation_xyz
  'x, y, z'

loop_
  _atom_site_type_symbol
  _atom_site_label
  _atom_site_symmetry_multiplicity
  _atom_site_fract_x
  _atom_site_fract_y
  _atom_site_fract_z
  _atom_site_occupancy
  N   N1        1.0  0.6477007538829376  0.4098396207734174  0.5615380230714895  1.0000
  C   C1        1.0  0.588868149429117  0.4197355695131746  0.5759181518840042  1.0000
  C   C2        1.0  0.515543027390838  0.4320771191160937  0.5939056726996392  1.0000
  C   C3        1.0  0.47334151150487963  0.4001219744315807  0.4992442442198697  1.0000
  C   C4        1.0  0.39743890711478397  0.4105585870829447  0.504568244933435  1.0000
  C   C5        1.0  0.35771190165885197  0.38575868679866177  0.6116506374283215  1.0000
  C   C6        1.0  0.28158998459870355  0.3896816717378735  0.5986896918061719  1.0000
  C   C7        1.0  0.2410476383433623  0.4473036430042321  0.6924380105901897  1.0000
  C   C8        1.0  0.1693831826244505  0.4509466111054359  0.6818926585443019  1.0000
  C   C9        1.0  0.137266309346946  0.39657143161285546  0.5778856701995001  1.0000
  C   C10       1.0  0.0634725943382873  0.40027572037515524  0.5671850117764075  1.0000
  N   N2        1.0  0.0041474526171509  0.4032537740933966  0.558582391825281  1.0000
  C   C11       1.0  0.1770837317157678  0.3382421354242049  0.48452086428499497  1.0000
  C   C12       1.0  0.248764573802801  0.3345450568803716  0.4948144595180277  1.0000
  C   C13       1.0  0.3858583929319179  0.3452334396779393  0.7427614415424646  1.0000
  C   C14       1.0  0.4445340591454601  0.3883365689745293  0.7899871668732956  1.0000
  C   C15       1.0  0.48874299768545837  0.4862371689205871  0.7155812264967887  1.0000
  H   H1        1.0  0.49542405797712696  0.37104486657157665  0.40894860610882144  1.0000
  H   H2        1.0  0.37272999864166256  0.4330985872209896  0.4114008535160645  1.0000
  H   H3        1.0  0.2649349652647819  0.49056006642100614  0.773269582949281  1.0000
  H   H4        1.0  0.1390543648851675  0.4962306276195829  0.7547959532425532  1.0000
  H   H5        1.0  0.1527245941307331  0.2951812281901005  0.40402369909632796  1.0000
  H   H6        1.0  0.2784275964290818  0.28701715096415104  0.4226083780917689  1.0000
  H   H7        1.0  0.3548941148743354  0.2809813197316102  0.8070336579668107  1.0000
  H   H8        1.0  0.4596937149015137  0.3542208679877048  0.8879351879037523  1.0000
  H   H9        1.0  0.4586416417302756  0.57697029188349  0.690293730503281  1.0000
  H   H10       1.0  0.532040242724495  0.5117956271531932  0.7786563429269908  1.0000
  C   C16       1.0  0.8258784299333737  0.02514612351949208  0.5602261595857987  1.0000
  C   C17       1.0  0.8101629902075947  0.035073779107662295  0.4268825754629084  1.0000
  C   C18       1.0  0.8022454570807686  0.9229766645663674  0.35910952514718475  1.0000
  C   C19       1.0  0.8102547684426009  0.7998203849361889  0.42647722441514846  1.0000
  C   C20       1.0  0.8259763461340179  0.7879371493557032  0.5599055104827737  1.0000
  C   C21       1.0  0.833692605375137  0.9011181997675252  0.6259584050794507  1.0000
  C   C22       1.0  0.7856205869095377  0.9345245294212885  0.21804809301484962  1.0000
  C   C23       1.0  0.8181539574496938  0.8529629023797024  0.1325606962952246  1.0000
  C   C24       1.0  0.802483174370711  0.8639569751846615  0.9997993136953078  1.0000
  C   C25       1.0  0.754118072986167  0.9564164780989977  0.9507224082883234  1.0000
  C   C26       1.0  0.7214591805228042  0.037961109947324934  0.03492690576092761  1.0000
  C   C27       1.0  0.7370809272195313  0.027209202819546974  0.16770964152520063  1.0000
  C   C28       1.0  0.7380103676700942  0.9676107165964329  0.8140319056918925  1.0000
  C   C29       1.0  0.7245203381556561  0.9769857837014511  0.6995555877129798  1.0000
  C   C30       1.0  0.7087236728837734  0.9879638613616759  0.5655049865147128  1.0000
  C   C31       1.0  0.6952359073273209  0.9973375041227371  0.45104715751503477  1.0000
  H   H11       1.0  0.8318878909446049  0.348802771187841  0.611530201143845  1.0000
  H   H12       1.0  0.8049699899491435  0.1302400161827475  0.3750155871903318  1.0000
  H   H13       1.0  0.8032865354834346  0.7130706959590204  0.3751195372351863  1.0000
  H   H14       1.0  0.8458123157962045  0.8927448903855362  0.7288106065848972  1.0000
  H   H15       1.0  0.8552240863300622  0.5582094196273353  0.8119261750238325  1.0000
  H   H16       1.0  0.8563640632131774  0.7818419088331403  0.1680935362501521  1.0000
  H   H17       1.0  0.8282097107976922  0.8005772221982255  0.9354111828387874  1.0000
  H   H18       1.0  0.683796013767733  0.10963674482872454  0.9980196389218974  1.0000
  H   H19       1.0  0.7105525481038  0.09021419515787166  0.23130163428001316  1.0000
  H   H20       1.0  0.683392563261269  0.005568353290089201  0.3505435321004242  1.0000
  C   C32       1.0  0.8258946693644696  0.4066485737838892  0.17869678026473146  1.0000
  C   C33       1.0  0.8882879396131352  0.4743847185262655  0.17182284909671997  1.0000
  C   C34       1.0  0.9199366428410135  0.5085983852102711  0.051209202750849725  1.0000
  C   C35       1.0  0.8883542588187727  0.47416831226275713  0.9365526131495137  1.0000
  C   C36       1.0  0.825960104585887  0.4064347439661786  0.9414348946131508  1.0000
  C   C37       1.0  0.7950800307897201  0.3730533464471828  0.06297194036396037  1.0000
  C   C38       1.0  0.9859439767475167  0.5802561737869301  0.04499090101403169  1.0000
  C   C39       1.0  0.9968274690246005  0.6830691877200372  0.12465956213750595  1.0000
  C   C40       1.0  0.05898609634620766  0.7504140146488474  0.118619166406978  1.0000
  C   C41       1.0  0.11096658735949672  0.7159798785457734  0.033214124505806186  1.0000
  C   C42       1.0  0.10073981247096175  0.6140142725521178  0.9536684527541901  1.0000
  C   C43       1.0  0.03864280782343288  0.5464679677776576  0.9593327902995354  1.0000
  Cl  Cl1       1.0  0.18891275903325022  0.8005974513136516  0.025872118904990415  1.0000
  H   H21       1.0  0.8021015706965035  0.3808953563700348  0.508765156909782  1.0000
  H   H22       1.0  0.9128989262970294  0.49913170477645896  0.26058901697467274  1.0000
  H   H23       1.0  0.9120596341845426  0.5018738654448684  0.8432346853130697  1.0000
  H   H24       1.0  0.7469460769885324  0.3207991565037249  0.06750666234592329  1.0000
  H   H25       1.0  0.8021981634449407  0.38057897263787344  0.6158453031329376  1.0000
  H   H26       1.0  0.9569587748891215  0.712461444201703  0.1903520664872631  1.0000
  H   H27       1.0  0.06660130026748035  0.8295541754692299  0.18015639536862937  1.0000
  H   H28       1.0  0.14092265557176664  0.5867635457950018  0.8876288680045361  1.0000
  H   H29       1.0  0.032169119692657455  0.4667663908994528  0.8980058577350709  1.0000
  Zn  Zn1       1.0  0.7505635729309755  0.40793561392031097  0.5606926053401926  1.0000
  Zn  Zn2       1.0  0.9012846246388672  0.40514716938971107  0.5594384951997711  1.0000
  C   C44       1.0  0.8259455437680173  0.40130105780429304  0.7972632203977932  1.0000
  C   C45       1.0  0.8259042998923356  0.41178333377560516  0.3228679932248888  1.0000
  C   C46       1.0  0.825953859378311  0.6437549355561427  0.5547909537729301  1.0000
  C   C47       1.0  0.8258959326571016  0.1693278965239915  0.565340330172349  1.0000
  O   O1        1.0  0.8831053848918459  0.4124427397573496  0.37077724343424046  1.0000
  O   O2        1.0  0.8831382494091953  0.39852430724518717  0.7484017561757446  1.0000
  O   O3        1.0  0.8831441934311125  0.594308893664002  0.5526036911927514  1.0000
  O   O4        1.0  0.8830993894318812  0.21665816360833623  0.5665752114665701  1.0000
  O   O5        1.0  0.7687487567042631  0.5964246206546611  0.5535558894945278  1.0000
  O   O6        1.0  0.7687428128735878  0.40064159468858485  0.7493538845760586  1.0000
  O   O7        1.0  0.768709948262201  0.4145599823779822  0.37172781045199765  1.0000
  O   O8        1.0  0.7687039528065855  0.2187753969121422  0.5675258758561255  1.0000
