data_image0
_chemical_formula_structural       NC8NC6H8C12SCH12C12NCOCH13Zn2C4O8
_chemical_formula_sum              "N3 C45 H33 S1 O9 Zn2"
_cell_length_a       17.457602349358154
_cell_length_b       10.299776766347529
_cell_length_c       10.299158637457994
_cell_angle_alpha    85.5824420436923
_cell_angle_beta     92.85709877509845
_cell_angle_gamma    91.66964631390691

_space_group_name_H-M_alt    "P 1"
_space_group_IT_number       1

loop_
  _space_group_symop_operation_xyz
  'x, y, z'

loop_
  _atom_site_type_symbol
  _atom_site_label
  _atom_site_symmetry_multiplicity
  _atom_site_fract_x
  _atom_site_fract_y
  _atom_site_fract_z
  _atom_site_occupancy
  N   N1        1.0  0.7224084949802185  0.45231465511444235  0.6265155013744164  1.0000
  C   C1        1.0  0.6613412763838393  0.40638681960670553  0.615899657006981  1.0000
  C   C2        1.0  0.5853710705327784  0.3492583098298516  0.6027030885606768  1.0000
  C   C3        1.0  0.5268206941080795  0.389445510433748  0.6776006480459273  1.0000
  C   C4        1.0  0.45228805327175103  0.3344354280293451  0.6650185227708183  1.0000
  C   C5        1.0  0.3901455208452288  0.37686727691271993  0.7443378784356256  1.0000
  C   C6        1.0  0.3156058733890394  0.3953156381535601  0.688574622139621  1.0000
  C   C7        1.0  0.2570555086460193  0.4353189556674828  0.7635801343115829  1.0000
  C   C8        1.0  0.18107800888192763  0.45437237685510024  0.7056014266838138  1.0000
  N   N2        1.0  0.12000501676059781  0.46968494800029226  0.6589866967766376  1.0000
  C   C9        1.0  0.2725524866030957  0.45711722621481754  0.8948574194690584  1.0000
  C   C10       1.0  0.3463072831410177  0.43905797843712735  0.9510082738813068  1.0000
  C   C11       1.0  0.4048459224614488  0.3992348717137266  0.8764604820692243  1.0000
  C   C12       1.0  0.43759483351329587  0.23856023849252983  0.5761059209066446  1.0000
  C   C13       1.0  0.4961333634679411  0.19865185168730748  0.501608364321201  1.0000
  C   C14       1.0  0.5698811135821661  0.2537745002104974  0.5147404378982845  1.0000
  H   H1        1.0  0.5391379005691853  0.46466143823326145  0.7442313878257727  1.0000
  H   H2        1.0  0.3032829587151361  0.38030987757558  0.5865504397331671  1.0000
  H   H3        1.0  0.227674557241485  0.48801992185940124  0.9536931596391174  1.0000
  H   H4        1.0  0.35811626172534766  0.4556212306579741  0.05265920234133881  1.0000
  H   H5        1.0  0.4613256828032407  0.3842596232066666  0.9225667259063568  1.0000
  H   H6        1.0  0.3811207878983132  0.1932220441906547  0.5654539617822374  1.0000
  H   H7        1.0  0.4843299810757405  0.12455193744915705  0.4337793112149322  1.0000
  H   H8        1.0  0.6147591554074477  0.22200230721136416  0.4564158179741571  1.0000
  C   C15       1.0  0.9212827596913356  0.07963796842845938  0.6427557121757799  1.0000
  C   C16       1.0  0.9258671122815008  0.06832509268341047  0.7796446942115189  1.0000
  C   C17       1.0  0.9281161752383403  0.9454509223747232  0.8490067571471609  1.0000
  C   C18       1.0  0.9257204120118117  0.8330309126419602  0.7796479037957023  1.0000
  C   C19       1.0  0.9211381085403736  0.8423519301317344  0.642758339722965  1.0000
  C   C20       1.0  0.9189445013728705  0.9660956802080809  0.5750784782062042  1.0000
  C   C21       1.0  0.9329574483686975  0.9345467130621232  0.993819164352522  1.0000
  C   C22       1.0  0.8890357394586514  0.8391937907267781  0.06427519840693463  1.0000
  C   C23       1.0  0.893614985697175  0.829167115007436  0.2005591713104833  1.0000
  C   C24       1.0  0.941924318632301  0.9142070649661213  0.2681781420489876  1.0000
  C   C25       1.0  0.9860288496014192  0.008994676591036699  0.19911011060117878  1.0000
  C   C26       1.0  0.9815621007687584  0.01937615217038502  0.06282491016001845  1.0000
  S   S1        1.0  0.9478847227862701  0.9008846189431151  0.4430561386698252  1.0000
  C   C27       1.0  0.8707884985740006  0.01358520226197757  0.456288602631612  1.0000
  H   H9        1.0  0.9195660957088551  0.41140348819764183  0.5905972610781194  1.0000
  H   H10       1.0  0.9266412890731723  0.15520885194811762  0.8326665190313163  1.0000
  H   H11       1.0  0.9284949965806997  0.7381571885610012  0.8326369619796108  1.0000
  H   H12       1.0  0.9154083928129667  0.9740546174557433  0.4694744919020539  1.0000
  H   H13       1.0  0.919353740005504  0.5184482195207507  0.5905990250692172  1.0000
  H   H14       1.0  0.8504246060344567  0.7735260864068606  0.014007510715572602  1.0000
  H   H15       1.0  0.859304170298403  0.7556257064915176  0.2534788293980279  1.0000
  H   H16       1.0  0.023823167764660758  0.07468313739658372  0.2509000325827937  1.0000
  H   H17       1.0  0.01684093263073816  0.09259140420166556  0.011397358574094518  1.0000
  H   H18       1.0  0.8861558286065363  0.110568865643345  0.408665728258654  1.0000
  H   H19       1.0  0.8618788875911713  0.023912857024823264  0.5608407747449824  1.0000
  H   H20       1.0  0.8168119128980519  0.9756795544392111  0.4097581035324628  1.0000
  C   C28       1.0  0.9212823746527762  0.4608601291706176  0.2613897952559834  1.0000
  C   C29       1.0  0.9230389649150139  0.597638775469419  0.25022229379019634  1.0000
  C   C30       1.0  0.9238693407218189  0.6671246657115852  0.12739766667200247  1.0000
  C   C31       1.0  0.9228920325207872  0.5979922224485206  0.014898822229903574  1.0000
  C   C32       1.0  0.9211384697796928  0.4611298003601856  0.024124263211629193  1.0000
  C   C33       1.0  0.9203477926470953  0.3934054359360848  0.14775881169440597  1.0000
  C   C34       1.0  0.9257285170597863  0.8118197296356762  0.1165574341148723  1.0000
  C   C35       1.0  0.9728036205482843  0.8817095842540832  0.20297066168403766  1.0000
  C   C36       1.0  0.9745594559261822  0.017875543789389603  0.19263908449463707  1.0000
  C   C37       1.0  0.9297615255845901  0.0869030685252552  0.09483228106326047  1.0000
  C   C38       1.0  0.8817727195089321  0.017333680376895977  0.010127518771326338  1.0000
  C   C39       1.0  0.88004837600421  0.8811970058350806  0.020200681531701292  1.0000
  N   N3        1.0  0.9294419830694637  0.2269336929779322  0.08357345336771727  1.0000
  C   C40       1.0  0.995157361816092  0.3087917826663533  0.112173402636778  1.0000
  O   O1        1.0  0.061312751101637364  0.26226981188809306  0.12609142730560796  1.0000
  C   C41       1.0  0.9861308569184806  0.45221115409955104  0.11604149780291717  1.0000
  H   H21       1.0  0.920630750942455  0.4082483994650983  0.5931630303070032  1.0000
  H   H22       1.0  0.9226935760968108  0.650440409395622  0.3371459396882681  1.0000
  H   H23       1.0  0.9245452156233783  0.6510775235557114  0.9200632291430613  1.0000
  H   H24       1.0  0.9189955198047692  0.2879049851653297  0.1556578838300431  1.0000
  H   H25       1.0  0.9182944635109502  0.2028141088813029  0.834282621197584  1.0000
  H   H26       1.0  0.008720247080681531  0.8310521908900332  0.2780954790560428  1.0000
  H   H27       1.0  0.009951739880707411  0.0687608572099716  0.26256197584498975  1.0000
  H   H28       1.0  0.8458777711251649  0.06886701946117446  0.9355737789362264  1.0000
  H   H29       1.0  0.8421427041674812  0.8301551076081184  0.9537567660380484  1.0000
  H   H30       1.0  0.8797015079581222  0.2722151501320451  0.044565376364520404  1.0000
  H   H31       1.0  0.9321812584868778  0.4715686609890364  0.16305371629853194  1.0000
  H   H32       1.0  0.9840593455406274  0.49878753174544244  0.015154406956057187  1.0000
  H   H33       1.0  0.035068268368127375  0.4951163755187351  0.17269368426747955  1.0000
  Zn  Zn1       1.0  0.8371462618866012  0.4573238664340993  0.635893485374357  1.0000
  Zn  Zn2       1.0  0.005267235617953281  0.4646650928133442  0.6496193452205237  1.0000
  C   C42       1.0  0.9211649384117272  0.4559051474774267  0.8799509338059903  1.0000
  C   C43       1.0  0.9212503946337656  0.4660855305708098  0.40556217414633  1.0000
  C   C44       1.0  0.9211624576973272  0.6981807590188129  0.6375823521575907  1.0000
  C   C45       1.0  0.9212528182631274  0.22380835627466578  0.6479308203440495  1.0000
  O   O2        1.0  0.9850406962831681  0.47061951452882367  0.4591566337922386  1.0000
  O   O3        1.0  0.984974566026259  0.45694200464000545  0.8367737103408284  1.0000
  O   O4        1.0  0.9849717024947838  0.6525825878743285  0.641059295647052  1.0000
  O   O5        1.0  0.985043502462953  0.27497893804506557  0.654870946428106  1.0000
  O   O6        1.0  0.8573699376701652  0.647010018698589  0.6306418794759814  1.0000
  O   O7        1.0  0.8573728009152426  0.4513709957152343  0.8263562249296443  1.0000
  O   O8        1.0  0.8574389315263518  0.4650484597991451  0.44873758699132504  1.0000
  O   O9        1.0  0.8574417376863908  0.26940787406103306  0.6444519969943086  1.0000
