data_image0
_chemical_formula_structural       NC12NC2H8C13OH12C12SCH12Zn2C4O8
_chemical_formula_sum              "N2 C44 H32 O9 S1 Zn2"
_cell_length_a       19.240039667572717
_cell_length_b       10.299150109392551
_cell_length_c       10.299780138516091
_cell_angle_alpha    85.5566253413432
_cell_angle_beta     89.99202709574732
_cell_angle_gamma    89.97992514300192

_space_group_name_H-M_alt    "P 1"
_space_group_IT_number       1

loop_
  _space_group_symop_operation_xyz
  'x, y, z'

loop_
  _atom_site_type_symbol
  _atom_site_label
  _atom_site_symmetry_multiplicity
  _atom_site_fract_x
  _atom_site_fract_y
  _atom_site_fract_z
  _atom_site_occupancy
  N   N1        1.0  0.6543173541842234  0.42098243524067813  0.5670531178262683  1.0000
  C   C1        1.0  0.5941689853573001  0.4209825192054717  0.5670530358657233  1.0000
  C   C2        1.0  0.5193509482043752  0.4209826364617215  0.5670528985290999  1.0000
  C   C3        1.0  0.4828816163543717  0.3565413980821974  0.6704811760406828  1.0000
  C   C4        1.0  0.4102108825984194  0.3564305324087418  0.6705677503295511  1.0000
  C   C5        1.0  0.3730187132666548  0.42098272896998923  0.567052670827588  1.0000
  C   C6        1.0  0.4102022222725354  0.48553511258739923  0.46353778579705107  1.0000
  C   C7        1.0  0.48287292511534113  0.4854240114302819  0.4636244826572329  1.0000
  C   C8        1.0  0.2958136228488919  0.42098265027562354  0.5670525754417313  1.0000
  C   C9        1.0  0.2586439342255915  0.30772464963182866  0.6089579092564077  1.0000
  C   C10       1.0  0.1859732326001813  0.3078315326177594  0.6088665534778446  1.0000
  C   C11       1.0  0.1494813359453803  0.4209825211096292  0.5670526363908905  1.0000
  C   C12       1.0  0.074663298793225  0.4209824074278099  0.5670528850771845  1.0000
  N   N2        1.0  0.014514981933246898  0.4209823666597614  0.5670530935003442  1.0000
  C   C13       1.0  0.1859369501369133  0.5341335854202462  0.5252386663911297  1.0000
  C   C14       1.0  0.2586076330918569  0.5342406484956428  0.5251471479672698  1.0000
  H   H1        1.0  0.5105998244842958  0.30664978055232783  0.7512349009243438  1.0000
  H   H2        1.0  0.3831206851794505  0.3073373777809396  0.7524366751049247  1.0000
  H   H3        1.0  0.38310588890209235  0.5346282942554583  0.38166881016681553  1.0000
  H   H4        1.0  0.5105844884467456  0.5353155287673643  0.38287103358892605  1.0000
  H   H5        1.0  0.28575160632279206  0.21857093923280524  0.640152829418992  1.0000
  H   H6        1.0  0.1582725419088184  0.21957736489263446  0.6410941046291725  1.0000
  H   H7        1.0  0.1582078173840036  0.6223877286106585  0.4930111297974835  1.0000
  H   H8        1.0  0.28568643980035435  0.6233944380649792  0.4939521830096669  1.0000
  C   C15       1.0  0.8344850012353298  0.03958280797981395  0.5671972078666438  1.0000
  C   C16       1.0  0.8331947312183776  0.02781693321483525  0.7040013877171831  1.0000
  C   C17       1.0  0.8324800814478223  0.9047167111629091  0.7731003289110085  1.0000
  C   C18       1.0  0.8330607557189251  0.7925614867326252  0.7036380101498829  1.0000
  C   C19       1.0  0.8343540099794157  0.802371979501054  0.5669202251338634  1.0000
  C   C20       1.0  0.8350604866152984  0.9263432789225199  0.49949879214036885  1.0000
  C   C21       1.0  0.8311090687587445  0.8932514748929596  0.9177335216704945  1.0000
  C   C22       1.0  0.7883668163764781  0.8003902846437143  0.9857516833817417  1.0000
  C   C23       1.0  0.7870536683782409  0.7896829180766131  0.12185137322483175  1.0000
  C   C24       1.0  0.828914894355653  0.8706787925329287  0.19239328126646127  1.0000
  C   C25       1.0  0.8709921541437735  0.9644937973683448  0.12501766050811325  1.0000
  C   C26       1.0  0.872321435596402  0.9753769608841302  0.9889176819628189  1.0000
  C   C27       1.0  0.8260424474366791  0.8615272414313024  0.338472559307033  1.0000
  O   O1        1.0  0.7740922000183773  0.9447139239351414  0.3787112983963127  1.0000
  H   H9        1.0  0.8364689032289139  0.26908428398087003  0.3089729076657737  1.0000
  H   H10       1.0  0.8317790796750336  0.11460382437932704  0.75700742776207  1.0000
  H   H11       1.0  0.8334534249365563  0.6974523541623656  0.756468995611917  1.0000
  H   H12       1.0  0.8360560456499405  0.9346266141161613  0.3940442736376031  1.0000
  H   H13       1.0  0.8348046608879828  0.478669971100635  0.5143337700675297  1.0000
  H   H14       1.0  0.7551321835211987  0.737368537914172  0.9336454898796775  1.0000
  H   H15       1.0  0.7532404674376214  0.7183659768056793  0.172224528976345  1.0000
  H   H16       1.0  0.9029465033588411  0.029068702214044784  0.17787002425775522  1.0000
  H   H17       1.0  0.9061578643389302  0.04713953814309524  0.9393511308547635  1.0000
  H   H18       1.0  0.8771634330150665  0.889366525290837  0.37864063353164634  1.0000
  H   H19       1.0  0.8147448056526513  0.7595154587907635  0.3762833330373968  1.0000
  H   H20       1.0  0.7743425364210677  0.9350609898735004  0.4753333534071603  1.0000
  C   C28       1.0  0.8344474603329226  0.4208661047097364  0.18570662670220317  1.0000
  C   C29       1.0  0.7683734544854767  0.3628499139260153  0.1892221237252818  1.0000
  C   C30       1.0  0.7348657144751485  0.333566923843428  0.07385649588371401  1.0000
  C   C31       1.0  0.7683165147935718  0.36307537098718035  0.953918145367779  1.0000
  C   C32       1.0  0.8343915574230996  0.4210887380615127  0.9484108110728777  1.0000
  C   C33       1.0  0.8670869975632686  0.4496600261946675  0.06482816884516751  1.0000
  C   C34       1.0  0.6649640016333284  0.2722056857304691  0.07863840071383299  1.0000
  C   C35       1.0  0.6134828445693137  0.31387001424225036  0.9876668042935535  1.0000
  C   C36       1.0  0.5477065927735739  0.25608671573452346  0.9924040523224433  1.0000
  C   C37       1.0  0.5324520646954254  0.15626890499933443  0.08800303243347107  1.0000
  C   C38       1.0  0.5833147975307783  0.11380557961018267  0.17856926865096923  1.0000
  C   C39       1.0  0.6491340777031487  0.17141543435124484  0.17419449152007105  1.0000
  S   S1        1.0  0.4480806228601316  0.08199177675788105  0.09363140379711998  1.0000
  C   C40       1.0  0.41241891241788564  0.19621619392562906  0.20231888837972511  1.0000
  H   H21       1.0  0.8596348247217716  0.44292540351727205  0.5118240880996792  1.0000
  H   H22       1.0  0.7424025876367447  0.3419259218204109  0.2817790730861649  1.0000
  H   H23       1.0  0.7431171364909243  0.3390720472661468  0.8648546570209272  1.0000
  H   H24       1.0  0.9180604422157679  0.49441626416196804  0.06134774075454552  1.0000
  H   H25       1.0  0.8595537675043275  0.44325289364592746  0.6188544004426761  1.0000
  H   H26       1.0  0.6238043765765897  0.39224411198660625  0.9139600862740194  1.0000
  H   H27       1.0  0.5085401854521912  0.28942267035921865  0.9220606491533965  1.0000
  H   H28       1.0  0.5719308669145414  0.03612751257759572  0.25240059865203324  1.0000
  H   H29       1.0  0.6879268947491582  0.13602832691123545  0.24443782449630835  1.0000
  H   H30       1.0  0.4418096734793265  0.1901856014645089  0.29533518376320456  1.0000
  H   H31       1.0  0.3572676527495001  0.17108543386990616  0.22310037089319756  1.0000
  H   H32       1.0  0.4150881806592447  0.2969462806874481  0.1556910152216504  1.0000
  Zn  Zn1       1.0  0.7582626180736283  0.420978950154258  0.567060600160795  1.0000
  Zn  Zn2       1.0  0.9105697378573374  0.42097526050716993  0.5670562134450423  1.0000
  C   C41       1.0  0.834401455391674  0.4158725547316282  0.8042452452703563  1.0000
  C   C42       1.0  0.8344325634375416  0.42608329467814743  0.3298716951532932  1.0000
  C   C43       1.0  0.8343755714409573  0.6581871174212588  0.561797619228577  1.0000
  C   C44       1.0  0.834458395679377  0.18376717158185607  0.5723193909988089  1.0000
  O   O2        1.0  0.8922273230791008  0.4278271648920142  0.37825314641154395  1.0000
  O   O3        1.0  0.8922042757147529  0.41412490425054216  0.755860091122633  1.0000
  O   O4        1.0  0.8921825948298292  0.6097969785213402  0.5600819172687412  1.0000
  O   O5        1.0  0.8922489519974639  0.23215509988502303  0.5740312228931892  1.0000
  O   O6        1.0  0.7765833519585571  0.6097991107790761  0.5600855907073141  1.0000
  O   O7        1.0  0.7766050325774173  0.41412859691760917  0.7558636947521349  1.0000
  O   O8        1.0  0.7766280801102167  0.4278308118437353  0.3782551887257253  1.0000
  O   O9        1.0  0.7766497090201958  0.2321587375756078  0.5740333625742826  1.0000
