data_image0
_chemical_formula_structural       NC10NC3NH7C13OH12C12BrH9Zn2C4O8
_chemical_formula_sum              "N3 C42 H28 O9 Br1 Zn2"
_cell_length_a       19.210446455230148
_cell_length_b       10.299150109392551
_cell_length_c       10.299148005577397
_cell_angle_alpha    85.53215182685325
_cell_angle_beta     89.9640022898858
_cell_angle_gamma    89.92850971851941

_space_group_name_H-M_alt    "P 1"
_space_group_IT_number       1

loop_
  _space_group_symop_operation_xyz
  'x, y, z'

loop_
  _atom_site_type_symbol
  _atom_site_label
  _atom_site_symmetry_multiplicity
  _atom_site_fract_x
  _atom_site_fract_y
  _atom_site_fract_z
  _atom_site_occupancy
  N   N1        1.0  0.6555770910080327  0.42050776411701474  0.5668041274605269  1.0000
  C   C1        1.0  0.5953479254000661  0.4227153852653327  0.567034589396477  1.0000
  C   C2        1.0  0.5205427218266405  0.42545243126588783  0.5673201023222707  1.0000
  C   C3        1.0  0.48489865164725837  0.5416880270958115  0.582395887508077  1.0000
  C   C4        1.0  0.4122331451533656  0.5418395825593565  0.5823432398795338  1.0000
  C   C5        1.0  0.3753757659138167  0.4261614300638499  0.5674063656311705  1.0000
  C   C6        1.0  0.2980540201236726  0.4248048907176727  0.567256194958117  1.0000
  C   C7        1.0  0.2602876242377391  0.5283923819534435  0.5038588163030864  1.0000
  C   C8        1.0  0.1875096546354232  0.5269900778043544  0.5037501797258468  1.0000
  C   C9        1.0  0.1514966152455929  0.4222578170940001  0.5669878413574649  1.0000
  C   C10       1.0  0.0765674615722088  0.42095567308473036  0.566851417430964  1.0000
  N   N2        1.0  0.0163299038282683  0.41990870508401823  0.5667417674855024  1.0000
  C   C11       1.0  0.1885393269888699  0.31879603054829664  0.6303601707229114  1.0000
  C   C12       1.0  0.26131920466738  0.3199240408052275  0.6305191420407383  1.0000
  C   C13       1.0  0.413629163828549  0.3117461614081569  0.5526181835201105  1.0000
  N   N3        1.0  0.48439844352304473  0.31419126758900084  0.5527829819188217  1.0000
  H   H1        1.0  0.512973826178995  0.6311254651999707  0.5944166273095455  1.0000
  H   H2        1.0  0.3849380361074577  0.6318586963550235  0.5957585829172019  1.0000
  H   H3        1.0  0.2870053381298326  0.6096592933150571  0.4528402086627521  1.0000
  H   H4        1.0  0.1593535905804268  0.6074290139508973  0.4540622874953857  1.0000
  H   H5        1.0  0.1611823305354612  0.23739365144302638  0.6799488779545826  1.0000
  H   H6        1.0  0.2888300419982608  0.23960406396671674  0.6816447884161088  1.0000
  H   H7        1.0  0.3873903122912218  0.22086407853272694  0.5391568638130768  1.0000
  C   C14       1.0  0.8360223940381336  0.03880847095973916  0.5669170698691197  1.0000
  C   C15       1.0  0.8347061457698514  0.026986179651907305  0.7037344398277894  1.0000
  C   C16       1.0  0.8339782775367383  0.9038575666228574  0.7728400541496143  1.0000
  C   C17       1.0  0.8345720275032307  0.7917311115121866  0.7033710509898721  1.0000
  C   C18       1.0  0.8358912494644998  0.8015979788776287  0.5666400835384862  1.0000
  C   C19       1.0  0.8366106378025615  0.9255969647717351  0.4992121378327492  1.0000
  C   C20       1.0  0.8325797892765705  0.8923326966905831  0.9174871930530968  1.0000
  C   C21       1.0  0.7897597334111408  0.7995134666182709  0.9855191944268562  1.0000
  C   C22       1.0  0.7884206954387578  0.7887500231256049  0.12163201156009595  1.0000
  C   C23       1.0  0.8303340694814093  0.8696460886743044  0.19217336569726318  1.0000
  C   C24       1.0  0.8724879951663844  0.963419964107303  0.12478408119471884  1.0000
  C   C25       1.0  0.8738431915092797  0.9743591778436103  0.9886709725415135  1.0000
  C   C26       1.0  0.8274315793417809  0.8604367816440891  0.33826698663246846  1.0000
  O   O1        1.0  0.7753942080572285  0.9436926280924479  0.37851852490822135  1.0000
  H   H8        1.0  0.8380546352629805  0.26841718670882075  0.3086679508186847  1.0000
  H   H9        1.0  0.8332790173640908  0.11375273448281908  0.7567457488827491  1.0000
  H   H10       1.0  0.8349560376084744  0.6965987104533933  0.7562069761074068  1.0000
  H   H11       1.0  0.8376262234707165  0.9339237866493334  0.39374745166328595  1.0000
  H   H12       1.0  0.836351816362346  0.47791773191579895  0.5140485661361212  1.0000
  H   H13       1.0  0.7564830152841376  0.7365692916409912  0.9334138102221252  1.0000
  H   H14       1.0  0.7545465469934701  0.7174677470900065  0.17201579015345725  1.0000
  H   H15       1.0  0.9044823255846768  0.027919106793579118  0.1776359278068267  1.0000
  H   H16       1.0  0.9077404621118818  0.04608670595572306  0.9390938710279946  1.0000
  H   H17       1.0  0.8786243107592656  0.8881738605793389  0.37843002643514534  1.0000
  H   H18       1.0  0.8161098947990453  0.7584276003011663  0.3760832982549841  1.0000
  H   H19       1.0  0.7756279868866056  0.9339979164615412  0.47514969491656767  1.0000
  C   C27       1.0  0.8360516925081163  0.42025513588389685  0.1853903357175637  1.0000
  C   C28       1.0  0.7705654185700067  0.48114864207698527  0.17994254354057082  1.0000
  C   C29       1.0  0.7372644733217826  0.5119698444813974  0.060042166871074665  1.0000
  C   C30       1.0  0.770333108644441  0.4810762168895304  0.9446655752262147  1.0000
  C   C31       1.0  0.8358619382863045  0.420151370677988  0.9481667597378483  1.0000
  C   C32       1.0  0.8683175943144799  0.3901140097323421  0.06895282507009526  1.0000
  C   C33       1.0  0.6679883961248387  0.5763897562994356  0.055323975671335734  1.0000
  C   C34       1.0  0.653349248988846  0.6777400785634118  0.13536771614638177  1.0000
  C   C35       1.0  0.5881151768960895  0.7382622786758626  0.1307321769205838  1.0000
  C   C36       1.0  0.5367787247059902  0.6984005613555453  0.04639091151413233  1.0000
  C   C37       1.0  0.5507185935191735  0.5978383298689693  0.9664945407469689  1.0000
  C   C38       1.0  0.6158935230719378  0.5370942444522924  0.9707376323574461  1.0000
  Br  Br1       1.0  0.4477099284540061  0.7812258498898328  0.04032603963245163  1.0000
  H   H20       1.0  0.8612547407218656  0.39688553514029024  0.514957258002207  1.0000
  H   H21       1.0  0.7448753878567993  0.5031393254594811  0.26927852319681667  1.0000
  H   H22       1.0  0.7453297543198664  0.5062147373668591  0.8518443067986636  1.0000
  H   H23       1.0  0.9188297988041542  0.343149265693369  0.07243879970909362  1.0000
  H   H24       1.0  0.959738407151827  0.30589389418997803  0.7474258643275524  1.0000
  H   H25       1.0  0.692620503198966  0.7112947162948746  0.20025629742187379  1.0000
  H   H26       1.0  0.5775899404882548  0.8163524454381723  0.1925101432427061  1.0000
  H   H27       1.0  0.5110351879749797  0.566436537946188  0.9012982480229774  1.0000
  H   H28       1.0  0.6252540925760547  0.4583166642250356  0.9091612117496171  1.0000
  Zn  Zn1       1.0  0.7596825579888214  0.4203314232664581  0.5667936324238807  1.0000
  Zn  Zn2       1.0  0.9122244200812707  0.42007446108381385  0.5667629026814252  1.0000
  C   C39       1.0  0.8358971512809139  0.41499688280857905  0.8039875902558835  1.0000
  C   C40       1.0  0.8360114922281118  0.42541063747048824  0.32956907139164415  1.0000
  C   C41       1.0  0.8359137424447165  0.6574152737914634  0.5615169883591944  1.0000
  C   C42       1.0  0.8359948492634919  0.1829906861370496  0.5720397431076296  1.0000
  O   O2        1.0  0.893886843306578  0.42703768889008487  0.3779451124534632  1.0000
  O   O3        1.0  0.8937975442136453  0.4131738232871518  0.7555878525214279  1.0000
  O   O4        1.0  0.8938101610830377  0.6089297409356542  0.5597911256368988  1.0000
  O   O5        1.0  0.8938741744076075  0.23128178063348814  0.5737417419655042  1.0000
  O   O6        1.0  0.7780327516074352  0.609124103805887  0.5598147931434563  1.0000
  O   O7        1.0  0.778020134483811  0.41336974659704184  0.7556114502123439  1.0000
  O   O8        1.0  0.7781094340192433  0.4272335671527059  0.37796714868104075  1.0000
  O   O9        1.0  0.7780967650948014  0.23147764959330708  0.5737638755692243  1.0000
