data_image0
_chemical_formula_structural       NC10NC3NCH9C16H10C16H10Zn2C4O8
_chemical_formula_sum              "N3 C50 H29 Zn2 O8"
_cell_length_a       19.437513618241372
_cell_length_b       10.29914801576943
_cell_length_c       10.299151387937775
_cell_angle_alpha    85.56202673548964
_cell_angle_beta     90.33614197722554
_cell_angle_gamma    89.53623586623313

_space_group_name_H-M_alt    "P 1"
_space_group_IT_number       1

loop_
  _space_group_symop_operation_xyz
  'x, y, z'

loop_
  _atom_site_type_symbol
  _atom_site_label
  _atom_site_symmetry_multiplicity
  _atom_site_fract_x
  _atom_site_fract_y
  _atom_site_fract_z
  _atom_site_occupancy
  N   N1        1.0  0.6481748076718961  0.4099721427277494  0.5751592422091467  1.0000
  C   C1        1.0  0.589243865898593  0.42698232672334746  0.572177634968158  1.0000
  C   C2        1.0  0.5158063833359214  0.4482350033309288  0.5684766332101079  1.0000
  C   C3        1.0  0.4740316078442067  0.34703310480730254  0.5568504983712013  1.0000
  C   C4        1.0  0.3981434104491653  0.35709590515357004  0.5496258155296863  1.0000
  C   C5        1.0  0.3585754622871647  0.4379751234693856  0.6153420921781627  1.0000
  C   C6        1.0  0.2823926497132175  0.42936305940504504  0.6069007764204477  1.0000
  C   C7        1.0  0.2492408013709634  0.3080110987508433  0.6115839927561062  1.0000
  C   C8        1.0  0.1775057343411166  0.30163618845674134  0.604417993124228  1.0000
  C   C9        1.0  0.1379518060870301  0.4161406534990917  0.5929311656141865  1.0000
  C   C10       1.0  0.0641022320930553  0.40942747551346925  0.5855971848158026  1.0000
  N   N2        1.0  0.0047322726800291  0.4040306706928154  0.5797011224679527  1.0000
  C   C11       1.0  0.1703869734375086  0.5371822957873762  0.5889933306374475  1.0000
  C   C12       1.0  0.2421064746566428  0.5438112390884056  0.596221268633832  1.0000
  C   C13       1.0  0.3872661187670858  0.530299926660037  0.705232156155073  1.0000
  N   N3        1.0  0.4442607935792545  0.5935096607651487  0.6848071291097868  1.0000
  C   C14       1.0  0.4881065564976843  0.5842066079524229  0.5717021142216967  1.0000
  H   H1        1.0  0.49640356973942823  0.2519654640423481  0.5447604289058421  1.0000
  H   H2        1.0  0.37342315537008053  0.2875573520152266  0.49133023424495503  1.0000
  H   H3        1.0  0.2786784970853504  0.21809666602830302  0.6226343871663369  1.0000
  H   H4        1.0  0.1528993480011521  0.20740443238811967  0.6083360963901292  1.0000
  H   H5        1.0  0.1402637799834379  0.6264426124055567  0.5802553089262341  1.0000
  H   H6        1.0  0.2662313953271807  0.6384558194177279  0.5922875700747392  1.0000
  H   H7        1.0  0.3572609784069544  0.5507176387377297  0.789592485879643  1.0000
  H   H8        1.0  0.5308682535151689  0.6545262953547806  0.5774424705354435  1.0000
  H   H9        1.0  0.45844822147388026  0.6122845188300314  0.48104692562592066  1.0000
  C   C15       1.0  0.8264078284968199  0.025600839263437924  0.5775951685229095  1.0000
  C   C16       1.0  0.8107129079628543  0.035403387026405  0.44392079115798677  1.0000
  C   C17       1.0  0.8028058255339044  0.92324281224331  0.37598108417197973  1.0000
  C   C18       1.0  0.8108047917254866  0.80014986563145  0.44351736986245527  1.0000
  C   C19       1.0  0.8265058360021317  0.7883918103738016  0.5772765784270955  1.0000
  C   C20       1.0  0.8342119096974135  0.9016347097587827  0.6434918930717168  1.0000
  C   C21       1.0  0.7862026622457546  0.934658328414088  0.2345697162543201  1.0000
  C   C22       1.0  0.8187623629683803  0.8530937692787545  0.14976647667980436  1.0000
  C   C23       1.0  0.8031120020821221  0.8639632370477457  0.016675241170044153  1.0000
  C   C24       1.0  0.7547412860813174  0.9562994689253246  0.9665809371605256  1.0000
  C   C25       1.0  0.7220562687902357  0.03784587577131049  0.05009863500241618  1.0000
  C   C26       1.0  0.7376575740674421  0.027218500216960928  0.18321019228201996  1.0000
  C   C27       1.0  0.738654615665509  0.9673654633704496  0.8295513845171416  1.0000
  C   C28       1.0  0.7251822025572965  0.9766331278296629  0.7147911157807325  1.0000
  C   C29       1.0  0.7094061659242193  0.9874854381261315  0.5804080115979908  1.0000
  C   C30       1.0  0.6959360139551236  0.9967516957424123  0.4656662794934521  1.0000
  H   H10       1.0  0.8324093832726727  0.3493055550360704  0.6290257033776645  1.0000
  H   H11       1.0  0.8055281735440518  0.13052262888616695  0.39194448204760635  1.0000
  H   H12       1.0  0.8038441787457651  0.713350330849034  0.39201302246688674  1.0000
  H   H13       1.0  0.8463157923510851  0.8933578962373988  0.7465992015845611  1.0000
  H   H14       1.0  0.8557146541603836  0.5588997111930339  0.8299128834809617  1.0000
  H   H15       1.0  0.8569775210534144  0.7820678170504055  0.18610309108425316  1.0000
  H   H16       1.0  0.8288587482008711  0.8005834932716058  0.952828129494729  1.0000
  H   H17       1.0  0.6843884804229402  0.10942646550711177  0.012399095621405953  1.0000
  H   H18       1.0  0.7111088888437441  0.09022145232301293  0.2462442984839246  1.0000
  H   H19       1.0  0.6841081361199257  0.004888251790777121  0.3649133642948095  1.0000
  C   C31       1.0  0.8264966875674525  0.4068269044577355  0.19606546001965985  1.0000
  C   C32       1.0  0.7601216077741366  0.4618905166592109  0.19028886500587006  1.0000
  C   C33       1.0  0.7264270581275671  0.4899835450286547  0.07020346144112599  1.0000
  C   C34       1.0  0.7600019715961378  0.4622701360613022  0.95497484848141  1.0000
  C   C35       1.0  0.8264169743276921  0.40716571088668996  0.9588062797205477  1.0000
  C   C36       1.0  0.859256141045512  0.3797852643867463  0.07977284020067876  1.0000
  C   C37       1.0  0.6562102623801533  0.5482344890598565  0.06513793095780218  1.0000
  C   C38       1.0  0.6387479136375057  0.6483461564578381  0.9695688536190081  1.0000
  C   C39       1.0  0.5726485213544212  0.7031329184747537  0.9649293201334173  1.0000
  C   C40       1.0  0.5231443835257099  0.6586309814168341  0.05554573803174212  1.0000
  C   C41       1.0  0.5399832536882161  0.5590880890223529  0.1509445463556236  1.0000
  C   C42       1.0  0.606062896393948  0.5042140559333441  0.15583342995171412  1.0000
  C   C43       1.0  0.4551045452347405  0.7150799393752976  0.050641437593209604  1.0000
  C   C44       1.0  0.3981221407449042  0.7623550895051658  0.04653407008606436  1.0000
  C   C45       1.0  0.3313963376283425  0.8177138655588909  0.041724383962631784  1.0000
  C   C46       1.0  0.2744231416375116  0.864981613681336  0.037617786631616745  1.0000
  H   H20       1.0  0.8520127485719149  0.38558475439382867  0.5257676697081919  1.0000
  H   H21       1.0  0.7348451663455029  0.4847079656544224  0.2792613508477997  1.0000
  H   H22       1.0  0.733898373330798  0.4820857438499855  0.86226131363955  1.0000
  H   H23       1.0  0.9104521129069997  0.33730974492227106  0.08351299301380721  1.0000
  H   H24       1.0  0.9515988601905007  0.30240347836660497  0.7588018992009351  1.0000
  H   H25       1.0  0.6764701606773595  0.6854227295466695  0.8994871464023513  1.0000
  H   H26       1.0  0.5602161424592033  0.7803957460734121  0.8908862078034887  1.0000
  H   H27       1.0  0.5019943497333688  0.5236572937308632  0.2213535768663275  1.0000
  H   H28       1.0  0.6176821217062525  0.4262030779762871  0.2294734862748662  1.0000
  H   H29       1.0  0.2243959716084686  0.9064865367597044  0.03401186252208643  1.0000
  Zn  Zn1       1.0  0.7510695942836799  0.4082540760725213  0.5764774411829703  1.0000
  Zn  Zn2       1.0  0.9018374897919526  0.40573807165611964  0.5783935978652006  1.0000
  C   C47       1.0  0.8264298489812248  0.4019276264341618  0.8146340577406519  1.0000
  C   C48       1.0  0.8264788816723901  0.4120661326316437  0.3402371290143311  1.0000
  C   C49       1.0  0.8264843157217254  0.6442058503428716  0.5721615397386239  1.0000
  C   C50       1.0  0.8264243632776024  0.16978634918049051  0.5827097162532002  1.0000
  O   O1        1.0  0.8836885357351686  0.41286398869357144  0.3893496319949479  1.0000
  O   O2        1.0  0.8836495389907572  0.3992192012668778  0.766975499906773  1.0000
  O   O3        1.0  0.8836927501373592  0.5948619445707186  0.5711772157199919  1.0000
  O   O4        1.0  0.883645273153066  0.21722125549600402  0.5851478181489467  1.0000
  O   O5        1.0  0.7692617594728841  0.5967708930926368  0.5697232202385025  1.0000
  O   O6        1.0  0.769218548530887  0.40112971019123855  0.7655214345277215  1.0000
  O   O7        1.0  0.7692575454784022  0.4147744516637888  0.38789400522861617  1.0000
  O   O8        1.0  0.7692142828821178  0.21913170921994807  0.583692288754676  1.0000
