data_image0
_chemical_formula_structural       NC10NC3NCH9C12ClH9C12NCOH11Zn2C4O8
_chemical_formula_sum              "N4 C43 H29 Cl1 O9 Zn2"
_cell_length_a       19.437513618241372
_cell_length_b       10.299768534541528
_cell_length_c       10.299148425239203
_cell_angle_alpha    85.5385229165027
_cell_angle_beta     90.33234682354211
_cell_angle_gamma    89.54057453160664

_space_group_name_H-M_alt    "P 1"
_space_group_IT_number       1

loop_
  _space_group_symop_operation_xyz
  'x, y, z'

loop_
  _atom_site_type_symbol
  _atom_site_label
  _atom_site_symmetry_multiplicity
  _atom_site_fract_x
  _atom_site_fract_y
  _atom_site_fract_z
  _atom_site_occupancy
  N   N1        1.0  0.6482780656656862  0.4110498329194936  0.5756861958400239  1.0000
  C   C1        1.0  0.589347925178491  0.42806093340087803  0.5727118800870039  1.0000
  C   C2        1.0  0.5159114429914664  0.44931473445166636  0.5690199899736739  1.0000
  C   C3        1.0  0.4741328188286587  0.34813236069554954  0.557348543662737  1.0000
  C   C4        1.0  0.3982452662748946  0.35820034808443446  0.550127815217395  1.0000
  C   C5        1.0  0.3586786288957644  0.4390159687148161  0.6158840142924646  1.0000
  C   C6        1.0  0.2824957219127351  0.4304119046413877  0.6074383526378524  1.0000
  C   C7        1.0  0.2493386760164881  0.3090675149346014  0.6120684602412088  1.0000
  C   C8        1.0  0.1776035678019379  0.30269930686666435  0.6048991833178459  1.0000
  C   C9        1.0  0.1380547649107536  0.4172026399445654  0.5934620030542703  1.0000
  C   C10       1.0  0.0642051409069041  0.4104963392740797  0.5861245850205821  1.0000
  N   N2        1.0  0.0048351412961748  0.4051050633688451  0.5802257594255058  1.0000
  C   C11       1.0  0.1704950935825135  0.5382361068265888  0.5895771892250041  1.0000
  C   C12       1.0  0.24221464462252762  0.544858271030535  0.5968085204056717  1.0000
  C   C13       1.0  0.38737031638064306  0.5312555227343541  0.7058206283073096  1.0000
  N   N3        1.0  0.4443682610999613  0.5944766114870383  0.6854220818972734  1.0000
  C   C14       1.0  0.4882171748319045  0.5852706491636741  0.5723055350078539  1.0000
  H   H1        1.0  0.4965012018926299  0.2530840552444966  0.5452158323959175  1.0000
  H   H2        1.0  0.37352394032117664  0.2887180009578152  0.49179779136895485  1.0000
  H   H3        1.0  0.2787722835361553  0.21915224408476108  0.6230800027408361  1.0000
  H   H4        1.0  0.1529931366714929  0.20847319031434797  0.6087760653060605  1.0000
  H   H5        1.0  0.1403758887634501  0.6274953569981805  0.5808778835410628  1.0000
  H   H6        1.0  0.26634362775445397  0.6394971858019756  0.5929162238156811  1.0000
  H   H7        1.0  0.3573633869969257  0.5515995356680121  0.7901954924330308  1.0000
  H   H8        1.0  0.5309816192166256  0.6555787585311956  0.5780772220645414  1.0000
  H   H9        1.0  0.45856284428466954  0.6134229960013133  0.48165674489340726  1.0000
  C   C15       1.0  0.8264950115242425  0.026713054992000274  0.5779530898847602  1.0000
  C   C16       1.0  0.8310448872933858  0.03625985732856396  0.4415326459371185  1.0000
  C   C17       1.0  0.8334164865397347  0.9239568249403134  0.3724155535015281  1.0000
  C   C18       1.0  0.8311762872554495  0.800969942598809  0.44154980991627224  1.0000
  C   C19       1.0  0.8266247929849753  0.7894316382356588  0.5779701712035623  1.0000
  C   C20       1.0  0.8243101504075696  0.9028601942399066  0.64540786269304  1.0000
  C   C21       1.0  0.8382307905806672  0.9351101985087161  0.22809410801562335  1.0000
  C   C22       1.0  0.7991005757523294  0.029333771225738436  0.1531269547831331  1.0000
  C   C23       1.0  0.8036932349655698  0.039634824002774405  0.017296274620909324  1.0000
  C   C24       1.0  0.8473498994099414  0.9562362489472502  0.9547399298040387  1.0000
  C   C25       1.0  0.8864690452728574  0.86232573601028  0.028195616993933248  1.0000
  C   C26       1.0  0.8819985625144743  0.8516303888497601  0.16404249695296214  1.0000
  Cl  Cl1       1.0  0.85303541459119  0.9694077738478017  0.7843155188116144  1.0000
  H   H10       1.0  0.8247259842940922  0.3505295935690429  0.6299322917188015  1.0000
  H   H11       1.0  0.8337045856881447  0.13124989216578697  0.3888302691864636  1.0000
  H   H12       1.0  0.8320405474712637  0.7141438461648845  0.3886110040374906  1.0000
  H   H13       1.0  0.8207994339192618  0.8947270986043409  0.7506499465090322  1.0000
  H   H14       1.0  0.8249178533281291  0.4575807995336303  0.6299579650428488  1.0000
  H   H15       1.0  0.7643081039128523  0.09387027003912274  0.1994306877096046  1.0000
  H   H16       1.0  0.7731541135838766  0.11228133851999456  0.9607918151370782  1.0000
  H   H17       1.0  0.9204944683065984  0.797756116207704  0.9801925232914903  1.0000
  H   H18       1.0  0.9134109251758804  0.779263247709598  0.21906366574372504  1.0000
  C   C27       1.0  0.8266116730738323  0.40822734319302034  0.1965661026523915  1.0000
  C   C28       1.0  0.8964215130524866  0.44262198494141525  0.1934861951496949  1.0000
  C   C29       1.0  0.9317072424793382  0.4598484092457664  0.07479108432820958  1.0000
  C   C30       1.0  0.8962764181908909  0.4422842568318017  0.9582271859422451  1.0000
  C   C31       1.0  0.8265081157237189  0.40791739593947707  0.9593571667141738  1.0000
  C   C32       1.0  0.7920850519792352  0.3910814531817657  0.07903765418586284  1.0000
  C   C33       1.0  0.005516098887073495  0.49621024123636825  0.07262504416420823  1.0000
  C   C34       1.0  0.051737100360585764  0.43806919999696237  0.9896143136650544  1.0000
  C   C35       1.0  0.12115793081108728  0.472424777444999  0.9877247673604601  1.0000
  C   C36       1.0  0.1459829414622591  0.564282968450406  0.06955169166350816  1.0000
  C   C37       1.0  0.09969397571446748  0.6242713409913148  0.1509931976556742  1.0000
  C   C38       1.0  0.030242071517236013  0.5900229491827862  0.15297919174327523  1.0000
  N   N4        1.0  0.2174403695832603  0.59929819795176  0.06392680610805335  1.0000
  C   C39       1.0  0.2570207971032208  0.6353109686166902  0.17316157702115054  1.0000
  O   O1        1.0  0.23373925241054105  0.6215367276774555  0.2872250505718934  1.0000
  H   H19       1.0  0.6949583707613236  0.3425434514425816  0.4097335229377699  1.0000
  H   H20       1.0  0.9237201885248641  0.454362139763798  0.2837604071574633  1.0000
  H   H21       1.0  0.9229730384356175  0.4572306837382798  0.8663344957382328  1.0000
  H   H22       1.0  0.7382718203739302  0.3645698856065036  0.08062434233553484  1.0000
  H   H23       1.0  0.7996753645494282  0.39466264762957004  0.6323186746974225  1.0000
  H   H24       1.0  0.034378761851461936  0.36484953381141616  0.9272189755646831  1.0000
  H   H25       1.0  0.1559132605040876  0.42630779556597975  0.9232114267697624  1.0000
  H   H26       1.0  0.11666226080382058  0.699662027778768  0.2109770049601294  1.0000
  H   H27       1.0  0.9955683775339597  0.6388047980332032  0.2156010517389586  1.0000
  H   H28       1.0  0.24389975133354835  0.5899178117917894  0.9770804251963248  1.0000
  H   H29       1.0  0.30868609220326304  0.6714889801292472  0.1579962472679668  1.0000
  Zn  Zn1       1.0  0.7511727395314534  0.4093308086161709  0.5770037252312623  1.0000
  Zn  Zn2       1.0  0.9019404703762698  0.4068134139163737  0.5789189004123896  1.0000
  C   C40       1.0  0.8265252811279213  0.4028023904129263  0.8151732165104659  1.0000
  C   C41       1.0  0.8265895754202329  0.41334344317772453  0.3407495575589874  1.0000
  C   C42       1.0  0.8265974170458383  0.645263788015842  0.5727914011808226  1.0000
  C   C43       1.0  0.8265173877809497  0.17088048612196416  0.5831314414435451  1.0000
  O   O2        1.0  0.8837977264047969  0.4140994492267511  0.38986564103076327  1.0000
  O   O3        1.0  0.8837463492108066  0.40013476047655994  0.7675103327928838  1.0000
  O   O4        1.0  0.8838038284002555  0.5959254177134659  0.5717852922552227  1.0000
  O   O5        1.0  0.8837401957833347  0.21830880217854132  0.5855905835336452  1.0000
  O   O6        1.0  0.7693729626747625  0.5978354212144836  0.5703320414496196  1.0000
  O   O7        1.0  0.7693154837570539  0.4020463242909016  0.7660570127719804  1.0000
  O   O8        1.0  0.769366861201077  0.4160109684194073  0.3884107594996862  1.0000
  O   O9        1.0  0.7693093305620021  0.22022031204298198  0.5841357993769611  1.0000
