data_image0
_chemical_formula_structural       NC9NC5H8C12SCH12C13F3H9Zn2C4O8
_chemical_formula_sum              "N2 C44 H29 S1 F3 Zn2 O8"
_cell_length_a       17.807436237873137
_cell_length_b       10.299776766347529
_cell_length_c       10.2985328690268
_cell_angle_alpha    85.58005012136331
_cell_angle_beta     89.39824995993841
_cell_angle_gamma    88.3716268350294

_space_group_name_H-M_alt    "P 1"
_space_group_IT_number       1

loop_
  _space_group_symop_operation_xyz
  'x, y, z'

loop_
  _atom_site_type_symbol
  _atom_site_label
  _atom_site_symmetry_multiplicity
  _atom_site_fract_x
  _atom_site_fract_y
  _atom_site_fract_z
  _atom_site_occupancy
  N   N1        1.0  0.7070725008723502  0.3873033142060365  0.5570514042705914  1.0000
  C   C1        1.0  0.6464908973452456  0.352110259207729  0.5460258770960695  1.0000
  C   C2        1.0  0.5711340410365559  0.3083339744464917  0.5323113184311725  1.0000
  C   C3        1.0  0.5530500315413185  0.23688648694542502  0.42729897339317446  1.0000
  C   C4        1.0  0.4798824283574547  0.1942715661580814  0.413900383752277  1.0000
  C   C5        1.0  0.4237501845470625  0.22272659416895357  0.5054816767070214  1.0000
  C   C6        1.0  0.3459918668786084  0.17755285048959157  0.4913245288659538  1.0000
  C   C7        1.0  0.2838017640543712  0.2593168525840859  0.5172672054205725  1.0000
  C   C8        1.0  0.2104918945269437  0.21649889851289128  0.5038822934439717  1.0000
  C   C9        1.0  0.147251221920441  0.3009543583223466  0.5301889598470149  1.0000
  N   N2        1.0  0.0964187104833637  0.36885070538292997  0.5513387929636278  1.0000
  C   C10       1.0  0.198788629520284  0.09165895522455592  0.4645293475454826  1.0000
  C   C11       1.0  0.2601213646286556  0.00988109826455763  0.4385782803536229  1.0000
  C   C12       1.0  0.3333118641922465  0.05230444945298629  0.4517606299365655  1.0000
  C   C13       1.0  0.4425255188667179  0.29466851480703027  0.6107132788570582  1.0000
  C   C14       1.0  0.5157460200845262  0.337092993365117  0.6239562017761995  1.0000
  H   H1        1.0  0.5954451223256051  0.21437904276445963  0.3555803065879739  1.0000
  H   H2        1.0  0.46697522021680227  0.1405636783637283  0.33097248167633486  1.0000
  H   H3        1.0  0.2922827213121922  0.3567904257090939  0.5461485638913097  1.0000
  H   H4        1.0  0.1423293409093003  0.05761971410034028  0.45393291765090993  1.0000
  H   H5        1.0  0.2509418430690548  0.9132272491808632  0.40849643798440116  1.0000
  H   H6        1.0  0.3799638572800163  0.9865536908261386  0.43270934841017916  1.0000
  H   H7        1.0  0.4008474810414731  0.31663731353183033  0.6837265299386353  1.0000
  H   H8        1.0  0.5291812925388069  0.39202113953879825  0.705842425250252  1.0000
  C   C15       1.0  0.9018200298726935  0.9967083591101831  0.5541924338431166  1.0000
  C   C16       1.0  0.9063421975711834  0.9849751436108255  0.6906493980482222  1.0000
  C   C17       1.0  0.9085612849751257  0.861894638639651  0.7597996481665827  1.0000
  C   C18       1.0  0.9061985450673017  0.7496941802284339  0.6906666971252415  1.0000
  C   C19       1.0  0.901678383786518  0.7594353528900926  0.5542089540477488  1.0000
  C   C20       1.0  0.8995140062803643  0.8833803514768553  0.48673568092267105  1.0000
  C   C21       1.0  0.9133369489445362  0.8505465190457067  0.9041558412071116  1.0000
  C   C22       1.0  0.8703445038033382  0.7591469182931071  0.9788344339944832  1.0000
  C   C23       1.0  0.8748615252141116  0.7487003952087953  0.11468684293846076  1.0000
  C   C24       1.0  0.9221837817782629  0.8293843445242066  0.1776702028502678  1.0000
  C   C25       1.0  0.9653555866726995  0.9202020891878907  0.10436213803606931  1.0000
  C   C26       1.0  0.9609487257799783  0.9309932768438743  0.9684976970722303  1.0000
  S   S1        1.0  0.9280625874019891  0.8155155541284533  0.3519863187346747  1.0000
  C   C27       1.0  0.8525708589474967  0.9351613460866329  0.37262401122912137  1.0000
  H   H9        1.0  0.9001264348564821  0.32863132801327755  0.5021957025335568  1.0000
  H   H10       1.0  0.9071130893694331  0.07178632014221842  0.7436000730255199  1.0000
  H   H11       1.0  0.9089282879022372  0.6545676502020876  0.7433924815283393  1.0000
  H   H12       1.0  0.8960258598358952  0.8916635157121598  0.3814649276308013  1.0000
  H   H13       1.0  0.8999184902454043  0.43569519124074046  0.5022178615697708  1.0000
  H   H14       1.0  0.8325232004532547  0.6969605365299056  0.9322719767276872  1.0000
  H   H15       1.0  0.8412761218401391  0.6782473606553207  0.1709049566979367  1.0000
  H   H16       1.0  0.002377407496747086  0.9824827363209043  0.1525253696343143  1.0000
  H   H17       1.0  0.9954823998021809  0.0010328625769626676  0.9136788103021152  1.0000
  H   H18       1.0  0.867607514770624  0.030763048900465995  0.32352235998691037  1.0000
  H   H19       1.0  0.8438715318935817  0.9462861161374169  0.47803819108720114  1.0000
  H   H20       1.0  0.7997041484132366  0.9021211578561505  0.3312746878370867  1.0000
  C   C28       1.0  0.9017276246821224  0.37795093816031344  0.1728035146516993  1.0000
  C   C29       1.0  0.9770672816801149  0.3334893693691794  0.1739104534977607  1.0000
  C   C30       1.0  0.015242428206091008  0.31107902570011303  0.057300494878812724  1.0000
  C   C31       1.0  0.9771115859394407  0.3337428837433747  0.9386091317679202  1.0000
  C   C32       1.0  0.901770760460848  0.3781928032015771  0.9355978606207582  1.0000
  C   C33       1.0  0.8645599200354546  0.40000779968737654  0.053185357643734665  1.0000
  C   C34       1.0  0.09489438424249141  0.2640847328478704  0.059405231176675954  1.0000
  C   C35       1.0  0.14675859970562466  0.3162265812537215  0.9671036380508808  1.0000
  C   C36       1.0  0.22172174994045668  0.2721007718768542  0.9691059654757566  1.0000
  C   C37       1.0  0.24618509383392628  0.17354629653095222  0.06221669971405985  1.0000
  C   C38       1.0  0.19475541349231773  0.12320288005805069  0.15608927856507182  1.0000
  C   C39       1.0  0.11979714748335568  0.16736151258032694  0.15419780108346992  1.0000
  C   C40       1.0  0.32764548315893305  0.1293994548641626  0.0673042614111441  1.0000
  F   F1        1.0  0.3661587424342456  0.20688790575671634  0.1462253686002044  1.0000
  F   F2        1.0  0.3596379108476697  0.13905626484557  0.9439778639396006  1.0000
  F   F3        1.0  0.33462674040378304  0.0009488103238632917  0.11708549889818642  1.0000
  H   H21       1.0  0.7595067329519425  0.4627785061425027  0.3779716572195351  1.0000
  H   H22       1.0  0.006490327468364754  0.3179355052842239  0.26555748915404354  1.0000
  H   H23       1.0  0.0059671424159102315  0.31499396977993466  0.8485547503445146  1.0000
  H   H24       1.0  0.8064939125109707  0.43426997235523945  0.0515990973304441  1.0000
  H   H25       1.0  0.7592663992026866  0.46145028687808853  0.7226408866775578  1.0000
  H   H26       1.0  0.12962479342464328  0.39280208182405296  0.8946271744338952  1.0000
  H   H27       1.0  0.26066242834864983  0.31548104386196374  0.8980501913840997  1.0000
  H   H28       1.0  0.21248930702145885  0.04949044445076356  0.2309998703319487  1.0000
  H   H29       1.0  0.08112688110083588  0.12492244152680976  0.22626930269496537  1.0000
  Zn  Zn1       1.0  0.8194294065005672  0.38197482699719987  0.5554103793204257  1.0000
  Zn  Zn2       1.0  0.9840617892281186  0.374168609814725  0.5529904950877307  1.0000
  C   C41       1.0  0.9017618938016373  0.372973475320741  0.791413300739326  1.0000
  C   C42       1.0  0.9017310994103973  0.38317151490572043  0.3169876747551086  1.0000
  C   C43       1.0  0.901700978179449  0.6152622647127266  0.5490303152611933  1.0000
  C   C44       1.0  0.9017919591487905  0.14088116789855265  0.5593707302689876  1.0000
  O   O1        1.0  0.9642093978695482  0.38195550367858466  0.3644588624468519  1.0000
  O   O2        1.0  0.9642357646594981  0.3682637684899943  0.742105103012354  1.0000
  O   O3        1.0  0.9641857323789605  0.5639150704469673  0.5463791397478888  1.0000
  O   O4        1.0  0.9642593739649727  0.1863042136446813  0.5601847291553788  1.0000
  O   O5        1.0  0.8392317655827601  0.5698392258325342  0.5482161460717341  1.0000
  O   O6        1.0  0.8392817975661399  0.3741894841560329  0.7439420401194088  1.0000
  O   O7        1.0  0.8392554307462512  0.3878811735912593  0.3662942380358314  1.0000
  O   O8        1.0  0.8393054068458355  0.19222987429957694  0.5620202021192529  1.0000
