data_image0
_chemical_formula_structural       NC10NC3NCH9C12OCH12C13F3H9Zn2C4O8
_chemical_formula_sum              "N3 C44 H30 O9 F3 Zn2"
_cell_length_a       19.437513618241372
_cell_length_b       10.29979075500242
_cell_length_c       10.2985328690268
_cell_angle_alpha    85.57397699723032
_cell_angle_beta     90.35299087610198
_cell_angle_gamma    89.50469088654314

_space_group_name_H-M_alt    "P 1"
_space_group_IT_number       1

loop_
  _space_group_symop_operation_xyz
  'x, y, z'

loop_
  _atom_site_type_symbol
  _atom_site_label
  _atom_site_symmetry_multiplicity
  _atom_site_fract_x
  _atom_site_fract_y
  _atom_site_fract_z
  _atom_site_occupancy
  N   N1        1.0  0.6475422692272953  0.41003341087152023  0.5755201960733234  1.0000
  C   C1        1.0  0.5886059188461843  0.4270425533492206  0.5725439593177994  1.0000
  C   C2        1.0  0.5151616825128669  0.4482939256363754  0.568849669226027  1.0000
  C   C3        1.0  0.4734144920617839  0.34710190392003626  0.5571894831392679  1.0000
  C   C4        1.0  0.397522240864488  0.3571647725318019  0.5499675868939085  1.0000
  C   C5        1.0  0.3579410732857889  0.43802902576640523  0.6157151112144552  1.0000
  C   C6        1.0  0.2817594424764658  0.4294187361435209  0.6072703649550915  1.0000
  C   C7        1.0  0.2486435848324016  0.3080762846905858  0.6119140818096565  1.0000
  C   C8        1.0  0.1769092490644299  0.30170280287888307  0.6047454772168657  1.0000
  C   C9        1.0  0.13732025536720693  0.416199181102356  0.5932954150094494  1.0000
  C   C10       1.0  0.0634714846406436  0.40948748079497355  0.5859587062016276  1.0000
  N   N2        1.0  0.0041021709547895  0.4040918639210871  0.5800604507607141  1.0000
  C   C11       1.0  0.1697196387761086  0.537231246589084  0.5893970309450367  1.0000
  C   C12       1.0  0.2414383446141333  0.5438587325102031  0.5966276617184008  1.0000
  C   C13       1.0  0.3866189662530875  0.5303348819582181  0.7056419083501624  1.0000
  N   N3        1.0  0.4435920808719098  0.5935419170385208  0.6852361698001848  1.0000
  C   C14       1.0  0.48742285442897965  0.5842538135538193  0.5721200141535234  1.0000
  H   H1        1.0  0.4958121841530355  0.2520436877537282  0.5450673428526791  1.0000
  H   H2        1.0  0.372813071008445  0.28763931093457185  0.49164501114023396  1.0000
  H   H3        1.0  0.278109133225375  0.21816794766265146  0.6229357515017611  1.0000
  H   H4        1.0  0.1523308541173815  0.207478395577128  0.6086329286261072  1.0000
  H   H5        1.0  0.1395691444032406  0.6264852321259002  0.580687684569634  1.0000
  H   H6        1.0  0.26553515150850593  0.6384959316813765  0.5927247494123389  1.0000
  H   H7        1.0  0.3566210896007659  0.5507403225423371  0.7900149720303924  1.0000
  H   H8        1.0  0.5301650183835752  0.6545669311214117  0.5778838636573971  1.0000
  H   H9        1.0  0.45774218090050356  0.6123407501530915  0.48146756042844907  1.0000
  C   C15       1.0  0.8258873480165037  0.025693780733746507  0.5778301249355557  1.0000
  C   C16       1.0  0.805978531400851  0.014899304586842854  0.70902470575759  1.0000
  C   C17       1.0  0.7958359836349881  0.8922942759101736  0.7754681485550996  1.0000
  C   C18       1.0  0.8058549231467893  0.7796190511885841  0.7089573416756372  1.0000
  C   C19       1.0  0.8257637091728998  0.7884213127939902  0.5777618278782217  1.0000
  C   C20       1.0  0.8356700451682911  0.9119018780604425  0.5129335173483496  1.0000
  C   C21       1.0  0.7747777750677365  0.8819283656339411  0.9142659584683297  1.0000
  C   C22       1.0  0.7245800833367448  0.7919122822618174  0.9586957537713989  1.0000
  C   C23       1.0  0.7048226054028134  0.7824287625140129  0.08919318629209683  1.0000
  C   C24       1.0  0.7348178219293012  0.8623007039000916  0.17692996400885752  1.0000
  C   C25       1.0  0.7851987716555232  0.9529233858231035  0.13437435070044834  1.0000
  C   C26       1.0  0.8047429341479984  0.9620491129361399  0.0033474620540470124  1.0000
  O   O1        1.0  0.8170051272218323  0.03511871410881273  0.21865418395578007  1.0000
  C   C27       1.0  0.8022619798596022  0.03638241294834965  0.3538128718179808  1.0000
  H   H10       1.0  0.8335035705227458  0.3572579214827436  0.5278610350009112  1.0000
  H   H11       1.0  0.7974013636910632  0.10208361792707699  0.7593480937029653  1.0000
  H   H12       1.0  0.7989988819376312  0.6848484996974076  0.7602418305054006  1.0000
  H   H13       1.0  0.8510293855386298  0.9194609550468743  0.4117224479337831  1.0000
  H   H14       1.0  0.8333156309676298  0.46432447809973326  0.5277542811980909  1.0000
  H   H15       1.0  0.699968445615405  0.7300736513465139  0.8921677834495594  1.0000
  H   H16       1.0  0.6659676815555498  0.713116221946071  0.12237978937882465  1.0000
  H   H17       1.0  0.7185184277525923  0.8528528147793693  0.2773966772681402  1.0000
  H   H18       1.0  0.8441530571128596  0.030926642579324426  0.9716809015825258  1.0000
  H   H19       1.0  0.8141493362005077  0.9396703626969783  0.4045906798356492  1.0000
  H   H20       1.0  0.8347304269062983  0.11049296035065548  0.3964438440062863  1.0000
  H   H21       1.0  0.747339594177688  0.06221258424422649  0.36755009885466794  1.0000
  C   C28       1.0  0.8258057636810704  0.40693594572655445  0.19639827630400108  1.0000
  C   C29       1.0  0.8948008503761014  0.3648950147677932  0.19949351773839763  1.0000
  C   C30       1.0  0.9297611584048052  0.34371122650837904  0.08389103374990636  1.0000
  C   C31       1.0  0.8948414258753621  0.3651499544973429  0.9641933355440804  1.0000
  C   C32       1.0  0.8258452690024842  0.40717919849758344  0.9591937322816704  1.0000
  C   C33       1.0  0.7917680598606822  0.4277986222282839  0.07579920664163509  1.0000
  C   C34       1.0  0.0027053930675391413  0.2992761242873818  0.08809787801129909  1.0000
  C   C35       1.0  0.05020263276767789  0.3530849071102127  0.9971562529740812  1.0000
  C   C36       1.0  0.11885292032788741  0.31136763929124767  0.0011369344657183866  1.0000
  C   C37       1.0  0.14125546466078265  0.21359859916188628  0.09490222043222762  1.0000
  C   C38       1.0  0.09415618300660111  0.161602223511925  0.1874260808163668  1.0000
  C   C39       1.0  0.0255103686421565  0.20335247164414683  0.18355637437576067  1.0000
  C   C40       1.0  0.2158558704283755  0.1720690787174941  0.10213920095582729  1.0000
  F   F1        1.0  0.2511266158212273  0.2507956193717351  0.18206607327259983  1.0000
  F   F2        1.0  0.245154350821031  0.1827539859052698  0.9796540901798072  1.0000
  F   F3        1.0  0.22224822455256454  0.043841906304770584  0.15211788879018884  1.0000
  H   H22       1.0  0.6955617115116133  0.48719401031209797  0.3978129462636324  1.0000
  H   H23       1.0  0.9217461108558076  0.350286515377102  0.29191687007371114  1.0000
  H   H24       1.0  0.9212669588149881  0.34732814832820336  0.8749006690465828  1.0000
  H   H25       1.0  0.7385919586405051  0.46019515357381  0.07268051633612682  1.0000
  H   H26       1.0  0.695341605241653  0.4858580593522417  0.7424759891825929  1.0000
  H   H27       1.0  0.034512243749139415  0.4291103497202946  0.9242205479841283  1.0000
  H   H28       1.0  0.154514820725294  0.3559995069535591  0.9311018018611859  1.0000
  H   H29       1.0  0.1103961498416639  0.08845914802940902  0.26281140922820945  1.0000
  H   H30       1.0  0.990096116868414  0.15967050053877707  0.2546142540650036  1.0000
  Zn  Zn1       1.0  0.7504377612113492  0.40831532194606  0.576837925334996  1.0000
  Zn  Zn2       1.0  0.9012066874630252  0.4057992867041704  0.5787533931322679  1.0000
  C   C41       1.0  0.8258371073757519  0.40195955071666134  0.8150094933646497  1.0000
  C   C42       1.0  0.8258089874315451  0.41215666911816284  0.3405819733489155  1.0000
  C   C43       1.0  0.8257832530745481  0.6442480065955505  0.5725991675421402  1.0000
  C   C44       1.0  0.825862790542408  0.16986665381790322  0.5829923679012887  1.0000
  O   O2        1.0  0.8830260920438797  0.41294830357911194  0.38969824976502965  1.0000
  O   O3        1.0  0.8830501293724315  0.3992573238828574  0.7673466388991497  1.0000
  O   O4        1.0  0.8830058701137359  0.5949083294628839  0.5715985757841306  1.0000
  O   O5        1.0  0.8830702998488037  0.21729730811680414  0.5854462148435742  1.0000
  O   O6        1.0  0.7685740973755352  0.5968173013934375  0.5701451029632025  1.0000
  O   O7        1.0  0.7686183563745358  0.40116785609479266  0.7658930966878705  1.0000
  O   O8        1.0  0.7685943190182013  0.41485879003641424  0.3882431460397473  1.0000
  O   O9        1.0  0.7686385268268614  0.21920778531639873  0.5839912084942795  1.0000
