data_image0
_chemical_formula_structural       NC8NC6H8C16H10C12SCH12Zn2C4O8
_chemical_formula_sum              "N2 C47 H30 S1 Zn2 O8"
_cell_length_a       17.457602349358154
_cell_length_b       10.29914801576943
_cell_length_c       10.299780138516091
_cell_angle_alpha    85.5534209466543
_cell_angle_beta     92.86764560524759
_cell_angle_gamma    91.70309287404056

_space_group_name_H-M_alt    "P 1"
_space_group_IT_number       1

loop_
  _space_group_symop_operation_xyz
  'x, y, z'

loop_
  _atom_site_type_symbol
  _atom_site_label
  _atom_site_symmetry_multiplicity
  _atom_site_fract_x
  _atom_site_fract_y
  _atom_site_fract_z
  _atom_site_occupancy
  N   N1        1.0  0.722744102717582  0.45256317033490845  0.6259819075825157  1.0000
  C   C1        1.0  0.6616604476846838  0.406631000751557  0.6153854329838737  1.0000
  C   C2        1.0  0.5856697978384092  0.34949709938809703  0.6022129577390649  1.0000
  C   C3        1.0  0.5271408718312945  0.38968381364899773  0.6770905394605446  1.0000
  C   C4        1.0  0.4525885585764659  0.3346685314298228  0.6645316081926138  1.0000
  C   C5        1.0  0.3904687003615184  0.37709985125776635  0.7438298592325479  1.0000
  C   C6        1.0  0.315929187998566  0.39555386812991533  0.688061593853823  1.0000
  C   C7        1.0  0.2574002240754274  0.4355566721363011  0.7630471988671608  1.0000
  C   C8        1.0  0.1814228221892283  0.4546159596551722  0.7050633357181768  1.0000
  N   N2        1.0  0.12034990665379762  0.46993324662266467  0.6584444633874007  1.0000
  C   C9        1.0  0.27291860356179654  0.45734876701025207  0.8943094624514405  1.0000
  C   C10       1.0  0.34667343632903  0.4392838809088888  0.9504651480978143  1.0000
  C   C11       1.0  0.4051907841478784  0.3994612775650763  0.8759371682323451  1.0000
  C   C12       1.0  0.437853835880569  0.23878864767865737  0.5756625229238517  1.0000
  C   C13       1.0  0.4963710513498144  0.19888075164376873  0.5011848110219761  1.0000
  C   C14       1.0  0.5701385706132648  0.2540085764359943  0.5142936189286487  1.0000
  H   H1        1.0  0.5394903016946979  0.4649036278112648  0.7436872838161332  1.0000
  H   H2        1.0  0.3035902851309268  0.3805531188523794  0.5860482902292645  1.0000
  H   H3        1.0  0.22805730269186522  0.4882510076834161  0.953129783012773  1.0000
  H   H4        1.0  0.3584988814968028  0.4558423166247667  0.05210457476740227  1.0000
  H   H5        1.0  0.4616705254408154  0.38448138331378967  0.9220474393053684  1.0000
  H   H6        1.0  0.3813635462727865  0.19344618618737908  0.5650296928506113  1.0000
  H   H7        1.0  0.4845356880561297  0.12477715132907274  0.43338934990269906  1.0000
  H   H8        1.0  0.6149997494938261  0.22223670991664135  0.45598475244147485  1.0000
  C   C15       1.0  0.9214960258237563  0.07984463839685407  0.6423745655507445  1.0000
  C   C16       1.0  0.903989477182795  0.0886409574366005  0.5074773825225765  1.0000
  C   C17       1.0  0.8951696774164659  0.9759735344704871  0.43892165512560455  1.0000
  C   C18       1.0  0.9040919245231446  0.8533935036776498  0.5070811750920703  1.0000
  C   C19       1.0  0.9216053049229267  0.8426420648758848  0.6420636649078684  1.0000
  C   C20       1.0  0.9302008935433365  0.9563789272707748  0.7088793397644013  1.0000
  C   C21       1.0  0.8766500496249003  0.9863245931066443  0.2962167195852745  1.0000
  C   C22       1.0  0.9129551099300971  0.9069014770504382  0.21396706471709437  1.0000
  C   C23       1.0  0.8954982716244128  0.9167675425366554  0.079656485764098  1.0000
  C   C24       1.0  0.8415571590186762  0.005948694516826558  0.02577675722931283  1.0000
  C   C25       1.0  0.8051123093532881  0.08534565655120185  0.10673111697705506  1.0000
  C   C26       1.0  0.8225144453204973  0.07571847292285772  0.24105817537120178  1.0000
  C   C27       1.0  0.8236136410548027  0.015983347247010338  0.887493878195317  1.0000
  C   C28       1.0  0.8085861381542413  0.024387274059402664  0.7716839620903286  1.0000
  C   C29       1.0  0.7909891097341916  0.034228157800224146  0.6360717332444858  1.0000
  C   C30       1.0  0.7759641289449991  0.042630822842830485  0.5202805299723265  1.0000
  H   H9        1.0  0.9281903373320625  0.40393407734985587  0.694272672406766  1.0000
  H   H10       1.0  0.8982060017889032  0.1834289623849703  0.4550974893049322  1.0000
  H   H11       1.0  0.8963281420051099  0.7661465520955986  0.4550341584146562  1.0000
  H   H12       1.0  0.9437018998105335  0.9488781120933497  0.8129296720483512  1.0000
  H   H13       1.0  0.9541857668618409  0.615022018003735  0.8969754762473692  1.0000
  H   H14       1.0  0.9555710296255373  0.8383686705255023  0.253294494484015  1.0000
  H   H15       1.0  0.924206794235519  0.8550806768171717  0.01782848471493126  1.0000
  H   H16       1.0  0.7631067258433508  0.1544690915971474  0.0660836883046878  1.0000
  H   H17       1.0  0.7929116325086959  0.13697623622689226  0.30201041150145835  1.0000
  H   H18       1.0  0.7627709862196028  0.05000907515369524  0.4186060946217971  1.0000
  C   C31       1.0  0.9215814906051238  0.46113339143339793  0.26086954607284474  1.0000
  C   C32       1.0  0.848626092696791  0.39992975690915444  0.2584318419707281  1.0000
  C   C33       1.0  0.8116286770009644  0.3690303389975311  0.14004719661717413  1.0000
  C   C34       1.0  0.8485633146022051  0.4001524724202481  0.023122725418047496  1.0000
  C   C35       1.0  0.9215198560272652  0.46135333317883465  0.023568685769623343  1.0000
  C   C36       1.0  0.9576203739841043  0.4915018634102972  0.14293187361228576  1.0000
  C   C37       1.0  0.7344469341880419  0.3042970069088433  0.13853102733175726  1.0000
  C   C38       1.0  0.6776330951217969  0.3434795137042559  0.042918512070557524  1.0000
  C   C39       1.0  0.6050064518753343  0.28252313471919455  0.04172938714106755  1.0000
  C   C40       1.0  0.5881344496768678  0.1819677906693551  0.13595645546779678  1.0000
  C   C41       1.0  0.6442653724468361  0.14195644901759752  0.2311078985506516  1.0000
  C   C42       1.0  0.7169394550318976  0.20274145592121062  0.23266337731563547  1.0000
  S   S1        1.0  0.49497593267141454  0.10362053732897092  0.13398305087359552  1.0000
  C   C43       1.0  0.45564861134753404  0.21612738911009188  0.23945323168375432  1.0000
  H   H19       1.0  0.9493920180075509  0.48440774046936386  0.5892563651732097  1.0000
  H   H20       1.0  0.8199510704553956  0.3777529527653791  0.34864878798546295  1.0000
  H   H21       1.0  0.820738878547297  0.37493348206438726  0.9317888529861911  1.0000
  H   H22       1.0  0.013902536225199436  0.5387170863269892  0.14404410137689094  1.0000
  H   H23       1.0  0.9493026516342802  0.4847313279543981  0.6962793627840149  1.0000
  H   H24       1.0  0.6890526502332002  0.4223528483828707  0.970139744032215  1.0000
  H   H25       1.0  0.5617835326405822  0.3139709726317068  0.9678551666176953  1.0000
  H   H26       1.0  0.6316733155233484  0.06372792544373707  0.3039155103024076  1.0000
  H   H27       1.0  0.7597493022677363  0.16922441016791367  0.30640391750044826  1.0000
  H   H28       1.0  0.488089727741182  0.21151401518603308  0.33511852801231945  1.0000
  H   H29       1.0  0.3947612812877475  0.18833654812177958  0.25526496605039206  1.0000
  H   H30       1.0  0.4586286215943714  0.3169881178248848  0.19306300427365652  1.0000
  Zn  Zn1       1.0  0.837484547902742  0.4575723182791678  0.6353573994656236  1.0000
  Zn  Zn2       1.0  0.005609444833753141  0.4649134529528385  0.6490796078326289  1.0000
  C   C44       1.0  0.9215290458152772  0.4561375277539703  0.8794041632545124  1.0000
  C   C45       1.0  0.9215667830643519  0.4663499624488485  0.4050331206818234  1.0000
  C   C46       1.0  0.9215811244986596  0.6984554603630355  0.6369471787469136  1.0000
  C   C47       1.0  0.9215146467825304  0.22403046690978634  0.6474901703781668  1.0000
  O   O1        1.0  0.9853643684625555  0.47088094742723663  0.45862324214215144  1.0000
  O   O2        1.0  0.9853343669322363  0.45717731421091234  0.8362285070067812  1.0000
  O   O3        1.0  0.9853755609300409  0.6528520721550652  0.6404427058423332  1.0000
  O   O4        1.0  0.9853231171043131  0.27520619624104325  0.6544089412506273  1.0000
  O   O5        1.0  0.8577708182594067  0.6472795724872062  0.6300280613580778  1.0000
  O   O6        1.0  0.8577296244872659  0.4516063749692929  0.8258137926442339  1.0000
  O   O7        1.0  0.8577596261883154  0.4653099624775239  0.44820696648079084  1.0000
  O   O8        1.0  0.8577183748177355  0.26963520202961333  0.6439927629556916  1.0000
