data_image0
_chemical_formula_structural       NC12NC2H8C12ClH9C13OH12Zn2C4O8
_chemical_formula_sum              "N2 C43 H29 Cl1 O9 Zn2"
_cell_length_a       19.240039667572717
_cell_length_b       10.299768534541528
_cell_length_c       10.299153481560891
_cell_angle_alpha    85.58394017871095
_cell_angle_beta     90.01662043824444
_cell_angle_gamma    90.01670575511149

_space_group_name_H-M_alt    "P 1"
_space_group_IT_number       1

loop_
  _space_group_symop_operation_xyz
  'x, y, z'

loop_
  _atom_site_type_symbol
  _atom_site_label
  _atom_site_symmetry_multiplicity
  _atom_site_fract_x
  _atom_site_fract_y
  _atom_site_fract_z
  _atom_site_occupancy
  N   N1        1.0  0.6544764395067941  0.42071928186808116  0.5675212226025441  1.0000
  C   C1        1.0  0.594328070689894  0.4207193658175823  0.5675211406698046  1.0000
  C   C2        1.0  0.5195100335457089  0.42071948305030826  0.5675210033707849  1.0000
  C   C3        1.0  0.48304232159869687  0.35629382066897497  0.6709301122308209  1.0000
  C   C4        1.0  0.4103715696342634  0.3561829731371742  0.6710166486464395  1.0000
  C   C5        1.0  0.37317779858745725  0.4207195755287101  0.5675207756925456  1.0000
  C   C6        1.0  0.4103597059872737  0.4852563649780617  0.4640250972922251  1.0000
  C   C7        1.0  0.4830303905688324  0.4851452819953235  0.4641117561954271  1.0000
  C   C8        1.0  0.295972708120729  0.420719496832364  0.5675206802714023  1.0000
  C   C9        1.0  0.2587737240548063  0.3074756206029199  0.6093848301952645  1.0000
  C   C10       1.0  0.1861030381703176  0.30758248535129984  0.6092935105065931  1.0000
  C   C11       1.0  0.1496404211868308  0.420719367683724  0.5675207411742982  1.0000
  C   C12       1.0  0.07482238405275189  0.420719254035657  0.5675209898303251  1.0000
  N   N2        1.0  0.014674067226657298  0.4207192132910085  0.5675211982490191  1.0000
  C   C13       1.0  0.1861253150635767  0.5338563258230855  0.525747918955435  1.0000
  C   C14       1.0  0.2587960137839607  0.5339633706293763  0.5256564366818088  1.0000
  H   H1        1.0  0.5107619395999161  0.3064143265631385  0.7516690326895805  1.0000
  H   H2        1.0  0.38328331277529726  0.3071019759936686  0.7528711349206163  1.0000
  H   H3        1.0  0.3832614320544351  0.534337389154582  0.38217056017083006  1.0000
  H   H4        1.0  0.5107405440578882  0.5350246759434858  0.3833731115283803  1.0000
  H   H5        1.0  0.2858579237914398  0.21833285881833375  0.6405472354806074  1.0000
  H   H6        1.0  0.1583794215727267  0.2193392834160579  0.6414889470398046  1.0000
  H   H7        1.0  0.1584191082118081  0.6220995032271937  0.49355249697127745  1.0000
  H   H8        1.0  0.2858982928699412  0.6231062115729338  0.4944939866294047  1.0000
  C   C15       1.0  0.8345130381680809  0.039353863817706225  0.5675190715462084  1.0000
  C   C16       1.0  0.8390692847624617  0.0488680037286402  0.43104916408493366  1.0000
  C   C17       1.0  0.8414447896483281  0.9365495296558887  0.36190616553274024  1.0000
  C   C18       1.0  0.8392020309110535  0.813580292111644  0.4310646541284555  1.0000
  C   C19       1.0  0.8346441492716867  0.8020746231399579  0.5675344995398683  1.0000
  C   C20       1.0  0.8323256891332145  0.9155182344934542  0.6349974761888686  1.0000
  C   C21       1.0  0.8462658428314  0.9476683643526105  0.21753238012606402  1.0000
  C   C22       1.0  0.8067142234979717  0.04118031563995528  0.14306804894519298  1.0000
  C   C23       1.0  0.8113138634282584  0.05144988782736504  0.0071873240068673905  1.0000
  C   C24       1.0  0.855397740125172  0.9687290043381168  0.9440790602840972  1.0000
  C   C25       1.0  0.8949377335859421  0.8755287265457685  0.01703216009272701  1.0000
  C   C26       1.0  0.8904615218733112  0.8648669086333665  0.15292752837777024  1.0000
  Cl  Cl1       1.0  0.8610912298715712  0.9818597511468531  0.7735928369181022  1.0000
  H   H9        1.0  0.8327412219537881  0.3631822572429617  0.6195175710601746  1.0000
  H   H10       1.0  0.8417406504524287  0.14386044957835242  0.3783161952525005  1.0000
  H   H11       1.0  0.8400595636824363  0.7267265020279463  0.3781181288034512  1.0000
  H   H12       1.0  0.828810050732191  0.9074103247985643  0.7402777276999859  1.0000
  H   H13       1.0  0.8329350568565456  0.47023668065838753  0.6195408000807037  1.0000
  H   H14       1.0  0.7715802390355795  0.10517390004690053  0.18981185760067132  1.0000
  H   H15       1.0  0.7804464459508573  0.12354261152583867  0.9510751670175566  1.0000
  H   H16       1.0  0.9292963411740272  0.8114878888711715  0.9685988614694625  1.0000
  H   H17       1.0  0.922210657789146  0.7930669293368564  0.20754536932118484  1.0000
  C   C27       1.0  0.8345188737233392  0.4205668347512521  0.18615425489737492  1.0000
  C   C28       1.0  0.7626575134303569  0.3961868957680985  0.186825254305498  1.0000
  C   C29       1.0  0.7263483863104538  0.3839885189946757  0.06999791079567963  1.0000
  C   C30       1.0  0.7628215470616728  0.39650419116752955  0.9515172931096076  1.0000
  C   C31       1.0  0.8346383216642581  0.42086169620003533  0.9488993458784192  1.0000
  C   C32       1.0  0.8700676423409807  0.43274718687365166  0.06675129436770622  1.0000
  C   C33       1.0  0.6503732085188559  0.35822600226798107  0.07168039566554052  1.0000
  C   C34       1.0  0.606427306479312  0.4234620454667073  0.9790140982797757  1.0000
  C   C35       1.0  0.5349301867597582  0.39926193883834515  0.9806753716052863  1.0000
  C   C36       1.0  0.50617542377463  0.30855071358430575  0.07413354326520105  1.0000
  C   C37       1.0  0.5496552560696957  0.24441093806694614  0.1677183932598445  1.0000
  C   C38       1.0  0.6211556678405542  0.2685813976367948  0.16623526899243157  1.0000
  C   C39       1.0  0.4291502734796487  0.28526430386629986  0.07804948747759877  1.0000
  O   O1        1.0  0.3979481716053089  0.3728513854931317  0.15755844602210067  1.0000
  H   H18       1.0  0.9700725041989532  0.46741480381754696  0.3921160960319934  1.0000
  H   H19       1.0  0.7346353965111474  0.3884232803778218  0.2783006825801757  1.0000
  H   H20       1.0  0.7352439942633069  0.38545204889750595  0.8613379550616593  1.0000
  H   H21       1.0  0.9254616941187034  0.4515385049220302  0.06544781412822798  1.0000
  H   H22       1.0  0.8622523989072641  0.4303163643491208  0.6204103410883084  1.0000
  H   H23       1.0  0.627215557064979  0.49471745268605694  0.9064578731683257  1.0000
  H   H24       1.0  0.5019631476480825  0.4515416659899911  0.9091956035972508  1.0000
  H   H25       1.0  0.5282265012722647  0.17536190257723394  0.24171454369781675  1.0000
  H   H26       1.0  0.6537049650046757  0.21610117252919303  0.2382382464772852  1.0000
  H   H27       1.0  0.41810184408595996  0.18347803060567203  0.11686631272446668  1.0000
  H   H28       1.0  0.4071533673637494  0.2986294372582414  0.9779189012280018  1.0000
  H   H29       1.0  0.347420652021593  0.35349800824596134  0.15685468006669012  1.0000
  Zn  Zn1       1.0  0.758421703917837  0.42071579780296897  0.5675287040015964  1.0000
  Zn  Zn2       1.0  0.9107288214254179  0.4207121080711105  0.5675243156360039  1.0000
  C   C40       1.0  0.8346132903576206  0.4156323299943683  0.804724099046739  1.0000
  C   C41       1.0  0.8345388984762404  0.42579721449314656  0.33032904804385077  1.0000
  C   C42       1.0  0.8346149728673299  0.6579021988493816  0.5623563992611298  1.0000
  C   C43       1.0  0.834537163737401  0.18352578537798858  0.572696817038594  1.0000
  O   O2        1.0  0.8923453753312806  0.42754551179152966  0.3787137601999937  1.0000
  O   O3        1.0  0.8924043913170858  0.41388025241690185  0.7563356823531739  1.0000
  O   O4        1.0  0.8924049710080274  0.6095162359789046  0.5606220500344528  1.0000
  O   O5        1.0  0.8923447436545867  0.23190953748327892  0.5744272951448037  1.0000
  O   O6        1.0  0.776805729713723  0.6095183683934711  0.5606257244874633  1.0000
  O   O7        1.0  0.7768051502769663  0.41388394509428283  0.7563392875917168  1.0000
  O   O8        1.0  0.7767461340851167  0.42754915860975173  0.37871580402203353  1.0000
  O   O9        1.0  0.7767455024192301  0.23191317505041908  0.5744294363354217  1.0000
