data_image0
_chemical_formula_structural       NC8NC6H8C12OCH12C15H12Zn2C4O8
_chemical_formula_sum              "N2 C46 H32 O9 Zn2"
_cell_length_a       17.457602349358154
_cell_length_b       10.29979075500242
_cell_length_c       10.299157797200024
_cell_angle_alpha    85.53980185155037
_cell_angle_beta     92.8989280324144
_cell_angle_gamma    91.67079993281202

_space_group_name_H-M_alt    "P 1"
_space_group_IT_number       1

loop_
  _space_group_symop_operation_xyz
  'x, y, z'

loop_
  _atom_site_type_symbol
  _atom_site_label
  _atom_site_symmetry_multiplicity
  _atom_site_fract_x
  _atom_site_fract_y
  _atom_site_fract_z
  _atom_site_occupancy
  N   N1        1.0  0.721841815700961  0.4531794772206479  0.6262465386354537  1.0000
  C   C1        1.0  0.6607697100998283  0.40725790961826913  0.6156346506567125  1.0000
  C   C2        1.0  0.584793428891962  0.3501371912227136  0.6024430041572888  1.0000
  C   C3        1.0  0.5262750132650569  0.39027810199880264  0.6773426238144249  1.0000
  C   C4        1.0  0.4517365751411398  0.3352754442569532  0.6647652485000419  1.0000
  C   C5        1.0  0.3896278892765382  0.37765826952530035  0.7440867994731426  1.0000
  C   C6        1.0  0.3150648752746296  0.39614144721131206  0.6883169016745492  1.0000
  C   C7        1.0  0.2565465152503866  0.4360984064163318  0.763324502522067  1.0000
  C   C8        1.0  0.1805447194626725  0.4551880263604422  0.7053389030320227  1.0000
  N   N2        1.0  0.1194521933454788  0.4705297011654428  0.6587186327539485  1.0000
  C   C9        1.0  0.2720990812076214  0.45781518770978114  0.8946105349642188  1.0000
  C   C10       1.0  0.3458774112968898  0.43972088525487263  0.9507680224122059  1.0000
  C   C11       1.0  0.4043842406400024  0.39994385347363104  0.8762181614193532  1.0000
  C   C12       1.0  0.4370049866399849  0.23945485547587975  0.5758552874067735  1.0000
  C   C13       1.0  0.4955117270582787  0.19959251174759673  0.5013556748740815  1.0000
  C   C14       1.0  0.5692655075184961  0.2547073943873386  0.5144830328908596  1.0000
  H   H1        1.0  0.5386210029811263  0.465453136750982  0.7439710290151302  1.0000
  H   H2        1.0  0.3026987766908647  0.38119903137273115  0.5862857168367921  1.0000
  H   H3        1.0  0.2272462527228247  0.48868151554843386  0.9534479638653721  1.0000
  H   H4        1.0  0.3577294301086319  0.4562210362300658  0.05242575742014033  1.0000
  H   H5        1.0  0.4608833234063688  0.38493982001808313  0.9223298672093501  1.0000
  H   H6        1.0  0.3805260440123736  0.19412295583714223  0.5652072193664965  1.0000
  H   H7        1.0  0.483679065664498  0.12553424398064128  0.43352873764045485  1.0000
  H   H8        1.0  0.6141186564282947  0.22297124496703247  0.45615685907195  1.0000
  C   C15       1.0  0.9207196268212041  0.0804899745713783  0.642527470218694  1.0000
  C   C16       1.0  0.8985417961366573  0.06831734158153524  0.7721624667560536  1.0000
  C   C17       1.0  0.8872432299303499  0.9450104433297393  0.8378113792176272  1.0000
  C   C18       1.0  0.8984039454161294  0.8330290525008615  0.7720854195797278  1.0000
  C   C19       1.0  0.9205817418256957  0.8432094695018227  0.6424494876706193  1.0000
  C   C20       1.0  0.931617185408873  0.967375518368234  0.5783972035105616  1.0000
  C   C21       1.0  0.8637850158228939  0.9331867942144243  0.9749595656634804  1.0000
  C   C22       1.0  0.8078160147934289  0.8398649944844002  0.015457032560602602  1.0000
  C   C23       1.0  0.7858068235885026  0.829013616799794  0.14440673614348043  1.0000
  C   C24       1.0  0.8192706979293416  0.9107933585315466  0.234493253755638  1.0000
  C   C25       1.0  0.8754443838494548  0.004732622277127563  0.19588432487421015  1.0000
  C   C26       1.0  0.8972156083234879  0.015212583906120347  0.0663884546489033  1.0000
  O   O1        1.0  0.9109273013949302  0.08895611659214109  0.2826557767749611  1.0000
  C   C27       1.0  0.894510543551621  0.08917679636457465  0.41665954325357357  1.0000
  H   H9        1.0  0.9292039112233385  0.4125812064736951  0.5931550074730427  1.0000
  H   H10       1.0  0.8889859980171776  0.15491157483066154  0.8218139500631951  1.0000
  H   H11       1.0  0.8907675905543403  0.7377802964404145  0.8228328315843145  1.0000
  H   H12       1.0  0.948727035228293  0.9759978197206769  0.47838932895849084  1.0000
  H   H13       1.0  0.9289943160208379  0.5196355478351045  0.5930335310571828  1.0000
  H   H14       1.0  0.7803592369270719  0.7764577516269798  0.9470010570391865  1.0000
  H   H15       1.0  0.7424844754130021  0.757143036960145  0.17454956728551996  1.0000
  H   H16       1.0  0.8011124381152959  0.9002212698912132  0.3336831311793653  1.0000
  H   H17       1.0  0.9411573408039016  0.08668352680666591  0.037809158832189715  1.0000
  H   H18       1.0  0.9077753677008543  0.993211368824486  0.4683685742659369  1.0000
  H   H19       1.0  0.9307244668833402  0.16538336508519635  0.4618339968261109  1.0000
  H   H20       1.0  0.8332675217079396  0.1114107102390558  0.42609432140412584  1.0000
  C   C28       1.0  0.9205617004072594  0.46195210394481356  0.2610891988124442  1.0000
  C   C29       1.0  0.8406534946637231  0.4404859110317796  0.25473997800422477  1.0000
  C   C30       1.0  0.80030196962204  0.42950010313188747  0.13439184083682365  1.0000
  C   C31       1.0  0.8408814874272464  0.4402871287008867  0.01949132136284626  1.0000
  C   C32       1.0  0.9207396174521728  0.4617473417963831  0.023887769685574378  1.0000
  C   C33       1.0  0.9601134047414978  0.4724487536803448  0.14517892212304173  1.0000
  C   C34       1.0  0.7158211001844331  0.40681088597281856  0.12872559046283816  1.0000
  C   C35       1.0  0.6813151685182434  0.31832646550748733  0.044808116569505785  1.0000
  C   C36       1.0  0.6018151141047359  0.2970680093525191  0.03950818718082538  1.0000
  C   C37       1.0  0.555405135734141  0.36322311574678046  0.11854209485877987  1.0000
  C   C38       1.0  0.5895003232207611  0.4525351569892957  0.20144923481680288  1.0000
  C   C39       1.0  0.668999603319372  0.47379777769745446  0.20689705132893765  1.0000
  C   C40       1.0  0.4697606722059581  0.34267082150019035  0.1104861838108957  1.0000
  C   C41       1.0  0.4352394071682124  0.43493154498707165  0.010247794920660525  1.0000
  C   C42       1.0  0.40686806564565015  0.5107981506004724  0.9278253206618716  1.0000
  H   H21       1.0  0.07144543172744555  0.5016763847596581  0.48043274734123265  1.0000
  H   H22       1.0  0.8097957015828021  0.43051456725448944  0.34375836743893173  1.0000
  H   H23       1.0  0.8099126756211885  0.4336977551541854  0.9263303098520201  1.0000
  H   H24       1.0  0.021710398009785026  0.4889978843324967  0.14928576996956044  1.0000
  H   H25       1.0  0.9514588887412597  0.4699603601526756  0.6981066882159932  1.0000
  H   H26       1.0  0.7159021938997961  0.2644703100050827  0.9842655205863555  1.0000
  H   H27       1.0  0.5764263163751344  0.2288046813915181  0.9738814703895429  1.0000
  H   H28       1.0  0.5544653138637453  0.5060625867178954  0.26161027254084335  1.0000
  H   H29       1.0  0.6937622551086459  0.5441410032495613  0.27083120686413453  1.0000
  H   H30       1.0  0.4544667700110405  0.2417636181868421  0.08580066762529648  1.0000
  H   H31       1.0  0.4453358455944418  0.3570498949309644  0.20571142144338594  1.0000
  H   H32       1.0  0.381981957331423  0.5774074514759495  0.8554676537350963  1.0000
  Zn  Zn1       1.0  0.8365835842436391  0.4581828923884199  0.6356247829840926  1.0000
  Zn  Zn2       1.0  0.004710414958639886  0.46551563543996544  0.6493510228680017  1.0000
  C   C43       1.0  0.9207052322264072  0.4566123712491559  0.879702922668822  1.0000
  C   C44       1.0  0.920590602649095  0.46708787522004314  0.4052731603825541  1.0000
  C   C45       1.0  0.9206026295990272  0.6990404894770372  0.6372883579142263  1.0000
  C   C46       1.0  0.9206931482048095  0.22465819418587119  0.6476877898569267  1.0000
  O   O2        1.0  0.9844035595859004  0.4715885590694193  0.4588716521022216  1.0000
  O   O3        1.0  0.9844966497021598  0.45767609009631527  0.836521955641758  1.0000
  O   O4        1.0  0.9844129369995929  0.6534398236122283  0.6407704091198541  1.0000
  O   O5        1.0  0.9844872148937721  0.2758248323675958  0.6546230965569135  1.0000
  O   O6        1.0  0.8568067269350691  0.6478736929599003  0.630352704604257  1.0000
  O   O7        1.0  0.8568904393358637  0.45211151974938746  0.8261041817154604  1.0000
  O   O8        1.0  0.8567973489145442  0.4660239438883591  0.4484523166596146  1.0000
  O   O9        1.0  0.8568810042436733  0.2702602078715559  0.6442038584905954  1.0000
