data_image0
_chemical_formula_structural       NC12NC2H8C12SCH12C12NH11Zn2C4O8
_chemical_formula_sum              "N3 C43 H31 S1 Zn2 O8"
_cell_length_a       17.80743265337812
_cell_length_b       10.299776766347529
_cell_length_c       10.299774167527174
_cell_angle_alpha    85.57893362728709
_cell_angle_beta     91.52767882299842
_cell_angle_gamma    89.41689066054833

_space_group_name_H-M_alt    "P 1"
_space_group_IT_number       1

loop_
  _space_group_symop_operation_xyz
  'x, y, z'

loop_
  _atom_site_type_symbol
  _atom_site_label
  _atom_site_symmetry_multiplicity
  _atom_site_fract_x
  _atom_site_fract_y
  _atom_site_fract_z
  _atom_site_occupancy
  N   N1        1.0  0.7072441808241344  0.40621533191511006  0.6014667633110327  1.0000
  C   C1        1.0  0.6564229814535809  0.43575134101158275  0.5327733401291419  1.0000
  C   C2        1.0  0.5931963945342053  0.47249199358368976  0.4473273690757631  1.0000
  C   C3        1.0  0.6049206048709831  0.5264706739939078  0.32071739704150426  1.0000
  C   C4        1.0  0.5436015081386237  0.5617085339666581  0.23766720699298238  1.0000
  C   C5        1.0  0.4704038884785289  0.5432309592021745  0.28056713719892823  1.0000
  C   C6        1.0  0.4577028989573551  0.4891336307307619  0.4076452183614072  1.0000
  C   C7        1.0  0.5198793121658954  0.45389901920003184  0.4906788978675538  1.0000
  C   C8        1.0  0.3799371090428413  0.4695428775075112  0.45340522463498156  1.0000
  C   C9        1.0  0.36113878444337827  0.49677106574824803  0.5804425931804407  1.0000
  C   C10       1.0  0.2879112086537484  0.47833507747621806  0.62338308522163  1.0000
  C   C11       1.0  0.23253898802752374  0.4324169076497548  0.5401241158848513  1.0000
  C   C12       1.0  0.1571748312796459  0.413428560049913  0.5844654283682102  1.0000
  N   N2        1.0  0.0965873862434702  0.3981632056136801  0.6201127932177104  1.0000
  C   C13       1.0  0.2506458204458559  0.40501998744298207  0.4136296770122492  1.0000
  C   C14       1.0  0.3238205528494393  0.42347067642615044  0.370433314459631  1.0000
  H   H1        1.0  0.6613854294861472  0.5412829614098122  0.286283072927477  1.0000
  H   H2        1.0  0.5527971647132739  0.6037730022399226  0.13989572148275786  1.0000
  H   H3        1.0  0.4237626506348901  0.5728446054216394  0.21498146842191868  1.0000
  H   H4        1.0  0.5113823108607125  0.41044920856619926  0.5883258977964183  1.0000
  H   H5        1.0  0.4028043808145716  0.5339718499071997  0.6460128891858172  1.0000
  H   H6        1.0  0.274458136722855  0.5002129681090701  0.7213866032517802  1.0000
  H   H7        1.0  0.20826307919126874  0.3690866152846308  0.3484723534072707  1.0000
  H   H8        1.0  0.336745507288033  0.40005734720147945  0.2727330600384943  1.0000
  C   C15       1.0  0.9019902152068539  0.02082260276332848  0.6107917286578128  1.0000
  C   C16       1.0  0.9064954700044126  0.009207877765288863  0.7475145554582678  1.0000
  C   C17       1.0  0.9087059873995001  0.8861854806306951  0.8167949943783455  1.0000
  C   C18       1.0  0.9063518167250687  0.7739230767844865  0.7475228653456458  1.0000
  C   C19       1.0  0.9018485684224671  0.7835458125542692  0.6107993852933882  1.0000
  C   C20       1.0  0.8996925530836268  0.9074341363798717  0.5431991365534956  1.0000
  C   C21       1.0  0.9134637594915719  0.8749624894578313  0.961431922076988  1.0000
  C   C22       1.0  0.8704624899176063  0.782413193653619  0.03341153930379115  1.0000
  C   C23       1.0  0.8749626732166236  0.7720850338240817  0.16952956441683265  1.0000
  C   C24       1.0  0.9222766941669105  0.854032010014194  0.23546557795979528  1.0000
  C   C25       1.0  0.9654571523555738  0.9460042176862458  0.1648675383850453  1.0000
  C   C26       1.0  0.9610671300167362  0.956679984944839  0.028744374495328295  1.0000
  S   S1        1.0  0.9281338935407509  0.840317308988388  0.41012769898520496  1.0000
  C   C27       1.0  0.8526403300598394  0.9579461852725982  0.42603998345019944  1.0000
  H   H9        1.0  0.9003030645467742  0.35270121093042506  0.558695540744446  1.0000
  H   H10       1.0  0.9072598082678286  0.09603875126615469  0.8005068427247071  1.0000
  H   H11       1.0  0.9090750152394509  0.6788685731802853  0.8004128375972857  1.0000
  H   H12       1.0  0.8962174542191498  0.9156259039526503  0.43772331370928375  1.0000
  H   H13       1.0  0.9000951191695079  0.45975951907958656  0.5587046878124442  1.0000
  H   H14       1.0  0.8326473019278292  0.7192173007755998  0.9844887649435972  1.0000
  H   H15       1.0  0.8413706383849363  0.7007339012338681  0.22363952187178693  1.0000
  H   H16       1.0  0.0024726675045141366  0.009272992752163312  0.21534087074635744  1.0000
  H   H17       1.0  0.9956072535134671  0.0276429756561265  0.9760927938724333  1.0000
  H   H18       1.0  0.8676829135616085  0.05395038386430784  0.37788517327714866  1.0000
  H   H19       1.0  0.8439280533480548  0.9688367926616247  0.5308967557621457  1.0000
  H   H20       1.0  0.7997792331675695  0.9234944985502639  0.38138843761018226  1.0000
  C   C28       1.0  0.9019449614827831  0.40206916287326844  0.2294446773017773  1.0000
  C   C29       1.0  0.8283771422200988  0.3542892283785015  0.2287412825075874  1.0000
  C   C30       1.0  0.7910734203840957  0.3301951183875438  0.11123578894540653  1.0000
  C   C31       1.0  0.8283254868398168  0.3545215955659835  0.9934341020204531  1.0000
  C   C32       1.0  0.9018937843967192  0.4022992936925822  0.9921463753166435  1.0000
  C   C33       1.0  0.9382914384152775  0.42580603248217197  0.11065111830813423  1.0000
  C   C34       1.0  0.7132429312565078  0.27964728362810254  0.1115449866735494  1.0000
  C   C35       1.0  0.6921476530826197  0.18163061422847337  0.2058315942698734  1.0000
  C   C36       1.0  0.6188900971122375  0.13411058807819964  0.20598874018359625  1.0000
  C   C37       1.0  0.5655690079538516  0.18373855969372266  0.11213146297606946  1.0000
  C   C38       1.0  0.5861686073226655  0.2813753233109857  0.017980474200330665  1.0000
  C   C39       1.0  0.6594035858902786  0.32899707729470884  0.017555968846399095  1.0000
  N   N3        1.0  0.49064354085616935  0.1350769875050335  0.11242890910906467  1.0000
  H   H21       1.0  0.9299904555032077  0.4202215754252989  0.5571709149252366  1.0000
  H   H22       1.0  0.7995375737269232  0.33738268935761173  0.31964548313621366  1.0000
  H   H23       1.0  0.80019398860862  0.33442803570676394  0.9027560539518866  1.0000
  H   H24       1.0  0.9950457871239414  0.4626651619637816  0.11042577568814727  1.0000
  H   H25       1.0  0.9299153540112243  0.4205600754192942  0.6641975470374577  1.0000
  H   H26       1.0  0.7325670842731056  0.1405268822979142  0.27841637446132084  1.0000
  H   H27       1.0  0.6037492968597427  0.058377784203295535  0.27908054481253974  1.0000
  H   H28       1.0  0.5454358623320463  0.32082024027881184  0.9451106045427804  1.0000
  H   H29       1.0  0.6736659753154608  0.40561453447513807  0.9447541305708764  1.0000
  H   H30       1.0  0.45050386756015043  0.1714632153892477  0.042842716267805336  1.0000
  H   H31       1.0  0.4747583369333013  0.06230482199019938  0.18223798431307348  1.0000
  Zn  Zn1       1.0  0.8196002231125014  0.40388819719957714  0.6068550913090778  1.0000
  Zn  Zn2       1.0  0.98423134271827  0.4004797501299684  0.6147350576634139  1.0000
  C   C40       1.0  0.9019027523966772  0.39708215452725937  0.8479793213445661  1.0000
  C   C41       1.0  0.9019306108878883  0.40728739423024196  0.373611041153731  1.0000
  C   C42       1.0  0.9018718028290061  0.6393734155004689  0.6056228070248622  1.0000
  C   C43       1.0  0.901961504563636  0.16499457414787444  0.6159676220042916  1.0000
  O   O1        1.0  0.9644024476576185  0.4077395267360975  0.4249849959464238  1.0000
  O   O2        1.0  0.9643821263099748  0.39404210973233167  0.8025857048466556  1.0000
  O   O3        1.0  0.9643562918369355  0.589695385003618  0.6068810645217717  1.0000
  O   O4        1.0  0.9644282259580151  0.21208626188867385  0.620689536212442  1.0000
  O   O5        1.0  0.839403283692235  0.5922816866054195  0.6009006100641732  1.0000
  O   O6        1.0  0.8394291178766765  0.3966299716078383  0.7966051811623243  1.0000
  O   O7        1.0  0.83944943938743  0.41032734288384565  0.41900291093723196  1.0000
  O   O8        1.0  0.8394752176799483  0.21467406877710715  0.6147075485662399  1.0000
