data_image0
_chemical_formula_structural       NC10NC3NCH9C16H10C13F3H9Zn2C4O8
_chemical_formula_sum              "N3 C47 H28 F3 Zn2 O8"
_cell_length_a       19.437513618241372
_cell_length_b       10.29914801576943
_cell_length_c       10.2985328690268
_cell_angle_alpha    85.55501211268866
_cell_angle_beta     90.35299087610198
_cell_angle_gamma    89.53623586623313

_space_group_name_H-M_alt    "P 1"
_space_group_IT_number       1

loop_
  _space_group_symop_operation_xyz
  'x, y, z'

loop_
  _atom_site_type_symbol
  _atom_site_label
  _atom_site_symmetry_multiplicity
  _atom_site_fract_x
  _atom_site_fract_y
  _atom_site_fract_z
  _atom_site_occupancy
  N   N1        1.0  0.6479519806174091  0.4101507314733963  0.5750573077140275  1.0000
  C   C1        1.0  0.5890205725584838  0.4271612891819827  0.5720754871659541  1.0000
  C   C2        1.0  0.5155825112059961  0.4484144296710595  0.568374220634634  1.0000
  C   C3        1.0  0.47380591753399215  0.3472139883606873  0.5567472540507215  1.0000
  C   C4        1.0  0.3979165902900265  0.3572776942446718  0.5495220543483617  1.0000
  C   C5        1.0  0.3583589193216544  0.43814867571903626  0.6152430324032547  1.0000
  C   C6        1.0  0.2821747866327989  0.429537669684503  0.6068011127455915  1.0000
  C   C7        1.0  0.24902367068628503  0.3081851220385783  0.6114846641231064  1.0000
  C   C8        1.0  0.1772874829848252  0.30181110992687255  0.6043181518286374  1.0000
  C   C9        1.0  0.1377317583363518  0.4163170147217743  0.5928305025397711  1.0000
  C   C10       1.0  0.0638810374006362  0.40960475597321344  0.5854959970612603  1.0000
  N   N2        1.0  0.0045101559181095  0.40420869016172434  0.5795995129033695  1.0000
  C   C11       1.0  0.17016630985929723  0.5373591505760975  0.5888923858464841  1.0000
  C   C12       1.0  0.2418869414364205  0.5439871879314111  0.5961208409365906  1.0000
  C   C13       1.0  0.3870636334694756  0.5304622121392191  0.705139527202864  1.0000
  N   N3        1.0  0.44405511406601733  0.5936745063058253  0.6847130389312561  1.0000
  C   C14       1.0  0.48788318879215103  0.5843856300125627  0.5715999324002754  1.0000
  H   H1        1.0  0.49617598869542257  0.2521478629582945  0.5446563196500214  1.0000
  H   H2        1.0  0.3731872185201142  0.2877464478419629  0.49122230254098564  1.0000
  H   H3        1.0  0.2784630945424478  0.21826930426576752  0.6225358490893125  1.0000
  H   H4        1.0  0.15268170938660403  0.2075788627653734  0.608236535399461  1.0000
  H   H5        1.0  0.14004174988926374  0.6266205624130445  0.5801537390086897  1.0000
  H   H6        1.0  0.2660112469263086  0.6386322613083164  0.5921868609568728  1.0000
  H   H7        1.0  0.3570716859968197  0.5508693505402498  0.7895058921475604  1.0000
  H   H8        1.0  0.5306457835286839  0.6547045979218631  0.5773406993847021  1.0000
  H   H9        1.0  0.4582106764446436  0.6124749035609325  0.48093825824404  1.0000
  C   C15       1.0  0.8261853823903671  0.02577912269143967  0.5774934082963306  1.0000
  C   C16       1.0  0.810469556876244  0.035598425126287525  0.44380946773629804  1.0000
  C   C17       1.0  0.8025518495373122  0.9234463658681614  0.3758649002775032  1.0000
  C   C18       1.0  0.8105613775488938  0.8003449542959324  0.4434060175796142  1.0000
  C   C19       1.0  0.8262833400722213  0.7885701337337081  0.5771747954082709  1.0000
  C   C20       1.0  0.8339997690043558  0.901804733728094  0.6433948471609732  1.0000
  C   C21       1.0  0.7859265713016416  0.9348796064608994  0.2344434156528965  1.0000
  C   C22       1.0  0.818473009871299  0.8533256765163014  0.14963410917205233  1.0000
  C   C23       1.0  0.8028018352008865  0.8642118258664984  0.016533352185718497  1.0000
  C   C24       1.0  0.7544232850851832  0.9565543365361937  0.9664354643809161  1.0000
  C   C25       1.0  0.7217513289046189  0.03809027532052722  0.04995913716022815  1.0000
  C   C26       1.0  0.7373734511440471  0.027446215637852767  0.18308021737024527  1.0000
  C   C27       1.0  0.7383151849822843  0.9676375061889967  0.8293961085099166  1.0000
  C   C28       1.0  0.7248248248210308  0.9769195546362673  0.7146276297121452  1.0000
  C   C29       1.0  0.7090277723718956  0.9877887084360404  0.5802349116312859  1.0000
  C   C30       1.0  0.6955396762486536  0.9970693477170074  0.4654849707915143  1.0000
  H   H10       1.0  0.8321949802507044  0.3494773921895271  0.6289276225416249  1.0000
  H   H11       1.0  0.8052766940207733  0.130724181667635  0.3918294401901563  1.0000
  H   H12       1.0  0.8035927099413405  0.713551875039684  0.39189798551288546  1.0000
  H   H13       1.0  0.8461197763356285  0.8935149967941858  0.7465095320710593  1.0000
  H   H14       1.0  0.8555316673499337  0.5590463692594138  0.8298291743093822  1.0000
  H   H15       1.0  0.8566938505427648  0.7822951698769757  0.18597332313327497  1.0000
  H   H16       1.0  0.8285385964397434  0.8008400846517147  0.9526816728258689  1.0000
  H   H17       1.0  0.6840776448066815  0.10967559029556195  0.012256900717464658  1.0000
  H   H18       1.0  0.7108346236564789  0.0904412670842012  0.2461188330934807  1.0000
  H   H19       1.0  0.6836960419331599  0.0052185320795519186  0.36472484763121926  1.0000
  C   C31       1.0  0.82621457504517  0.4070530086065416  0.19593640478625485  1.0000
  C   C32       1.0  0.8951974459670625  0.365008579668735  0.19904544749472386  1.0000
  C   C33       1.0  0.930151598652731  0.3438230288306692  0.08344991775917121  1.0000
  C   C34       1.0  0.8952380955437957  0.36526354061032307  0.9637451816083233  1.0000
  C   C35       1.0  0.8262541510481934  0.40729628161720477  0.9587317809084568  1.0000
  C   C36       1.0  0.7921829332628335  0.42791742096909857  0.07533048628610817  1.0000
  C   C37       1.0  0.003082921871409461  0.29938422942569276  0.08767134925757802  1.0000
  C   C38       1.0  0.05059579671255987  0.35319748936143314  0.9967120597742527  1.0000
  C   C39       1.0  0.11923396254596619  0.3114767504935334  0.0007064362872313268  1.0000
  C   C40       1.0  0.14160809826880105  0.21369957557634  0.09450381805390218  1.0000
  C   C41       1.0  0.09449370810216573  0.16169887361322943  0.18704474790379133  1.0000
  C   C42       1.0  0.025860025047566904  0.20345259553848472  0.1831613356150057  1.0000
  C   C43       1.0  0.21619643686307666  0.17216659970436976  0.10175443196479073  1.0000
  F   F1        1.0  0.25149005771417055  0.2508996907318588  0.18165545978812325  1.0000
  F   F2        1.0  0.24549802195392156  0.18285239592054192  0.9792658135278036  1.0000
  F   F3        1.0  0.2225515322013012  0.04392875826144582  0.151775214450951  1.0000
  H   H20       1.0  0.6959938433466717  0.4873177509944475  0.3973247274809564  1.0000
  H   H21       1.0  0.9221384616760091  0.3503988647905756  0.29147359553506313  1.0000
  H   H22       1.0  0.9216584500267103  0.34744025159332326  0.8744583656861056  1.0000
  H   H23       1.0  0.7390162454564027  0.46031664783979953  0.07220116078775574  1.0000
  H   H24       1.0  0.6957733488913529  0.4859816888779549  0.7419882089683538  1.0000
  H   H25       1.0  0.03492749829807096  0.42922925760225317  0.9237513970122899  1.0000
  H   H26       1.0  0.15490883156128077  0.35611233171152135  0.9306566518511645  1.0000
  H   H27       1.0  0.11071242185847052  0.088549712324822  0.26245408785886615  1.0000
  H   H28       1.0  0.9904330806659993  0.15976698991275384  0.25423355530199565  1.0000
  Zn  Zn1       1.0  0.7508469733788227  0.40843249959584416  0.5763756009930894  1.0000
  Zn  Zn2       1.0  0.9016151685497397  0.4059162550094333  0.5782918947590345  1.0000
  C   C44       1.0  0.8262444727558756  0.4020761995400355  0.8145492555070024  1.0000
  C   C45       1.0  0.8262193157737685  0.41227416638389247  0.3401183879625005  1.0000
  C   C46       1.0  0.8262610198645262  0.6443848148188738  0.5720593907849512  1.0000
  C   C47       1.0  0.8262027170216587  0.16996399155393327  0.5826083219263456  1.0000
  O   O1        1.0  0.8834366504101955  0.413065866712097  0.38923440449939917  1.0000
  O   O2        1.0  0.8834567095703719  0.3993737478698014  0.7668872881334934  1.0000
  O   O3        1.0  0.883469300344346  0.595041032421344  0.5710749963468207  1.0000
  O   O4        1.0  0.8834240081853895  0.2173985922791153  0.5850465982462758  1.0000
  O   O5        1.0  0.7690380822933868  0.5969501631862448  0.5696208968450789  1.0000
  O   O6        1.0  0.7690254917130867  0.4012844390459056  0.7654331187291883  1.0000
  O   O7        1.0  0.7690054325118326  0.4149765121297617  0.3877786735961113  1.0000
  O   O8        1.0  0.7689927902880729  0.21930922843830136  0.5835909647220152  1.0000
