data_image0
_chemical_formula_structural       NC10NC5H10C12NH11C12BrH9Zn2C4O8
_chemical_formula_sum              "N3 C43 H30 Br1 Zn2 O8"
_cell_length_a       19.4436361288709
_cell_length_b       10.299770795358612
_cell_length_c       10.299148005577397
_cell_angle_alpha    85.54782545814984
_cell_angle_beta     89.67790826124899
_cell_angle_gamma    89.43566516156574

_space_group_name_H-M_alt    "P 1"
_space_group_IT_number       1

loop_
  _space_group_symop_operation_xyz
  'x, y, z'

loop_
  _atom_site_type_symbol
  _atom_site_label
  _atom_site_symmetry_multiplicity
  _atom_site_fract_x
  _atom_site_fract_y
  _atom_site_fract_z
  _atom_site_occupancy
  N   N1        1.0  0.648227027087401  0.40950373211312163  0.561927904646986  1.0000
  C   C1        1.0  0.5893899992671209  0.41940095673962774  0.5763120519079832  1.0000
  C   C2        1.0  0.5160593429306025  0.43174410549925724  0.5943045870647337  1.0000
  C   C3        1.0  0.4738881040666928  0.39977768172955663  0.4996276570783731  1.0000
  C   C4        1.0  0.3979840985041439  0.4102141789832401  0.5049553804011648  1.0000
  C   C5        1.0  0.3582207149488791  0.3854323270988962  0.6120351971895002  1.0000
  C   C6        1.0  0.2821032331602451  0.3893530475592166  0.5990748673202528  1.0000
  C   C7        1.0  0.2415318089793435  0.44698393488315746  0.6928471091680004  1.0000
  C   C8        1.0  0.1698709776624241  0.45062502139635763  0.682302406974729  1.0000
  C   C9        1.0  0.137786697804624  0.3962391211975045  0.5782720297038586  1.0000
  C   C10       1.0  0.0639966608440344  0.39994149999522133  0.5675720332346192  1.0000
  N   N2        1.0  0.0046744760314879  0.40291801822412454  0.5589699454673791  1.0000
  C   C11       1.0  0.177633046213745  0.33790102726767524  0.48488308741059516  1.0000
  C   C12       1.0  0.2493103455002203  0.3342057976350121  0.49517600175219756  1.0000
  C   C13       1.0  0.3863223103748114  0.3449300600592664  0.7431394949490011  1.0000
  C   C14       1.0  0.44498382011249005  0.3880364592397447  0.7903819162517409  1.0000
  C   C15       1.0  0.4892208528075688  0.4859175175414927  0.7160043840541044  1.0000
  H   H1        1.0  0.4959995802195629  0.37068969310831124  0.4093176957609972  1.0000
  H   H2        1.0  0.3733068745367122  0.43273839249807233  0.41179054767266354  1.0000
  H   H3        1.0  0.2653938399580193  0.49024860359798894  0.7736971879260452  1.0000
  H   H4        1.0  0.1395195640647538  0.4959159303090166  0.7552244619423614  1.0000
  H   H5        1.0  0.1532991004982554  0.29483190740981713  0.4043674978501115  1.0000
  H   H6        1.0  0.27899565440968077  0.2866712975545729  0.4229504561434889  1.0000
  H   H7        1.0  0.3553344738391419  0.2806930572662878  0.8073938756284764  1.0000
  H   H8        1.0  0.4601098017261674  0.35393825914005683  0.8883238092662893  1.0000
  H   H9        1.0  0.4591310514064397  0.5766390124151086  0.6907455033568641  1.0000
  H   H10       1.0  0.5324980725286492  0.511483121069489  0.7790912371668486  1.0000
  C   C16       1.0  0.8263917047994751  0.024843425483716652  0.5604890337799793  1.0000
  C   C17       1.0  0.8064613765690328  0.03440641127296207  0.4292374790171969  1.0000
  C   C18       1.0  0.7964256165309228  0.9221147333378612  0.3626956609442802  1.0000
  C   C19       1.0  0.8065872824605652  0.7991224817849423  0.42916787795301237  1.0000
  C   C20       1.0  0.8265163658923889  0.7875682270995972  0.560419993620271  1.0000
  C   C21       1.0  0.836307308397236  0.9009856287165197  0.6253454494106725  1.0000
  C   C22       1.0  0.7753407871475946  0.9332852168669127  0.22383913148756163  1.0000
  C   C23       1.0  0.7252704641448307  0.02539491026887508  0.179065221513786  1.0000
  C   C24       1.0  0.7054549141017595  0.035778799342479184  0.04837215033152331  1.0000
  C   C25       1.0  0.7353346023941297  0.9544796775250393  0.9603758593402856  1.0000
  C   C26       1.0  0.7852400995368218  0.8625712431179158  0.00426053396165238  1.0000
  C   C27       1.0  0.8051107538704941  0.8519303146123403  0.1349231733642149  1.0000
  N   N3        1.0  0.7150365559580616  0.9652329786677891  0.8267021380804795  1.0000
  H   H11       1.0  0.8339568273806268  0.348652281440895  0.6105193371087823  1.0000
  H   H12       1.0  0.79960787604117  0.12944595907131062  0.37793955434070003  1.0000
  H   H13       1.0  0.7980070770709723  0.7122595457378122  0.3788244320068481  1.0000
  H   H14       1.0  0.8516821310090894  0.8928401918307265  0.7266002157126763  1.0000
  H   H15       1.0  0.8341401770027436  0.45571252928496936  0.6104181869408716  1.0000
  H   H16       1.0  0.7007878315614366  0.08824852255695803  0.24547491019154544  1.0000
  H   H17       1.0  0.6666860861634248  0.10698113697691314  0.015780658311141726  1.0000
  H   H18       1.0  0.80887230551228  0.7993878907185691  0.9371685949875634  1.0000
  H   H19       1.0  0.8444072045330012  0.7812287137916083  0.16607067278058185  1.0000
  H   H20       1.0  0.7370177466554558  0.9050413540803603  0.7603768221188933  1.0000
  H   H21       1.0  0.6778778283067453  0.03346570069303212  0.7930740661496589  1.0000
  C   C28       1.0  0.8265477940650265  0.4062561300747831  0.17906556055601341  1.0000
  C   C29       1.0  0.7618633176233826  0.4682310444748454  0.17415988121321258  1.0000
  C   C30       1.0  0.7289700527117604  0.49960217501277393  0.05453513951104849  1.0000
  C   C31       1.0  0.7616337559011247  0.4681624808520253  0.9388847577606598  1.0000
  C   C32       1.0  0.8263602697486925  0.4061555229671636  0.9418434793839476  1.0000
  C   C33       1.0  0.8584185942276811  0.3755821927695471  0.062360906691000695  1.0000
  C   C34       1.0  0.6605421752087354  0.56516607777985  0.050390434796713235  1.0000
  C   C35       1.0  0.6461115101267081  0.6667504442406533  0.1305791675249679  1.0000
  C   C36       1.0  0.5816761020400468  0.7283498998267848  0.12648361622414428  1.0000
  C   C37       1.0  0.5309390031636603  0.6893436147022414  0.042543560175001494  1.0000
  C   C38       1.0  0.5446789976597554  0.5885588744604906  0.9625080233705807  1.0000
  C   C39       1.0  0.609055895045641  0.526738534518828  0.9662115415292929  1.0000
  Br  Br1       1.0  0.4429607439503772  0.7736397413707778  0.03721602439706739  1.0000
  H   H22       1.0  0.8514422844409867  0.38247033277411124  0.5084238631619475  1.0000
  H   H23       1.0  0.7364871966979409  0.4906461269507201  0.26370801492030793  1.0000
  H   H24       1.0  0.7369371659053409  0.49371372871143815  0.8462709862270046  1.0000
  H   H25       1.0  0.9083123415920498  0.3277833145340596  0.06542872915705056  1.0000
  H   H26       1.0  0.9487203365865328  0.28985232952156537  0.7400773541776391  1.0000
  H   H27       1.0  0.6849252926310465  0.6996504265536201  0.19516166309524907  1.0000
  H   H28       1.0  0.571302500171022  0.8066078811937247  0.18836724560853613  1.0000
  H   H29       1.0  0.5054586999262638  0.5578183887286781  0.8976217083874212  1.0000
  H   H30       1.0  0.6182784998065078  0.4478125277874905  0.904538618928683  1.0000
  Zn  Zn1       1.0  0.7510900600167393  0.4075997649974832  0.5610818143716125  1.0000
  Zn  Zn2       1.0  0.9018114302576353  0.40481137629014974  0.5598267184439896  1.0000
  C   C40       1.0  0.8263933444695402  0.4010009030699411  0.7976626287413024  1.0000
  C   C41       1.0  0.8265097919140029  0.4114118463647818  0.32324601769362715  1.0000
  C   C42       1.0  0.8264905383974744  0.6433977451233512  0.5552576678924133  1.0000
  C   C43       1.0  0.8264125462833499  0.1690134449573879  0.5656510483542017  1.0000
  O   O1        1.0  0.8836950116343102  0.41207830714839866  0.3711579943626988  1.0000
  O   O2        1.0  0.8836021572387335  0.3982171401071173  0.7487976895270263  1.0000
  O   O3        1.0  0.8836798711766906  0.5939556696783355  0.5530539748849643  1.0000
  O   O4        1.0  0.8836172462908164  0.2163397878316986  0.5669016120524097  1.0000
  O   O5        1.0  0.7692841925497537  0.5960713544088891  0.5540069211846637  1.0000
  O   O6        1.0  0.7692064788807103  0.40033438514460973  0.7497505664365112  1.0000
  O   O7        1.0  0.7692993336984911  0.41419550713523146  0.3721093097930712  1.0000
  O   O8        1.0  0.7692215683267293  0.21845697851696855  0.5678530248566049  1.0000
