data_image0
_chemical_formula_structural       NC12NC2H8C12NH11C16H10Zn2C4O8
_chemical_formula_sum              "N3 C46 H29 Zn2 O8"
_cell_length_a       19.240039667572717
_cell_length_b       10.299770795358612
_cell_length_c       10.299151387937775
_cell_angle_alpha    85.58089315832936
_cell_angle_beta     89.98856263563692
_cell_angle_gamma    90.01598423534

_space_group_name_H-M_alt    "P 1"
_space_group_IT_number       1

loop_
  _space_group_symop_operation_xyz
  'x, y, z'

loop_
  _atom_site_type_symbol
  _atom_site_label
  _atom_site_symmetry_multiplicity
  _atom_site_fract_x
  _atom_site_fract_y
  _atom_site_fract_z
  _atom_site_occupancy
  N   N1        1.0  0.6548423718926303  0.4206508621299969  0.5673717331638577  1.0000
  C   C1        1.0  0.5946940030966418  0.4206509460756067  0.5673716512222733  1.0000
  C   C2        1.0  0.5198759659876578  0.42065106330161983  0.5673715139109974  1.0000
  C   C3        1.0  0.48338158118885066  0.35623065271590293  0.6707872430001034  1.0000
  C   C4        1.0  0.4107108072867015  0.35611980911221575  0.6708737911833342  1.0000
  C   C5        1.0  0.3735437310884646  0.4206511557680537  0.5673712862235818  1.0000
  C   C6        1.0  0.4107523332845938  0.48518268949411536  0.46386897579613984  1.0000
  C   C7        1.0  0.4834229958979138  0.48507161044440683  0.463955646492203  1.0000
  C   C8        1.0  0.2963386406472782  0.4206510770657286  0.5673711908114412  1.0000
  C   C9        1.0  0.2591294448024711  0.307408612373147  0.6092475548479417  1.0000
  C   C10       1.0  0.1864587821363217  0.3075154728934011  0.6091562238470476  1.0000
  C   C11       1.0  0.1500063536982847  0.42065094791943425  0.5673712517282119  1.0000
  C   C12       1.0  0.075188316499791  0.4206508342843336  0.5673715003956437  1.0000
  N   N2        1.0  0.0150399996193383  0.4206507935510009  0.567371708817934  1.0000
  C   C13       1.0  0.1865014361338335  0.5337864987500702  0.5255862267147344  1.0000
  C   C14       1.0  0.2591721581139631  0.5338935393206246  0.5254947331098607  1.0000
  H   H1        1.0  0.5110803709373647  0.3063552625260364  0.7515312861606362  1.0000
  H   H2        1.0  0.3836014243823404  0.3070429847851093  0.7527333082132246  1.0000
  H   H3        1.0  0.3836751854102968  0.5342595408516158  0.3820094079162837  1.0000
  H   H4        1.0  0.5111539775680563  0.5349469004911926  0.38321187913319976  1.0000
  H   H5        1.0  0.2862060758158035  0.2182668615517811  0.6404195821752703  1.0000
  H   H6        1.0  0.1587273199772977  0.21927334703715573  0.6413611797623244  1.0000
  H   H7        1.0  0.1588030748398493  0.6220286000757942  0.49338128535113457  1.0000
  H   H8        1.0  0.28628200593444664  0.6230353692991077  0.49432266100699773  1.0000
  C   C15       1.0  0.8348815370998685  0.039282317315393556  0.5674112968390022  1.0000
  C   C16       1.0  0.8147227447303269  0.048400995600460295  0.436000296352518  1.0000
  C   C17       1.0  0.8045718789175776  0.9358853289532335  0.3693782110269799  1.0000
  C   C18       1.0  0.8148499654908852  0.8131193526395376  0.43593174317189254  1.0000
  C   C19       1.0  0.8350075000438654  0.8020093827784253  0.5673432942084513  1.0000
  C   C20       1.0  0.8449107413582782  0.915645313001307  0.6323470588589766  1.0000
  C   C21       1.0  0.7832453509033503  0.9465857664941446  0.23035299974761414  1.0000
  C   C22       1.0  0.7326417785330538  0.03774420900951525  0.18516564118481593  1.0000
  C   C23       1.0  0.7125990518675976  0.04768623506225422  0.05431405144270918  1.0000
  C   C24       1.0  0.7427805694057384  0.9668883668442385  0.9665696719845651  1.0000
  C   C25       1.0  0.7932174545297795  0.8759276224532582  0.010866467694443438  1.0000
  C   C26       1.0  0.8133158609590229  0.8657295577131403  0.1416880842748598  1.0000
  N   N3        1.0  0.7222498435466046  0.9771891626088555  0.8327335632231705  1.0000
  H   H9        1.0  0.8425334097486008  0.36325994441153187  0.6175021128319236  1.0000
  H   H10       1.0  0.8077898008906902  0.1432841896449233  0.38464782117470975  1.0000
  H   H11       1.0  0.8061722843402878  0.7260687048068987  0.38551937578956896  1.0000
  H   H12       1.0  0.8604618082229072  0.9078426296462644  0.7337248259698517  1.0000
  H   H13       1.0  0.8427186741694639  0.470323522114783  0.6174024886282106  1.0000
  H   H14       1.0  0.7079110217304413  0.10018381201224069  0.2513691774039666  1.0000
  H   H15       1.0  0.6734176322400423  0.11815323301233649  0.02140233748878151  1.0000
  H   H16       1.0  0.8170887388491268  0.8131421679630442  0.943973655367015  1.0000
  H   H17       1.0  0.8530302487811922  0.7957722114363224  0.173160248974086  1.0000
  H   H18       1.0  0.7444528497238331  0.9173653679386727  0.7665936395177799  1.0000
  H   H19       1.0  0.6846953179829306  0.04471570052680485  0.7987986764460477  1.0000
  C   C27       1.0  0.8349847737673523  0.42047709747578677  0.18600635620077788  1.0000
  C   C28       1.0  0.7679339624318297  0.4744300339563101  0.18109309363129977  1.0000
  C   C29       1.0  0.733896390369637  0.5019592284211789  0.06144599733989242  1.0000
  C   C30       1.0  0.7678131182043728  0.4748076273501187  0.945780725791971  1.0000
  C   C31       1.0  0.8349042586417837  0.4208145466011719  0.9487483027732839  1.0000
  C   C32       1.0  0.8680777396537552  0.3939836203506879  0.06928768282110775  1.0000
  C   C33       1.0  0.662964752499285  0.5590352120266135  0.05729376812734355  1.0000
  C   C34       1.0  0.6453276538122344  0.6588473169713642  0.9619800989841929  1.0000
  C   C35       1.0  0.5785553349226596  0.7125280205737134  0.9582002962099203  1.0000
  C   C36       1.0  0.5285441966400245  0.6672050692769065  0.049432349039561396  1.0000
  C   C37       1.0  0.5455514712442644  0.5679513020360707  0.14458387570014186  1.0000
  C   C38       1.0  0.6123038358333236  0.5141830057944858  0.14861325123332958  1.0000
  C   C39       1.0  0.4598116788835218  0.7225154942021559  0.045413035770101695  1.0000
  C   C40       1.0  0.40224916511341663  0.7688371389868047  0.042046832511035026  1.0000
  C   C41       1.0  0.3348440600643854  0.8230793701907171  0.03810504203705922  1.0000
  C   C42       1.0  0.2772908485487971  0.8693937670363534  0.03473948925865278  1.0000
  H   H20       1.0  0.8607605984158306  0.39966192233038766  0.5153766570497968  1.0000
  H   H21       1.0  0.7424002594924399  0.49682436518618744  0.27039495749872233  1.0000
  H   H22       1.0  0.7414437072433379  0.49418659326926884  0.8534061097341139  1.0000
  H   H23       1.0  0.9197949119899498  0.35236478003858274  0.07236193456993711  1.0000
  H   H24       1.0  0.9613605264950512  0.3181471016609323  0.7471153952769329  1.0000
  H   H25       1.0  0.6834363480297216  0.6965492323570879  0.8914303223512934  1.0000
  H   H26       1.0  0.565998753788322  0.7895770590044864  0.8843410001402341  1.0000
  H   H27       1.0  0.5071734557468799  0.5318905799527431  0.21546491446050298  1.0000
  H   H28       1.0  0.6240389348030421  0.4363723325235027  0.22207959803041355  1.0000
  H   H29       1.0  0.2267543769982664  0.9100615689863158  0.03178426342949159  1.0000
  Zn  Zn1       1.0  0.7587876343660375  0.4206473784544891  0.5673792149131269  1.0000
  Zn  Zn2       1.0  0.9110947530487541  0.4206436884470952  0.5673748269692394  1.0000
  C   C43       1.0  0.8349170796589941  0.4155771268691355  0.8045741869925835  1.0000
  C   C44       1.0  0.8349669712019692  0.42571557866644216  0.33017998216301025  1.0000
  C   C45       1.0  0.8349806632301173  0.657835434982809  0.5621809874672037  1.0000
  C   C46       1.0  0.8349033353940727  0.18345571028369956  0.5725732510679034  1.0000
  O   O1        1.0  0.8927607533475456  0.42746659473401594  0.37856430338122116  1.0000
  O   O2        1.0  0.8927208763244187  0.4138223302844226  0.756186161665737  1.0000
  O   O3        1.0  0.8927714415513129  0.6094489784770734  0.5604519379790298  1.0000
  O   O4        1.0  0.8927101361603607  0.23183995578975014  0.5742984296934068  1.0000
  O   O5        1.0  0.7771721992794871  0.6094511111145036  0.5604556121836255  1.0000
  O   O6        1.0  0.7771216343144224  0.4138260231935911  0.7561897664854849  1.0000
  O   O7        1.0  0.7771615115411031  0.4274702416963747  0.37856634679592727  1.0000
  O   O8        1.0  0.7771108943392648  0.23184359350639383  0.5743005704773005  1.0000
