data_image0
_chemical_formula_structural       NC11NC3H8C12OCH12C12NCOH11Zn2C4O8
_chemical_formula_sum              "N3 C44 H31 O10 Zn2"
_cell_length_a       17.807433833752565
_cell_length_b       10.29979075500242
_cell_length_c       10.299148425239203
_cell_angle_alpha    85.53236164649607
_cell_angle_beta     88.51012908396928
_cell_angle_gamma    90.66694566819858

_space_group_name_H-M_alt    "P 1"
_space_group_IT_number       1

loop_
  _space_group_symop_operation_xyz
  'x, y, z'

loop_
  _atom_site_type_symbol
  _atom_site_label
  _atom_site_symmetry_multiplicity
  _atom_site_fract_x
  _atom_site_fract_y
  _atom_site_fract_z
  _atom_site_occupancy
  N   N1        1.0  0.7073735074614496  0.43906978138478214  0.5344551106654831  1.0000
  C   C1        1.0  0.6565504097991232  0.4043158046793991  0.6010245130018133  1.0000
  C   C2        1.0  0.5933213514222525  0.3610847236230379  0.6838283544235042  1.0000
  C   C3        1.0  0.6050417090700704  0.2974842633664878  0.8065597454887143  1.0000
  C   C4        1.0  0.5437200818427407  0.2559338875422139  0.8870793839038436  1.0000
  C   C5        1.0  0.4705237107472381  0.27767044086133774  0.8455084934249972  1.0000
  C   C6        1.0  0.45782659995737174  0.34142564181042  0.7223168621429152  1.0000
  C   C7        1.0  0.3800621824761335  0.3644934540516489  0.677965034376041  1.0000
  C   C8        1.0  0.3613006021765756  0.34767510291922  0.5483764817599295  1.0000
  C   C9        1.0  0.28807430187288957  0.36937294690889755  0.5067615191317398  1.0000
  C   C10       1.0  0.2326665721380419  0.4082080063108249  0.5939147553303661  1.0000
  C   C11       1.0  0.1573036338024653  0.4305648729259306  0.5509383576837055  1.0000
  N   N2        1.0  0.0967172046573528  0.4485381327795035  0.5163884617917058  1.0000
  C   C12       1.0  0.25073662967095334  0.4252371524134102  0.7229721220093359  1.0000
  C   C13       1.0  0.3239101369442705  0.4035042729239058  0.7648425345588821  1.0000
  C   C14       1.0  0.5200055374677546  0.3829714459465552  0.6418136410319528  1.0000
  H   H1        1.0  0.6615056807751395  0.2800561400527466  0.8399288180119298  1.0000
  H   H2        1.0  0.5529130151278654  0.20644286563357395  0.9818255548185548  1.0000
  H   H3        1.0  0.4238812446711309  0.24308848418386098  0.9089543767021855  1.0000
  H   H4        1.0  0.4029946310717826  0.3160621033194564  0.4796571117154125  1.0000
  H   H5        1.0  0.274649953353595  0.35553383472031763  0.40672073109756135  1.0000
  H   H6        1.0  0.2083261090318552  0.45562735258663545  0.7911767666799918  1.0000
  H   H7        1.0  0.33680580666841964  0.4188888524123411  0.8647004540107581  1.0000
  H   H8        1.0  0.5115108064383329  0.4338247077476438  0.5473017138121208  1.0000
  C   C15       1.0  0.9021164534047486  0.062437911426969306  0.5254574169426551  1.0000
  C   C16       1.0  0.880350228098017  0.05068661602837343  0.6579150966138751  1.0000
  C   C17       1.0  0.8692615039234992  0.9275944243917404  0.7250020227396903  1.0000
  C   C18       1.0  0.8802152681901158  0.8154010687237696  0.6578555692629056  1.0000
  C   C19       1.0  0.9019814602856051  0.8251601489427108  0.525396958549964  1.0000
  C   C20       1.0  0.9128119231451363  0.949116481877851  0.45994015132230803  1.0000
  C   C21       1.0  0.8462386473058353  0.9162164337347191  0.8651358539302196  1.0000
  C   C22       1.0  0.7914163236425278  0.8239978370007653  0.9127486170654693  1.0000
  C   C23       1.0  0.7698154948581256  0.8135645512550802  0.044499548744649786  1.0000
  C   C24       1.0  0.8025507346167335  0.8946687797845243  0.1303350824098588  1.0000
  C   C25       1.0  0.8575727828108555  0.9875005225430826  0.08458489381605527  1.0000
  C   C26       1.0  0.87894079073334  0.9975671827652726  0.9523180275796981  1.0000
  O   O1        1.0  0.8922863982972018  0.07100896442198135  0.16684862958780933  1.0000
  C   C27       1.0  0.8761600001185949  0.0715362372835946  0.30294292137831413  1.0000
  H   H9        1.0  0.9104431923360612  0.39436792702129964  0.47500512327138367  1.0000
  H   H10       1.0  0.870974115188901  0.13746325522728897  0.7087826174412895  1.0000
  H   H11       1.0  0.8727183379531738  0.7202965387101511  0.7095750721487171  1.0000
  H   H12       1.0  0.9296042245297156  0.9574137273754612  0.3577546209396749  1.0000
  H   H13       1.0  0.9102379941015019  0.5014264377202526  0.4749102847602278  1.0000
  H   H14       1.0  0.7645553277850093  0.761144086257765  0.8477806871777951  1.0000
  H   H15       1.0  0.7273811762246379  0.7425480642411187  0.08014988257179312  1.0000
  H   H16       1.0  0.7847320963871608  0.8844426315974905  0.23183585435682375  1.0000
  H   H17       1.0  0.9219810464552674  0.06817154419463445  0.9181525444749725  1.0000
  H   H18       1.0  0.889129975012412  0.9753008147137849  0.35296735014320235  1.0000
  H   H19       1.0  0.9116051076188696  0.1470190604817605  0.3435155578931419  1.0000
  H   H20       1.0  0.8161848408210494  0.09498216453048158  0.32016248540618275  1.0000
  C   C28       1.0  0.9021054239975475  0.4439562571390423  0.14402836430439336  1.0000
  C   C29       1.0  0.9783216081457473  0.4813685314089611  0.13651916865792435  1.0000
  C   C30       1.0  0.016845513479543772  0.5001202334289179  0.015585266607985426  1.0000
  C   C31       1.0  0.9781632947419324  0.4810245320493012  0.9012693896092587  1.0000
  C   C32       1.0  0.9019924572860343  0.44364183413629177  0.906826022392059  1.0000
  C   C33       1.0  0.8644103957021961  0.42531790373911194  0.028690569900541307  1.0000
  C   C34       1.0  0.09742769890850944  0.5396725612879707  0.008736209363450653  1.0000
  C   C35       1.0  0.14791968866324834  0.4835296995072307  0.922800205853211  1.0000
  C   C36       1.0  0.22371110909924097  0.5208860935763211  0.9165060393780164  1.0000
  C   C37       1.0  0.2507853840719525  0.6138171763184366  0.9967506329243889  1.0000
  C   C38       1.0  0.20021851068216745  0.6718044266870302  0.08112155320625858  1.0000
  C   C39       1.0  0.12439312046567741  0.6345538747328363  0.0875141278972984  1.0000
  N   N3        1.0  0.32880042240801277  0.6519212582443266  0.9865919405793244  1.0000
  C   C40       1.0  0.37200709562439616  0.6896449081746652  0.09331391580443649  1.0000
  O   O2        1.0  0.34658987432978594  0.6748642943369298  0.20885476394265834  1.0000
  H   H21       1.0  0.7583707932058626  0.3725814607975795  0.36554898537482017  1.0000
  H   H22       1.0  0.00812606234446811  0.494288715854992  0.22506149223602034  1.0000
  H   H23       1.0  0.007309173117916901  0.4971249548124492  0.8076826918059137  1.0000
  H   H24       1.0  0.8056588040369148  0.39648018045089684  0.03369159474012973  1.0000
  H   H25       1.0  0.8726973173556526  0.4292272009679252  0.58149001537722  1.0000
  H   H26       1.0  0.12899186354981973  0.40955986077498974  0.8615120943861698  1.0000
  H   H27       1.0  0.2616788276000208  0.4762716250576695  0.8497932926618552  1.0000
  H   H28       1.0  0.21871963036519815  0.7479284192866844  0.14002266720327627  1.0000
  H   H29       1.0  0.08651357701013018  0.6818367322661183  0.15232997589866293  1.0000
  H   H30       1.0  0.35769607490279487  0.6436846754973913  0.898068804341424  1.0000
  H   H31       1.0  0.4284097468314574  0.7280561999971611  0.07486955686570784  1.0000
  Zn  Zn1       1.0  0.8197296874908657  0.44179866537089696  0.5292489514430982  1.0000
  Zn  Zn2       1.0  0.984361010179477  0.44579862491530275  0.5216052086996199  1.0000
  C   C41       1.0  0.9020130567833914  0.43852758384407076  0.7626414486551076  1.0000
  C   C42       1.0  0.9020794383469345  0.44907138867661245  0.28821275536484925  1.0000
  C   C43       1.0  0.9020038576844129  0.6809914734084328  0.5202330269006248  1.0000
  C   C44       1.0  0.9020885815346963  0.20660593742763722  0.5306212490952527  1.0000
  O   O3        1.0  0.9645474473051205  0.4523003716490952  0.33370159405871114  1.0000
  O   O4        1.0  0.9644964126651502  0.43833349805180477  0.7113508122853336  1.0000
  O   O5        1.0  0.9644881418602123  0.6341261342298758  0.5156043356360409  1.0000
  O   O6        1.0  0.9645556619453163  0.25650774343640426  0.5294479759332493  1.0000
  O   O7        1.0  0.8395349795444366  0.6310895454862231  0.5214061868110718  1.0000
  O   O8        1.0  0.8395432500800013  0.4352984696291915  0.7171525940860464  1.0000
  O   O9        1.0  0.8395942850091836  0.4492652986157206  0.3395018143374524  1.0000
  O   O10       1.0  0.8396024996335317  0.2534726610740763  0.5352482935883476  1.0000
