data_image0
_chemical_formula_structural       NC12NC2H8C13OH12C12NCOH11Zn2C4O8
_chemical_formula_sum              "N3 C44 H31 O10 Zn2"
_cell_length_a       17.80743265337812
_cell_length_b       10.299150109392551
_cell_length_c       10.299148425239203
_cell_angle_alpha    85.51660845067315
_cell_angle_beta     91.51916060690998
_cell_angle_gamma    89.41750150667457

_space_group_name_H-M_alt    "P 1"
_space_group_IT_number       1

loop_
  _space_group_symop_operation_xyz
  'x, y, z'

loop_
  _atom_site_type_symbol
  _atom_site_label
  _atom_site_symmetry_multiplicity
  _atom_site_fract_x
  _atom_site_fract_y
  _atom_site_fract_z
  _atom_site_occupancy
  N   N1        1.0  0.7073576678496912  0.4073320181021072  0.6007726759446814  1.0000
  C   C1        1.0  0.6565420375448829  0.4369192933299084  0.5320602675452346  1.0000
  C   C2        1.0  0.5933223778424476  0.47372371465860885  0.4465906806691662  1.0000
  C   C3        1.0  0.6050568525548162  0.527796842853564  0.3199458923012295  1.0000
  C   C4        1.0  0.5437444887479829  0.5630966407590792  0.23687292918883207  1.0000
  C   C5        1.0  0.4705433911301726  0.5445870467368052  0.27978472811931354  1.0000
  C   C6        1.0  0.45783209929408  0.49039492861839373  0.40689772341712493  1.0000
  C   C7        1.0  0.520001780915118  0.45509839112775086  0.4899541728954173  1.0000
  C   C8        1.0  0.3800625995671058  0.47077003221853575  0.4526703443300335  1.0000
  C   C9        1.0  0.3612539866718358  0.49791083104749556  0.5797115461730222  1.0000
  C   C10       1.0  0.2880229296438706  0.47944279859649885  0.6226638955936237  1.0000
  C   C11       1.0  0.2326574481588969  0.4335793583033025  0.5394131413041261  1.0000
  C   C12       1.0  0.1572896966129212  0.41455792561498206  0.5837666792333778  1.0000
  N   N2        1.0  0.096699361606369  0.39926597304099687  0.6194238725115191  1.0000
  C   C13       1.0  0.2507745248655471  0.40626942818352885  0.41291499445937063  1.0000
  C   C14       1.0  0.3239527592386582  0.42475234366317105  0.3697067402330336  1.0000
  H   H1        1.0  0.6615244688065866  0.5426348293199925  0.2855020488377369  1.0000
  H   H2        1.0  0.5529480717883604  0.6052340785580412  0.13907441211901372  1.0000
  H   H3        1.0  0.42390747058894607  0.5742497679152265  0.21418039276132794  1.0000
  H   H4        1.0  0.5114968630467372  0.4115755734516524  0.5876287198019718  1.0000
  H   H5        1.0  0.4029142757938963  0.5350686072575872  0.6452749757679217  1.0000
  H   H6        1.0  0.27456192087846876  0.5012533513885937  0.7206700374019099  1.0000
  H   H7        1.0  0.2083970575703649  0.37037888674573605  0.34776409924290075  1.0000
  H   H8        1.0  0.3368856257405616  0.40140599859774406  0.272004482747187  1.0000
  C   C15       1.0  0.9021028959691385  0.021897760679673972  0.6102459534605436  1.0000
  C   C16       1.0  0.9006988081863943  0.010065133041477159  0.7469987240825491  1.0000
  C   C17       1.0  0.8999215770206052  0.8869326040096106  0.8160684396052791  1.0000
  C   C18       1.0  0.9005540175830651  0.7748129407529748  0.7466283682870567  1.0000
  C   C19       1.0  0.9019613251190609  0.7846900591652387  0.609962156751648  1.0000
  C   C20       1.0  0.9027296063376229  0.9086926757655214  0.5425697150763895  1.0000
  C   C21       1.0  0.8984296744653109  0.8753969493271492  0.9606469236410573  1.0000
  C   C22       1.0  0.852224408908838  0.7834453400609485  0.02645952763395465  1.0000
  C   C23       1.0  0.8507956405700491  0.7726722254733612  0.16250654430270495  1.0000
  C   C24       1.0  0.8960390534600533  0.8526813741770135  0.23522398935440614  1.0000
  C   C25       1.0  0.941525476789316  0.9456012401086815  0.17001956500202597  1.0000
  C   C26       1.0  0.9429716839804682  0.9565497905671927  0.03397309499694057  1.0000
  C   C27       1.0  0.8929241341643167  0.8434920155485276  0.3811709764550013  1.0000
  O   O1        1.0  0.8367677560120819  0.927813897354252  0.4187242357729909  1.0000
  H   H9        1.0  0.9042650994067972  0.2515353473507127  0.3520953094577317  1.0000
  H   H10       1.0  0.8991649644766411  0.09684666618911897  0.7999374284717264  1.0000
  H   H11       1.0  0.9009748201964269  0.6796580784735241  0.799485634142731  1.0000
  H   H12       1.0  0.9038129789503625  0.9170274453519591  0.4371548749070677  1.0000
  H   H13       1.0  0.9024520598858129  0.4610147248786565  0.5573931163609311  1.0000
  H   H14       1.0  0.816304308152192  0.7212042528315711  0.9726265619642598  1.0000
  H   H15       1.0  0.8142431022837376  0.7020772516284758  0.2111345066053244  1.0000
  H   H16       1.0  0.9760616531640971  0.009423633414421317  0.2245324911942489  1.0000
  H   H17       1.0  0.9795492739162162  0.02758931632070083  0.9861530308936779  1.0000
  H   H18       1.0  0.9481786170096766  0.8701584537992842  0.4239906431649455  1.0000
  H   H19       1.0  0.88070978230371  0.741706787949752  0.418401009407969  1.0000
  H   H20       1.0  0.8370316940112458  0.9180878045037522  0.5153701311711161  1.0000
  C   C28       1.0  0.9020885871927542  0.4034486158163917  0.2287104796798567  1.0000
  C   C29       1.0  0.9783040759034618  0.43743142358415743  0.2283791853424717  1.0000
  C   C30       1.0  0.016827631087221073  0.4544496688812283  0.11107343827459104  1.0000
  C   C31       1.0  0.9781457662331196  0.437094525440038  0.9931145701785975  1.0000
  C   C32       1.0  0.901975623738051  0.40313925419774344  0.9914975703000812  1.0000
  C   C33       1.0  0.8643939040073572  0.38650639789052743  0.10982267349791464  1.0000
  C   C34       1.0  0.09740908126748837  0.49037607491760316  0.11181346523497049  1.0000
  C   C35       1.0  0.1479013059392651  0.4319544564769653  0.030655058751754893  1.0000
  C   C36       1.0  0.22369203350162792  0.4659005097584419  0.03149874795651275  1.0000
  C   C37       1.0  0.2507653768616389  0.5576200256984916  0.11427114933724081  1.0000
  C   C38       1.0  0.2001982530682911  0.6178895600778156  0.19385690058772265  1.0000
  C   C39       1.0  0.12437355498226932  0.5840508877149042  0.19310838654585338  1.0000
  N   N3        1.0  0.32877970498996634  0.5922136828193534  0.11145982392134823  1.0000
  C   C40       1.0  0.37198584200913576  0.627994566591483  0.2222463632604521  1.0000
  O   O2        1.0  0.34656887243989787  0.6143574470801441  0.3353941002356158  1.0000
  H   H21       1.0  0.7583552749592114  0.338541315385412  0.4366946616134566  1.0000
  H   H22       1.0  0.008108272848474263  0.44901036648356807  0.3197289104053458  1.0000
  H   H23       1.0  0.007291363249387395  0.45188363428160483  0.9022722826679201  1.0000
  H   H24       1.0  0.8056428484086273  0.36031229457196345  0.10929058004787318  1.0000
  H   H25       1.0  0.8726807514089684  0.39004279880836257  0.6634026099341059  1.0000
  H   H26       1.0  0.12897420949347072  0.3588308777582132  0.9676022244196938  1.0000
  H   H27       1.0  0.2616599492581484  0.41957231695330366  0.9683792028074656  1.0000
  H   H28       1.0  0.21869862766024917  0.6931866912700944  0.2544818982463166  1.0000
  H   H29       1.0  0.08649379090175557  0.633043722229609  0.2543386120525497  1.0000
  H   H30       1.0  0.3576752865464121  0.5826750136774015  0.025664220466660392  1.0000
  H   H31       1.0  0.4283878863798882  0.663868832750796  0.20911094083892046  1.0000
  Zn  Zn1       1.0  0.8197132732978925  0.4050008611236602  0.6061624970923547  1.0000
  Zn  Zn2       1.0  0.9843437540617954  0.401586531367933  0.6140446490414977  1.0000
  C   C41       1.0  0.9019962670950067  0.3980236470206593  0.8473163520095741  1.0000
  C   C42       1.0  0.9020625577013878  0.4085653468930117  0.3728910070620739  1.0000
  C   C43       1.0  0.9019849838904572  0.6405082957066135  0.6048400905997162  1.0000
  C   C44       1.0  0.9020737850084186  0.16607913890952086  0.6153673356060152  1.0000
  O   O3        1.0  0.9645302324888732  0.40898118201533373  0.4242705468517327  1.0000
  O   O4        1.0  0.9644793181545122  0.3950154349622317  0.8019188096631011  1.0000
  O   O5        1.0  0.9644693644122813  0.590824872332292  0.6061174721885103  1.0000
  O   O6        1.0  0.9645401300665688  0.21317175514085562  0.6200717842522607  1.0000
  O   O7        1.0  0.8395168411128165  0.5934156385172975  0.6001353591849679  1.0000
  O   O8        1.0  0.8395267945722634  0.3976077616113338  0.7959366268288524  1.0000
  O   O9        1.0  0.8395777091962184  0.41157346403690553  0.4182868025351114  1.0000
  O   O10       1.0  0.8395876067581468  0.21576402783340565  0.6140881373130789  1.0000
