data_image0
_chemical_formula_structural       NC9NC5H8C16H10C12BrH9Zn2C4O8
_chemical_formula_sum              "N2 C46 H27 Br1 Zn2 O8"
_cell_length_a       17.807436237873137
_cell_length_b       10.29914801576943
_cell_length_c       10.299148005577397
_cell_angle_alpha    85.52895802354352
_cell_angle_beta     89.3653557848841
_cell_angle_gamma    88.40369483635645

_space_group_name_H-M_alt    "P 1"
_space_group_IT_number       1

loop_
  _space_group_symop_operation_xyz
  'x, y, z'

loop_
  _atom_site_type_symbol
  _atom_site_label
  _atom_site_symmetry_multiplicity
  _atom_site_fract_x
  _atom_site_fract_y
  _atom_site_fract_z
  _atom_site_occupancy
  N   N1        1.0  0.7079941411887395  0.3880498448529319  0.556464711239246  1.0000
  C   C1        1.0  0.6474046450338681  0.35285884771474074  0.5454549911804445  1.0000
  C   C2        1.0  0.5720379711709617  0.3090851227123812  0.5317600948270664  1.0000
  C   C3        1.0  0.5539648060903649  0.23767823650773767  0.4267814435410815  1.0000
  C   C4        1.0  0.4807876613733506  0.19506582867236122  0.41340199550854306  1.0000
  C   C5        1.0  0.4246349190419232  0.22348275258651107  0.5049689042281915  1.0000
  C   C6        1.0  0.346866471971245  0.17831165248888725  0.490832046466261  1.0000
  C   C7        1.0  0.2846945997313776  0.26007072938007325  0.5167379920145794  1.0000
  C   C8        1.0  0.2113751180069824  0.2172552660648206  0.5033723113404831  1.0000
  C   C9        1.0  0.1481534354093132  0.3017058545317248  0.5296410471526272  1.0000
  N   N2        1.0  0.0973361902701356  0.36959828488799396  0.5507603866769886  1.0000
  C   C10       1.0  0.1996439343254608  0.09242272937093565  0.46407544255093214  1.0000
  C   C11       1.0  0.2609584370592115  0.01064980020970352  0.4381611126669085  1.0000
  C   C12       1.0  0.334158485991257  0.05307071851276901  0.4513244097161848  1.0000
  C   C13       1.0  0.4433994989051628  0.2953840146475155  0.6101665893010113  1.0000
  C   C14       1.0  0.51662953016298  0.3378060337087314  0.623390458011998  1.0000
  H   H1        1.0  0.5963758765514597  0.2152006143816696  0.3550741404441573  1.0000
  H   H2        1.0  0.4678899021489576  0.14139021969003895  0.330499498784232  1.0000
  H   H3        1.0  0.2931979554763389  0.35753933279893535  0.545575601919869  1.0000
  H   H4        1.0  0.1431769898604598  0.05838544883077712  0.4534943002197842  1.0000
  H   H5        1.0  0.2517571747048229  0.9140015152879326  0.4081226789484218  1.0000
  H   H6        1.0  0.3807952301654167  0.9873231223748931  0.43230263041349226  1.0000
  H   H7        1.0  0.4017048847826427  0.31732237776258376  0.6831686902241374  1.0000
  H   H8        1.0  0.5300560903844513  0.39270245741640597  0.7052507556715564  1.0000
  C   C15       1.0  0.9026152129260224  0.9974250483910546  0.5537788600646965  1.0000
  C   C16       1.0  0.8854977948823787  0.007854563399868342  0.4205491393179708  1.0000
  C   C17       1.0  0.8768741517223881  0.896010193952187  0.3528334214742135  1.0000
  C   C18       1.0  0.8855981896012565  0.7725980495065238  0.420143058330785  1.0000
  C   C19       1.0  0.9027222813628666  0.7602127636978218  0.553457438340877  1.0000
  C   C20       1.0  0.9111266994248092  0.8731474945559485  0.6194544580802352  1.0000
  C   C21       1.0  0.8587661732375743  0.9080889598982451  0.21189244175272637  1.0000
  C   C22       1.0  0.8943328154455712  0.8254307429221678  0.12614949131023412  1.0000
  C   C23       1.0  0.8772639642369816  0.8369252815007625  0.9935016596907476  1.0000
  C   C24       1.0  0.8244533232726012  0.9309869101064387  0.9447950011080901  1.0000
  C   C25       1.0  0.7887500402179021  0.013632105577979114  0.029255949794728453  1.0000
  C   C26       1.0  0.8057653220434489  0.0023813683811320097  0.16192551386647835  1.0000
  C   C27       1.0  0.8069086522621707  0.942695531732414  0.8082212029569171  1.0000
  C   C28       1.0  0.7922151792907853  0.9525013892414351  0.6938426237201525  1.0000
  C   C29       1.0  0.7750092960078724  0.9639839173485578  0.5599064734247206  1.0000
  C   C30       1.0  0.760318289223702  0.973788278101109  0.44554636672455983  1.0000
  H   H9        1.0  0.9091606655351744  0.32088983911210667  0.6050393784182051  1.0000
  H   H10       1.0  0.8798443530847138  0.10318538969219238  0.3687193476857502  1.0000
  H   H11       1.0  0.8780055053181565  0.6860721240444694  0.3688362844355133  1.0000
  H   H12       1.0  0.9243276057520718  0.8643871552221569  0.722218849400363  1.0000
  H   H13       1.0  0.9345778225613716  0.5295516470727262  0.8052664053339496  1.0000
  H   H14       1.0  0.9360562250278809  0.7530434978524095  0.1613896456709052  1.0000
  H   H15       1.0  0.9053879684589644  0.7726788864296668  0.9289116199687522  1.0000
  H   H16       1.0  0.7476245411540388  0.08655556652719243  0.9926370757189074  1.0000
  H   H17       1.0  0.7767657664046498  0.06627956716100547  0.2257255547516761  1.0000
  H   H18       1.0  0.7474184026442109  0.9823973322727139  0.3451285493326486  1.0000
  C   C31       1.0  0.902771157501437  0.378866104068702  0.17222841892557827  1.0000
  C   C32       1.0  0.8321149849986897  0.44299965415030385  0.1678010819244482  1.0000
  C   C33       1.0  0.7961850065611019  0.4754684785774883  0.048419633811980445  1.0000
  C   C34       1.0  0.8318642410541656  0.442938726033584  0.9325277512140939  1.0000
  C   C35       1.0  0.9025663315584724  0.37877173032853295  0.9350078169139824  1.0000
  C   C36       1.0  0.9375842876200573  0.3471285694940156  0.05528812573806574  1.0000
  C   C37       1.0  0.7214398406615194  0.543315941168151  0.044780953137634416  1.0000
  C   C38       1.0  0.7056735833715199  0.6453896032268083  0.1250474640143362  1.0000
  C   C39       1.0  0.6352894785305221  0.7091393706075733  0.12142845830750382  1.0000
  C   C40       1.0  0.5798716531641024  0.6718185660526459  0.03789249416411056  1.0000
  C   C41       1.0  0.5948834716308635  0.5705675912430042  0.9577842412611375  1.0000
  C   C42       1.0  0.6652036746045913  0.5065988677541078  0.9610117378306544  1.0000
  Br  Br1       1.0  0.48377120666947715  0.7590506835195976  0.03321555743258431  1.0000
  H   H19       1.0  0.9299639144124364  0.35424953927498803  0.5014026048033671  1.0000
  H   H20       1.0  0.8043962031074698  0.4662614158373488  0.2575374981492351  1.0000
  H   H21       1.0  0.804887580186595  0.4693143090555614  0.8400959882853285  1.0000
  H   H22       1.0  0.9920842449898611  0.29766464886291  0.05798698184263795  1.0000
  H   H23       1.0  0.03622269190204097  0.2583852463915506  0.7323365307110778  1.0000
  H   H24       1.0  0.7480679958522513  0.6770004653263719  0.1893198209932927  1.0000
  H   H25       1.0  0.623955575631728  0.7877495464104352  0.1833662735842243  1.0000
  H   H26       1.0  0.5520449467586331  0.5411299475387239  0.8932104874229392  1.0000
  H   H27       1.0  0.6752803874423723  0.42735892165105294  0.8992937248665207  1.0000
  Zn  Zn1       1.0  0.8203498426062289  0.38272165673513037  0.5548260790532311  1.0000
  Zn  Zn2       1.0  0.9849804663023922  0.37491588467949155  0.5524097005188182  1.0000
  C   C43       1.0  0.9026026551675713  0.37361555608516417  0.7908284108822858  1.0000
  C   C44       1.0  0.9027294516981528  0.38402353882312723  0.3164074690857981  1.0000
  C   C45       1.0  0.9026995721574681  0.6160304826533385  0.5483427743612379  1.0000
  C   C46       1.0  0.9026324782936944  0.14160705448487132  0.558893176331378  1.0000
  O   O1        1.0  0.965191917767181  0.38278650503923606  0.36387827473851675  1.0000
  O   O2        1.0  0.9650910231534482  0.36892720973893667  0.7415232563796157  1.0000
  O   O3        1.0  0.965168442273249  0.5646803684633575  0.5457144010554766  1.0000
  O   O4        1.0  0.9651144424975521  0.18703335828139722  0.5596870335033075  1.0000
  O   O5        1.0  0.8402158102307191  0.5706041857983664  0.5475487468865012  1.0000
  O   O6        1.0  0.8401383913451298  0.3748525875091684  0.7433575323038673  1.0000
  O   O7        1.0  0.8402392864217478  0.3887118377407919  0.365710989195255  1.0000
  O   O8        1.0  0.8401618111215969  0.19295868168151276  0.5615198453371539  1.0000
