data_image0
_chemical_formula_structural       NC10NC3NCH9C12ClH9C12OCH12Zn2C4O8
_chemical_formula_sum              "N3 C43 H30 Cl1 O9 Zn2"
_cell_length_a       19.437513618241372
_cell_length_b       10.299768534541528
_cell_length_c       10.299794127170987
_cell_angle_alpha    85.578860457747
_cell_angle_beta     90.34079441948666
_cell_angle_gamma    89.54057453160664

_space_group_name_H-M_alt    "P 1"
_space_group_IT_number       1

loop_
  _space_group_symop_operation_xyz
  'x, y, z'

loop_
  _atom_site_type_symbol
  _atom_site_label
  _atom_site_symmetry_multiplicity
  _atom_site_fract_x
  _atom_site_fract_y
  _atom_site_fract_z
  _atom_site_occupancy
  N   N1        1.0  0.648171304947382  0.410045868305589  0.5758520483110423  1.0000
  C   C1        1.0  0.5892409415176825  0.42705487226318883  0.5728780788985661  1.0000
  C   C2        1.0  0.5158041826017242  0.4483060709892501  0.569186618682844  1.0000
  C   C3        1.0  0.47402468359519295  0.34711547031076884  0.5575165314391335  1.0000
  C   C4        1.0  0.3981365898052537  0.35717836798148617  0.550296643802644  1.0000
  C   C5        1.0  0.3585748812409856  0.43804033857830316  0.6160451859779004  1.0000
  C   C6        1.0  0.2823913412058142  0.42943032136068937  0.6076005077679831  1.0000
  C   C7        1.0  0.24923464236343423  0.3080891953056193  0.6122300762241479  1.0000
  C   C8        1.0  0.17749899676930392  0.301715933786457  0.6050616341184285  1.0000
  C   C9        1.0  0.1379493365940177  0.416211205070508  0.5936257856432567  1.0000
  C   C10       1.0  0.0640991626074204  0.40949973243016435  0.586289222006197  1.0000
  N   N2        1.0  0.0047287208449294  0.4041042985843526  0.5803910832926196  1.0000
  C   C11       1.0  0.1703893740760737  0.5372419336405074  0.5897414241763645  1.0000
  C   C12       1.0  0.2421094671470005  0.5438691950362349  0.5969719133135567  1.0000
  C   C13       1.0  0.3872733100054095  0.5303432867583844  0.7059713274342223  1.0000
  N   N3        1.0  0.44426972573339124  0.593549997065314  0.6855751563078614  1.0000
  C   C14       1.0  0.48811016071313623  0.5842643016030922  0.5724717811357694  1.0000
  H   H1        1.0  0.49639215724091235  0.25205861280275554  0.5453852329509714  1.0000
  H   H2        1.0  0.37341089167229646  0.28765490542110417  0.49197341212216683  1.0000
  H   H3        1.0  0.2786690752631429  0.21818168622778567  0.6232403364982382  1.0000
  H   H4        1.0  0.1528888562340245  0.20749254995520094  0.6089380646678828  1.0000
  H   H5        1.0  0.1402695171927525  0.6264950518803241  0.5810431314723854  1.0000
  H   H6        1.0  0.2662381585283458  0.6385053662212326  0.5930800699572605  1.0000
  H   H7        1.0  0.3572727050152876  0.5507467735085836  0.7903363666325525  1.0000
  H   H8        1.0  0.5308750377198359  0.6545764792942868  0.5782427961154488  1.0000
  H   H9        1.0  0.45844903550455784  0.6123527522843499  0.4818335465083172  1.0000
  C   C15       1.0  0.8263884207230138  0.025710688257297276  0.5781186783900869  1.0000
  C   C16       1.0  0.8309280709754593  0.035161331097311344  0.4417141197534349  1.0000
  C   C17       1.0  0.8332944894881706  0.9228095797295648  0.37260507557275613  1.0000
  C   C18       1.0  0.8310594722240645  0.7998714284660334  0.44173128173395027  1.0000
  C   C19       1.0  0.8265182034640921  0.7884292835411674  0.5781357577198754  1.0000
  C   C20       1.0  0.8242086157393202  0.9019053747554941  0.6455655965102216  1.0000
  C   C21       1.0  0.8380979757857508  0.9338612245750748  0.22830043542025802  1.0000
  C   C22       1.0  0.7989621417272231  0.028031954745159515  0.1533420116458215  1.0000
  C   C23       1.0  0.8035446196300391  0.03823726373598246  0.017527148120267677  1.0000
  C   C24       1.0  0.8471965951074938  0.9547945942144859  0.954978087600113  1.0000
  C   C25       1.0  0.8863212469073071  0.8609358584283184  0.02842522133276071  1.0000
  C   C26       1.0  0.8818609466736188  0.8503362664728598  0.16425628276875326  1.0000
  Cl  Cl1       1.0  0.8528693359742049  0.9678459910382876  0.7845735214688441  1.0000
  H   H10       1.0  0.8246232896405442  0.3495638657260982  0.630091827569832  1.0000
  H   H11       1.0  0.8335838190163134  0.13011421729413564  0.3890178798662911  1.0000
  H   H12       1.0  0.8319197643642166  0.7130080167384925  0.38879864024937816  1.0000
  H   H13       1.0  0.8207057877657704  0.8938464617387701  0.7507954255410638  1.0000
  H   H14       1.0  0.8248151605989482  0.4566150897871956  0.6301174979043807  1.0000
  H   H15       1.0  0.7641731406255657  0.09260109194849253  0.19964035279100112  1.0000
  H   H16       1.0  0.7730012629059205  0.11084394961594324  0.9610292682288004  1.0000
  H   H17       1.0  0.9203430718261177  0.7963324023971712  0.9804277172915876  1.0000
  H   H18       1.0  0.9132774334960664  0.7780079084339495  0.21927104468711534  1.0000
  C   C27       1.0  0.8264764950690043  0.40695614592513984  0.19677610129687562  1.0000
  C   C28       1.0  0.7590509117576686  0.3589576042267093  0.19872340634395314  1.0000
  C   C29       1.0  0.7248669334357434  0.33473926639136264  0.08256301481334694  1.0000
  C   C30       1.0  0.7590041765538083  0.35918484720792687  0.9634179243487497  1.0000
  C   C31       1.0  0.8264301451756461  0.40718388990787635  0.959478362382133  1.0000
  C   C32       1.0  0.8597894452757594  0.43079787285170457  0.0766723357771526  1.0000
  C   C33       1.0  0.653536454281152  0.2839524004536973  0.08567787504489832  1.0000
  C   C34       1.0  0.6042918785150003  0.3334395365862901  0.9939036464230342  1.0000
  C   C35       1.0  0.5372522936234045  0.28562720500258476  0.9971004877424048  1.0000
  C   C36       1.0  0.5184828690774307  0.1880071885682797  0.09154626308877334  1.0000
  C   C37       1.0  0.5670484601347724  0.13712678618975116  0.18417440190084533  1.0000
  C   C38       1.0  0.6341816764412076  0.18557709625204444  0.18052738977782434  1.0000
  O   O1        1.0  0.5508375863640455  0.03882517375628369  0.28078769142146087  1.0000
  C   C39       1.0  0.4848797554748474  0.9806514069855525  0.2959840372146272  1.0000
  H   H19       1.0  0.8521776751820502  0.4251871862199621  0.5234917681054578  1.0000
  H   H20       1.0  0.7326162713699179  0.3419694746598736  0.2906635574595411  1.0000
  H   H21       1.0  0.7332102718239951  0.3390204625625908  0.8737576161597445  1.0000
  H   H22       1.0  0.9118057380445223  0.4678258850071879  0.07440168410066672  1.0000
  H   H23       1.0  0.852108488725484  0.4255351042338853  0.6305196714848105  1.0000
  H   H24       1.0  0.6173892811479205  0.4102865048801694  0.9207532366847797  1.0000
  H   H25       1.0  0.49964276702003635  0.3246488770275422  0.9262846119577994  1.0000
  H   H26       1.0  0.46620910771663526  0.15284447845225468  0.09170852899576132  1.0000
  H   H27       1.0  0.6714876308809637  0.14481048332299618  0.25116559926981186  1.0000
  H   H28       1.0  0.47069103672791923  0.9324326583717131  0.20694189704022392  1.0000
  H   H29       1.0  0.4866349625647812  0.9061471857051522  0.3796767619303629  1.0000
  H   H30       1.0  0.44570706804402743  0.05556166266568585  0.3157639263050187  1.0000
  Zn  Zn1       1.0  0.751066077569746  0.4083277726971106  0.5771694242841894  1.0000
  Zn  Zn2       1.0  0.9018339519682352  0.40581172795833  0.5790843764550957  1.0000
  C   C40       1.0  0.8264364713739877  0.4019672344516796  0.8153111822095953  1.0000
  C   C41       1.0  0.8264652048155497  0.4121738773664889  0.34094276693820813  1.0000
  C   C42       1.0  0.8264904393456047  0.6442577829306639  0.572957590732649  1.0000
  C   C43       1.0  0.8264111851277053  0.1698817694829835  0.5832964269620864  1.0000
  O   O2        1.0  0.8836770373401905  0.41296450416386166  0.39005313114798823  1.0000
  O   O3        1.0  0.8836539668426873  0.3992660080925947  0.7676538485379496  1.0000
  O   O4        1.0  0.8836967752862251  0.5949187034462544  0.5719515989621664  1.0000
  O   O5        1.0  0.8836341774572908  0.21731181892979512  0.5857552827004069  1.0000
  O   O6        1.0  0.7692658006310149  0.5968276825856604  0.5704985173785682  1.0000
  O   O7        1.0  0.7692229924540288  0.40117654749653586  0.7662006977471101  1.0000
  O   O8        1.0  0.7692460630845209  0.4148749978454471  0.38859841902880277  1.0000
  O   O9        1.0  0.7692032031913072  0.21922230335180148  0.5843006679442768  1.0000
