data_image0
_chemical_formula_structural       NC10NC5H10C12BrH9C12NH11Zn2C4O8
_chemical_formula_sum              "N3 C43 H30 Br1 Zn2 O8"
_cell_length_a       19.4436361288709
_cell_length_b       10.299144633409057
_cell_length_c       10.299774167527174
_cell_angle_alpha    85.56689002636797
_cell_angle_beta     89.69810155224394
_cell_angle_gamma    89.3925195724905

_space_group_name_H-M_alt    "P 1"
_space_group_IT_number       1

loop_
  _space_group_symop_operation_xyz
  'x, y, z'

loop_
  _atom_site_type_symbol
  _atom_site_label
  _atom_site_symmetry_multiplicity
  _atom_site_fract_x
  _atom_site_fract_y
  _atom_site_fract_z
  _atom_site_occupancy
  N   N1        1.0  0.6473999710007579  0.4089879277778692  0.5619260858121815  1.0000
  C   C1        1.0  0.5885616489559929  0.41889213970831674  0.5763078632661085  1.0000
  C   C2        1.0  0.515229388431315  0.43124402578797016  0.5942974377994306  1.0000
  C   C3        1.0  0.473053440764458  0.39923413887365666  0.49963280420420375  1.0000
  C   C4        1.0  0.3971462564504641  0.4096737399477386  0.5049589759721904  1.0000
  C   C5        1.0  0.3574124929675812  0.3849364027603417  0.6120309497478553  1.0000
  C   C6        1.0  0.2812910588369055  0.3888518055996353  0.5990714774693551  1.0000
  C   C7        1.0  0.24071394457929793  0.446527719192364  0.6928289559461067  1.0000
  C   C8        1.0  0.1690497177209219  0.45016451358442255  0.6822849066043557  1.0000
  C   C9        1.0  0.13696794314603822  0.3957293890026441  0.5782699573854693  1.0000
  C   C10       1.0  0.0631744575794668  0.39942741305240603  0.5675706226192259  1.0000
  N   N2        1.0  0.0038495002959604  0.40240043035656337  0.5589690668122347  1.0000
  C   C11       1.0  0.1768203342465276  0.33734638102907444  0.484895811940403  1.0000
  C   C12       1.0  0.248501004244284  0.33365533028153416  0.49518810305993055  1.0000
  C   C13       1.0  0.385554404844098  0.3444878637228317  0.7431266559713616  1.0000
  C   C14       1.0  0.44420743759982506  0.3876180191510705  0.7903602390758264  1.0000
  C   C15       1.0  0.48839173504836925  0.48547430300020245  0.7159801267355419  1.0000
  H   H1        1.0  0.4951598655561135  0.3701047988014361  0.40933443238549905  1.0000
  H   H2        1.0  0.37244287769025874  0.43215929677909215  0.4118008712481125  1.0000
  H   H3        1.0  0.2645736309507415  0.4898307199608398  0.7736669451317055  1.0000
  H   H4        1.0  0.1386936901708652  0.49549047333502694  0.7551954336332662  1.0000
  H   H5        1.0  0.1524887168374883  0.29423908896445594  0.4043922602882972  1.0000
  H   H6        1.0  0.2781919499975694  0.28608591027178054  0.4229742416105904  1.0000
  H   H7        1.0  0.354604023913899  0.2802738116215089  0.8073812432196363  1.0000
  H   H8        1.0  0.45936506904833907  0.3535596641273442  0.8882960959896411  1.0000
  H   H9        1.0  0.45826110771163875  0.5761917633701426  0.6907146494363874  1.0000
  H   H10       1.0  0.5316703919603121  0.5110691926083852  0.7790583618330786  1.0000
  C   C16       1.0  0.8257177427499335  0.024297693470939574  0.5605256341569014  1.0000
  C   C17       1.0  0.7963940126316033  0.03374384204417069  0.43581378870579357  1.0000
  C   C18       1.0  0.7814336854462866  0.9213984241337434  0.37250705979137866  1.0000
  C   C19       1.0  0.7961927820854313  0.7984819206346341  0.4355942247493598  1.0000
  C   C20       1.0  0.8255383169162995  0.7870805918234819  0.5603807455281589  1.0000
  C   C21       1.0  0.8401193109593951  0.9005035901474129  0.622079352109367  1.0000
  C   C22       1.0  0.7504137869745661  0.9324364661451809  0.24057608028996014  1.0000
  C   C23       1.0  0.7734391988892089  0.027291431394070198  0.14492193035864975  1.0000
  C   C24       1.0  0.7441822581632834  0.03747463448036581  0.020796070683759327  1.0000
  C   C25       1.0  0.691661218778067  0.9533459125991006  0.9906983275346497  1.0000
  C   C26       1.0  0.6683691752848732  0.8588152626900012  0.08491419447724602  1.0000
  C   C27       1.0  0.6975062621449487  0.848216973941647  0.20914132271186303  1.0000
  Br  Br1       1.0  0.6517786902075228  0.9675388674085782  0.8210735406402954  1.0000
  H   H11       1.0  0.8370254993842965  0.34814116454293553  0.6084713788192067  1.0000
  H   H12       1.0  0.7842506500990718  0.12867444790681293  0.3883556604231604  1.0000
  H   H13       1.0  0.7856333843939214  0.7115945170920208  0.38651893978596896  1.0000
  H   H14       1.0  0.8627395923626344  0.8925018708759478  0.7182709446050357  1.0000
  H   H15       1.0  0.8813221789870773  0.5582873615384638  0.7955714433699379  1.0000
  H   H16       1.0  0.8146487409415113  0.09241827900163102  0.1655812415669109  1.0000
  H   H17       1.0  0.7624974425801353  0.11058487033167452  0.9479892772091985  1.0000
  H   H18       1.0  0.6275717060701999  0.7937062437818759  0.062102957040633955  1.0000
  H   H19       1.0  0.6780726698731678  0.7753414947757639  0.2810975738529713  1.0000
  C   C28       1.0  0.8256514531870076  0.4055741664123491  0.17910092551570966  1.0000
  C   C29       1.0  0.7583022299157535  0.3575135973860666  0.18248985609632018  1.0000
  C   C30       1.0  0.724151736450535  0.3332771977652955  0.06705941252738068  1.0000
  C   C31       1.0  0.75825492356131  0.3577457885097104  0.9471854931040866  1.0000
  C   C32       1.0  0.8256045848632462  0.405804122791366  0.9418054149551947  1.0000
  C   C33       1.0  0.8589255992222494  0.4294496949769391  0.05828550916805564  1.0000
  C   C34       1.0  0.6529001614437067  0.2824324679805241  0.07169805321051892  1.0000
  C   C35       1.0  0.633593538637244  0.1843286746049313  0.16717584868995128  1.0000
  C   C36       1.0  0.5665283486811064  0.13652920207337083  0.17140804881521565  1.0000
  C   C37       1.0  0.5177089306161669  0.1859604216807249  0.08049912304155749  1.0000
  C   C38       1.0  0.5365617775090968  0.2836824138642866  0.9851845314856305  1.0000
  C   C39       1.0  0.6036062909128797  0.33158353728880874  0.9806862033489181  1.0000
  N   N3        1.0  0.4491168197805995  0.13701303603549664  0.08496441581700198  1.0000
  H   H20       1.0  0.8513263006407316  0.4238335574351342  0.5052671016174146  1.0000
  H   H21       1.0  0.7319003152489049  0.34049718979155186  0.2749979194565553  1.0000
  H   H22       1.0  0.7325014646557301  0.33754477334170296  0.8580726871147362  1.0000
  H   H23       1.0  0.9108825736967119  0.4665253216231786  0.054903117062743645  1.0000
  H   H24       1.0  0.851257522131869  0.42417180150309886  0.6122978299316792  1.0000
  H   H25       1.0  0.6706007575996148  0.1433738133454665  0.2375263979618769  1.0000
  H   H26       1.0  0.5526716783501167  0.060733441600932414  0.24535594150812967  1.0000
  H   H27       1.0  0.4992678236658529  0.3229771501465881  0.9145666273452089  1.0000
  H   H28       1.0  0.6166587065048577  0.4082607150704518  0.9070768340008004  1.0000
  H   H29       1.0  0.41236603057880833  0.17325107384095606  0.01759792212531397  1.0000
  H   H30       1.0  0.4345784447202273  0.06417534605829833  0.15567026348181545  1.0000
  Zn  Zn1       1.0  0.7502636070438435  0.40708344896446635  0.5610802664746009  1.0000
  Zn  Zn2       1.0  0.900985857607382  0.4042943039414424  0.5598255688783538  1.0000
  C   C40       1.0  0.8256131353724396  0.4005866057057237  0.7976389604072931  1.0000
  C   C41       1.0  0.8256379747677515  0.4107927555190236  0.3232669883940098  1.0000
  C   C42       1.0  0.825569002032648  0.6428968687542502  0.5552332145441441  1.0000
  C   C43       1.0  0.8256820570393892  0.1684809330279713  0.5656728042173074  1.0000
  O   O1        1.0  0.8828317612132685  0.41148002954500096  0.37117428594663693  1.0000
  O   O2        1.0  0.8828140498826171  0.3977814552378225  0.7487790027672407  1.0000
  O   O3        1.0  0.8827776405090778  0.5934500717567242  0.5530346540841993  1.0000
  O   O4        1.0  0.8828681191593097  0.21581142323938418  0.5669185376856409  1.0000
  O   O5        1.0  0.7683812940578091  0.595566330619735  0.5539872980886495  1.0000
  O   O6        1.0  0.7684177030653955  0.3998992744965686  0.7497315772328785  1.0000
  O   O7        1.0  0.7684354145483576  0.413597803072995  0.3721252990879791  1.0000
  O   O8        1.0  0.7684717724877901  0.21792918750730328  0.5678696481923566  1.0000
