data_image0
_chemical_formula_structural       NC9NC5H8C12NH11C13NH9Zn2C4O8
_chemical_formula_sum              "N4 C43 H28 Zn2 O8"
_cell_length_a       17.807436237873137
_cell_length_b       10.299770795358612
_cell_length_c       10.298528502251457
_cell_angle_alpha    85.53666946162151
_cell_angle_beta     89.38885601427037
_cell_angle_gamma    88.40764042794568

_space_group_name_H-M_alt    "P 1"
_space_group_IT_number       1

loop_
  _space_group_symop_operation_xyz
  'x, y, z'

loop_
  _atom_site_type_symbol
  _atom_site_label
  _atom_site_symmetry_multiplicity
  _atom_site_fract_x
  _atom_site_fract_y
  _atom_site_fract_z
  _atom_site_occupancy
  N   N1        1.0  0.7077000911240194  0.38822584990276976  0.5568189010550424  1.0000
  C   C1        1.0  0.6471066025884669  0.35304022423703807  0.5457967882573744  1.0000
  C   C2        1.0  0.5717349626395566  0.30927318075840415  0.5320864767003846  1.0000
  C   C3        1.0  0.5536338257748442  0.23789426359933263  0.42707675457448335  1.0000
  C   C4        1.0  0.4804518352098275  0.1952883699162744  0.4136822968713951  1.0000
  C   C5        1.0  0.4243221966184757  0.22368387883821716  0.5052651399550792  1.0000
  C   C6        1.0  0.346548623780763  0.17851967454459872  0.49111237455182377  1.0000
  C   C7        1.0  0.2843861056760535  0.2602662043510051  0.5170471355428279  1.0000
  C   C8        1.0  0.2110617736529835  0.21745727021618344  0.5036663792321918  1.0000
  C   C9        1.0  0.1478496352983442  0.3018949997684033  0.5299648439613269  1.0000
  N   N2        1.0  0.0970400633331384  0.3697770922210786  0.5511080835565176  1.0000
  C   C10       1.0  0.1993163696069478  0.09264383770905416  0.4643255324852018  1.0000
  C   C11       1.0  0.2606215156600416  0.010883458583657468  0.4383823819899364  1.0000
  C   C12       1.0  0.3338263511467671  0.0532979242360343  0.4515606100743119  1.0000
  C   C13       1.0  0.4431148198291034  0.2955570830980976  0.6104940745799012  1.0000
  C   C14       1.0  0.516349652248354  0.33797263690017565  0.6237328790313796  1.0000
  H   H1        1.0  0.5960267948206733  0.21543343155753614  0.35535689921952196  1.0000
  H   H2        1.0  0.46753209021052156  0.14163460935805294  0.3307561584588947  1.0000
  H   H3        1.0  0.2929001209273955  0.35772027245651294  0.5459189509283788  1.0000
  H   H4        1.0  0.1428455799111475  0.05861173857111779  0.453732408552491  1.0000
  H   H5        1.0  0.251409336410538  0.9142498848149929  0.40830992718456094  1.0000
  H   H6        1.0  0.3804560084918659  0.9875600439567587  0.43251578828786785  1.0000
  H   H7        1.0  0.4014385978494979  0.31747843614067905  0.6835086427778361  1.0000
  H   H8        1.0  0.5297979943054794  0.3928473200087139  0.7056171461991039  1.0000
  C   C15       1.0  0.9023055867729527  0.9976359889583829  0.5540040575722318  1.0000
  C   C16       1.0  0.8805045136723225  0.007889426545650613  0.42289700440438294  1.0000
  C   C17       1.0  0.8695266462914701  0.8959455133679014  0.35642791663121653  1.0000
  C   C18       1.0  0.880642021513765  0.7726013209109378  0.4228264260473149  1.0000
  C   C19       1.0  0.902441735079741  0.7603566557423196  0.5539340497727583  1.0000
  C   C20       1.0  0.9131518043299152  0.8734347747318031  0.6187885499782375  1.0000
  C   C21       1.0  0.8464627052012772  0.9078464448034799  0.2177242591494455  1.0000
  C   C22       1.0  0.7917610909187673  0.001631876211083183  0.17333380531877407  1.0000
  C   C23       1.0  0.7700855221081992  0.012702281563222728  0.04278438939980633  1.0000
  C   C24       1.0  0.8027013703778247  0.9304268510023448  0.9545510451933463  1.0000
  C   C25       1.0  0.8572227347320417  0.8368483481642401  0.9980534727824408  1.0000
  C   C26       1.0  0.8789584855791354  0.8255190756310194  0.12857202919938637  1.0000
  N   N3        1.0  0.7804980633535744  0.9418833430191013  0.8210244915698413  1.0000
  H   H9        1.0  0.9105808542498923  0.3211827209236695  0.6039795262716856  1.0000
  H   H10       1.0  0.8730062324365937  0.10316767527027038  0.371648328007919  1.0000
  H   H11       1.0  0.8712579233643258  0.6860343585193339  0.3725456312166131  1.0000
  H   H12       1.0  0.9299697736554734  0.8647567029323798  0.7199318438926308  1.0000
  H   H13       1.0  0.9107810991843737  0.4282368872391979  0.6038769529422363  1.0000
  H   H14       1.0  0.7650351519414628  0.06528662602878521  0.23993732110436783  1.0000
  H   H15       1.0  0.7277312422473359  0.08520169338464423  0.010489951557007826  1.0000
  H   H16       1.0  0.8830196050760202  0.772892303891941  0.9307742251741424  1.0000
  H   H17       1.0  0.9218887303532456  0.7535031380347021  0.1594182963719446  1.0000
  H   H18       1.0  0.8044917458858345  0.8809738189161402  0.7545246718321894  1.0000
  H   H19       1.0  0.7399022157366033  0.011359764408544581  0.7876809655693351  1.0000
  C   C27       1.0  0.9023843653795591  0.37912228453234076  0.17255203433300426  1.0000
  C   C28       1.0  0.8242864232582077  0.4026848375748653  0.17120569745154102  1.0000
  C   C29       1.0  0.7847212913203399  0.41448357550738235  0.05337690624875813  1.0000
  C   C30       1.0  0.8242639499680019  0.4024210435538347  0.9359463470687261  1.0000
  C   C31       1.0  0.9023629634157944  0.37887031936969295  0.9353860902352014  1.0000
  C   C32       1.0  0.9409230781736618  0.36736898416504227  0.05416309141197462  1.0000
  C   C33       1.0  0.702156057314473  0.4393882103584301  0.052961229633486706  1.0000
  C   C34       1.0  0.6690023814490718  0.5288900707182669  0.1343557363103478  1.0000
  C   C35       1.0  0.5912838029844144  0.5522857581245455  0.13384498450242366  1.0000
  C   C36       1.0  0.5456847879118027  0.4865880280482493  0.052170816550898724  1.0000
  C   C37       1.0  0.5780970345503936  0.3973576339570062  0.9708911712461163  1.0000
  C   C38       1.0  0.6558075769344311  0.37386796288624957  0.971165439100858  1.0000
  C   C39       1.0  0.4656734392332126  0.5107246068235018  0.0517656566643423  1.0000
  N   N4        1.0  0.4013497102009602  0.5301289115774832  0.05143997045140769  1.0000
  H   H20       1.0  0.049896471629341965  0.3337929094275396  0.3824844037639006  1.0000
  H   H21       1.0  0.7939474088650406  0.41013025428783534  0.2621657930716097  1.0000
  H   H22       1.0  0.7942081197695746  0.4131924252264092  0.844682403916881  1.0000
  H   H23       1.0  0.0011146726320931943  0.3492135818191866  0.05446585976993035  1.0000
  H   H24       1.0  0.05001417889013782  0.3351771320995034  0.7269383324638508  1.0000
  H   H25       1.0  0.7032799672091673  0.5820340183647525  0.19715110074890396  1.0000
  H   H26       1.0  0.5668048653461967  0.6218358655611274  0.19690498755532349  1.0000
  H   H27       1.0  0.5433004644362028  0.34568843691440976  0.9075315612706891  1.0000
  H   H28       1.0  0.6795486962506763  0.3032226309854875  0.9086631390110025  1.0000
  Zn  Zn1       1.0  0.8200551948749857  0.38289846921668147  0.5551783945434698  1.0000
  Zn  Zn2       1.0  0.98468493919566  0.3750938833064088  0.5527592689984209  1.0000
  C   C40       1.0  0.9023644070230322  0.37374442184996637  0.7911946430785237  1.0000
  C   C41       1.0  0.9023775250882339  0.38424948400932557  0.31674312137882854  1.0000
  C   C42       1.0  0.9024122829047613  0.6161880997021598  0.548771553404491  1.0000
  C   C43       1.0  0.902329592749409  0.14180424850954854  0.5591662812688241  1.0000
  O   O1        1.0  0.9648513584071648  0.3830027536243221  0.3642169223759679  1.0000
  O   O2        1.0  0.964840740206112  0.36906667252511194  0.7418844079640969  1.0000
  O   O3        1.0  0.964878558340072  0.5648430479899866  0.5461260601207494  1.0000
  O   O4        1.0  0.964813484100616  0.18722639014492115  0.5599751736569907  1.0000
  O   O5        1.0  0.8399265937899784  0.5707659650429076  0.5479624907035967  1.0000
  O   O6        1.0  0.8398887759330627  0.3749911498903542  0.7437207691496788  1.0000
  O   O7        1.0  0.8398993942198174  0.3889271862473891  0.3660517219672328  1.0000
  O   O8        1.0  0.8398615199058059  0.19315081344725238  0.5618100706292777  1.0000
