data_image0
_chemical_formula_structural       NC12NC2H8C12OCH12C12BrH9Zn2C4O8
_chemical_formula_sum              "N2 C43 H29 O9 Br1 Zn2"
_cell_length_a       17.80743265337812
_cell_length_b       10.29979075500242
_cell_length_c       10.299148005577397
_cell_angle_alpha    85.5479051999474
_cell_angle_beta     91.50743167608279
_cell_angle_gamma    89.41792083348325

_space_group_name_H-M_alt    "P 1"
_space_group_IT_number       1

loop_
  _space_group_symop_operation_xyz
  'x, y, z'

loop_
  _atom_site_type_symbol
  _atom_site_label
  _atom_site_symmetry_multiplicity
  _atom_site_fract_x
  _atom_site_fract_y
  _atom_site_fract_z
  _atom_site_occupancy
  N   N1        1.0  0.7075381515386361  0.4068297543418513  0.6011988772480947  1.0000
  C   C1        1.0  0.656731045930473  0.43639567776101296  0.5324964828284049  1.0000
  C   C2        1.0  0.593521989891105  0.47317353999537737  0.44703935251770166  1.0000
  C   C3        1.0  0.605272172654659  0.5272073529023429  0.3204128941234703  1.0000
  C   C4        1.0  0.543970111130857  0.5624813760644058  0.23735190776070403  1.0000
  C   C5        1.0  0.4707636894547739  0.5439851192047567  0.2802574440047314  1.0000
  C   C6        1.0  0.45803663218749613  0.48983245494022154  0.4073520639112671  1.0000
  C   C7        1.0  0.5201960135412755  0.4545616873843097  0.49039653798319804  1.0000
  C   C8        1.0  0.38026145447679854  0.4702217749092341  0.45311803739924805  1.0000
  C   C9        1.0  0.3614377811445151  0.4973951900820188  0.5801633286237307  1.0000
  C   C10       1.0  0.2882013955327797  0.47894050244677344  0.6231094257491998  1.0000
  C   C11       1.0  0.2328455428336042  0.4330580421491441  0.5398482369914557  1.0000
  C   C12       1.0  0.1574722892952368  0.41405038549750217  0.5841953322139519  1.0000
  N   N2        1.0  0.0968775310650505  0.3987695079117606  0.619847345991001  1.0000
  C   C13       1.0  0.2509776131580015  0.4057156590113422  0.4133459394924248  1.0000
  C   C14       1.0  0.3241612070473016  0.4241851581442524  0.3701439485334832  1.0000
  H   H1        1.0  0.6617440621841875  0.5420346356770454  0.28597407224825  1.0000
  H   H2        1.0  0.5531858276110518  0.6045884216254938  0.13956765073678823  1.0000
  H   H3        1.0  0.42413592011634477  0.5736273358720974  0.21466306012385727  1.0000
  H   H4        1.0  0.5116789652949326  0.4110693440285931  0.5880564455482638  1.0000
  H   H5        1.0  0.4030904960881156  0.5345678582906976  0.6457352625884534  1.0000
  H   H6        1.0  0.2747287758409205  0.5007761440123384  0.7211189633541186  1.0000
  H   H7        1.0  0.20860768123146683  0.36981023264925383  0.3481868788343967  1.0000
  H   H8        1.0  0.3371056347459829  0.40081393650509733  0.2724378629414723  1.0000
  C   C15       1.0  0.9022789393046906  0.02143040803655194  0.6105654499858004  1.0000
  C   C16       1.0  0.8804971314459851  0.010695147602965305  0.7409670491232085  1.0000
  C   C17       1.0  0.8694005161240099  0.8881204632981805  0.8070065230547192  1.0000
  C   C18       1.0  0.880362180950059  0.775415658235061  0.7408947968116706  1.0000
  C   C19       1.0  0.9021439557101513  0.7841587047280595  0.610492263525725  1.0000
  C   C20       1.0  0.9129821177871771  0.9076096018827516  0.5460585110516265  1.0000
  C   C21       1.0  0.8463611738393372  0.8778171743921018  0.9449655690649945  1.0000
  C   C22       1.0  0.7915340311649873  0.7880791016119688  0.9874073764382292  1.0000
  C   C23       1.0  0.7699177021518017  0.7786542125462  0.11711784322708274  1.0000
  C   C24       1.0  0.8026420644625389  0.8583086653844317  0.20603796897891913  1.0000
  C   C25       1.0  0.8576687041327905  0.9486514065223343  0.16547751998686333  1.0000
  C   C26       1.0  0.8790522782656516  0.9577200071837736  0.03522917774825751  1.0000
  O   O1        1.0  0.8923718392047901  0.030620048844085535  0.25101250206692227  1.0000
  C   C27       1.0  0.8762293268416211  0.03191051769042086  0.3855824447157329  1.0000
  H   H9        1.0  0.9106116129304423  0.35297179658484046  0.5608997105881175  1.0000
  H   H10       1.0  0.871115051324447  0.09790775819160746  0.7909490498412342  1.0000
  H   H11       1.0  0.8728591496648357  0.680662755210119  0.7919059614052681  1.0000
  H   H12       1.0  0.9297864404458508  0.9151229933020344  0.4454592144541494  1.0000
  H   H13       1.0  0.9104064295275447  0.4600395168142909  0.5607855246736353  1.0000
  H   H14       1.0  0.7646813030099919  0.7264164693664071  0.9199082290449867  1.0000
  H   H15       1.0  0.727479798320633  0.7095574037825363  0.1487657160023549  1.0000
  H   H16       1.0  0.7848115044701737  0.8489123766550374  0.30585574317371933  1.0000
  H   H17       1.0  0.9220959303585416  0.026377826110066005  0.005123255018213979  1.0000
  H   H18       1.0  0.8891930640846963  0.9351050805570529  0.43682858513748946  1.0000
  H   H19       1.0  0.9116689603925526  0.10580916796278617  0.42949642425615586  1.0000
  H   H20       1.0  0.8162530929317114  0.058060540714439224  0.39714596174952255  1.0000
  C   C28       1.0  0.9023138252788488  0.4028444919466032  0.22914558489399628  1.0000
  C   C29       1.0  0.8316388434733734  0.4650873097083128  0.22031807278066817  1.0000
  C   C30       1.0  0.7956993459441867  0.49659467334549445  0.09869900804858345  1.0000
  C   C31       1.0  0.8313881243455581  0.4650196953283354  0.9850290353824529  1.0000
  C   C32       1.0  0.9021090337633814  0.4027446600194302  0.9919121383862683  1.0000
  C   C33       1.0  0.9371362668153195  0.37203855477953685  0.11437326615070509  1.0000
  C   C34       1.0  0.7209342814554992  0.5624419835117527  0.09040550737038444  1.0000
  C   C35       1.0  0.7051359743803048  0.6640865833099139  0.16971795921394883  1.0000
  C   C36       1.0  0.6347331760884672  0.7259529099661499  0.16171567830662292  1.0000
  C   C37       1.0  0.5793284061976747  0.6871562972392518  0.0747007664022521  1.0000
  C   C38       1.0  0.5943720298487358  0.5863141849390086  0.99549963287041  1.0000
  C   C39       1.0  0.6647109971584954  0.5242272147903551  0.0031063373701933905  1.0000
  Br  Br1       1.0  0.48320237589839393  0.7718168030259942  0.06403909108706474  1.0000
  H   H21       1.0  0.9295138002318774  0.3789555896136736  0.5600132444295316  1.0000
  H   H22       1.0  0.8039132850012827  0.48760748225582895  0.3083276763185645  1.0000
  H   H23       1.0  0.8044036824659384  0.4906732389568489  0.8909178756558402  1.0000
  H   H24       1.0  0.9916507310123289  0.3240330318944302  0.120466156444206  1.0000
  H   H25       1.0  0.03580067903142292  0.2859346934623308  0.7975647142626405  1.0000
  H   H26       1.0  0.7475194281552379  0.6968261828917313  0.23665266660238005  1.0000
  H   H27       1.0  0.6233745729657517  0.804254218345613  0.22296930568401296  1.0000
  H   H28       1.0  0.5515437836904344  0.5557357749977168  0.928236431806079  1.0000
  H   H29       1.0  0.6748126375636635  0.4452626387236771  0.9419936587667008  1.0000
  Zn  Zn1       1.0  0.8198930882187926  0.4045002730707339  0.6065879100453775  1.0000
  Zn  Zn2       1.0  0.9845225909220644  0.40108839433042354  0.6144689076600276  1.0000
  C   C40       1.0  0.9021469929563508  0.39758987593810713  0.8477333716889084  1.0000
  C   C41       1.0  0.9022704836092911  0.4080003928093703  0.3733236593908702  1.0000
  C   C42       1.0  0.9021669743535966  0.6399876028734033  0.6053305823893369  1.0000
  C   C43       1.0  0.902250446293095  0.16560110672568484  0.6157265153920715  1.0000
  O   O2        1.0  0.9647319770539478  0.40843030429287563  0.42470193634090014  1.0000
  O   O3        1.0  0.9646354830698708  0.3945694477620232  0.8023362158083436  1.0000
  O   O4        1.0  0.964650775731418  0.5903086950775607  0.6065942079615332  1.0000
  O   O5        1.0  0.9647166282400014  0.21269106744455568  0.6204438441192293  1.0000
  O   O6        1.0  0.8396989947208876  0.5928976011223233  0.6006129708899464  1.0000
  O   O7        1.0  0.8396837017983224  0.39715991412089635  0.7963549093388975  1.0000
  O   O8        1.0  0.8397801962595777  0.41102072559910385  0.4187190684186253  1.0000
  O   O9        1.0  0.8397648474180622  0.21528147944928833  0.6144610735692067  1.0000
