data_image0
_chemical_formula_structural       NC12NC2H8C12NH11C13OH12Zn2C4O8
_chemical_formula_sum              "N3 C43 H31 O9 Zn2"
_cell_length_a       19.240039667572717
_cell_length_b       10.299770795358612
_cell_length_c       10.299153481560891
_cell_angle_alpha    85.5776922204699
_cell_angle_beta     90.01662043824444
_cell_angle_gamma    90.01598423534

_space_group_name_H-M_alt    "P 1"
_space_group_IT_number       1

loop_
  _space_group_symop_operation_xyz
  'x, y, z'

loop_
  _atom_site_type_symbol
  _atom_site_label
  _atom_site_symmetry_multiplicity
  _atom_site_fract_x
  _atom_site_fract_y
  _atom_site_fract_z
  _atom_site_occupancy
  N   N1        1.0  0.6544668395926935  0.42073093839432874  0.5673658200606608  1.0000
  C   C1        1.0  0.5943184707752259  0.4207310223445182  0.5673657381187385  1.0000
  C   C2        1.0  0.5195004336302489  0.4207311395782063  0.5673656008068957  1.0000
  C   C3        1.0  0.4830331570126031  0.35630494860587403  0.6707817567393721  1.0000
  C   C4        1.0  0.4103624057971754  0.35619410016460606  0.6708683052798265  1.0000
  C   C5        1.0  0.3731681986713722  0.42073123205736684  0.5673653731185411  1.0000
  C   C6        1.0  0.4103496699909278  0.4852685510094781  0.4638626354903679  1.0000
  C   C7        1.0  0.48302035532308313  0.4851574671153409  0.46394930654416  1.0000
  C   C8        1.0  0.2959631082051757  0.42073115336037503  0.5673652777060059  1.0000
  C   C9        1.0  0.2587648893372045  0.3074863480028256  0.6092418145851539  1.0000
  C   C10       1.0  0.1860942027306223  0.30759321362799463  0.6091504832072951  1.0000
  C   C11       1.0  0.1496308212721502  0.42073102421067543  0.5673653386230282  1.0000
  C   C12       1.0  0.0748127841388392  0.4207309105616761  0.5673655872914862  1.0000
  N   N2        1.0  0.0146644673130199  0.42073086981669316  0.567365795714637  1.0000
  C   C13       1.0  0.1861149506733987  0.5338689106009156  0.5255801411439007  1.0000
  C   C14       1.0  0.2587856486704724  0.5339759562854736  0.525488647161392  1.0000
  H   H1        1.0  0.5107531120535632  0.30642504525548087  0.7515261331669996  1.0000
  H   H2        1.0  0.3832744805824422  0.3071127003279446  0.7527281601808753  1.0000
  H   H3        1.0  0.3832510644136736  0.5343499778793761  0.3820027297391433  1.0000
  H   H4        1.0  0.5107301717730748  0.5350372703072377  0.3832052059192008  1.0000
  H   H5        1.0  0.2858496914186269  0.21834285483171123  0.6404139705735026  1.0000
  H   H6        1.0  0.1583711823994221  0.2193492876868124  0.6413555720469548  1.0000
  H   H7        1.0  0.158408147555405  0.6221128120107635  0.49337506685597865  1.0000
  H   H8        1.0  0.2858873254111291  0.6231195286162086  0.49431644639732375  1.0000
  C   C15       1.0  0.8345060151706877  0.03936239136832698  0.5674053838991024  1.0000
  C   C16       1.0  0.8143127762692771  0.04848841482607735  0.4359938410201327  1.0000
  C   C17       1.0  0.804144446927776  0.9359764719974001  0.3693714807151911  1.0000
  C   C18       1.0  0.8144399790601121  0.813206775696911  0.43592528755655735  1.0000
  C   C19       1.0  0.8346319602892759  0.8020894606323424  0.5673373809878746  1.0000
  C   C20       1.0  0.8445522409249201  0.9157217574921521  0.6323414139382633  1.0000
  C   C21       1.0  0.7827814764821452  0.9466846803046884  0.23034569561605633  1.0000
  C   C22       1.0  0.7321660592299055  0.0378456485519274  0.18515815054464269  1.0000
  C   C23       1.0  0.7120890326699242  0.0477949885092781  0.05430602071899093  1.0000
  C   C24       1.0  0.7422475499299138  0.9670020247331794  0.966561279100207  1.0000
  C   C25       1.0  0.7926960464942412  0.8760388043880356  0.010858257642945457  1.0000
  C   C26       1.0  0.8128287449611982  0.8658334274186447  0.14168041418319444  1.0000
  N   N3        1.0  0.7216817418495917  0.9773103012210727  0.8327246179368095  1.0000
  H   H9        1.0  0.8421710180359394  0.3633372186555306  0.6174964066394206  1.0000
  H   H10       1.0  0.8073663714966426  0.14337447919948154  0.3846411538874914  1.0000
  H   H11       1.0  0.8057490834053013  0.7261589456462113  0.38551271209964955  1.0000
  H   H12       1.0  0.8601298817633612  0.907913407661678  0.7337195994809205  1.0000
  H   H13       1.0  0.842356256342487  0.470400801927242  0.6173967820245132  1.0000
  H   H14       1.0  0.7074526562425121  0.10028155113076131  0.2513619600156558  1.0000
  H   H15       1.0  0.6728989859533171  0.11826382604829488  0.02139417092357121  1.0000
  H   H16       1.0  0.8165497963196487  0.813257088848564  0.9439651692187017  1.0000
  H   H17       1.0  0.852551382525933  0.7958743220160036  0.17315270878224331  1.0000
  H   H18       1.0  0.7438674108862362  0.9174902034191816  0.7665844212421145  1.0000
  H   H19       1.0  0.6841183209943934  0.04483873591784926  0.7987895910951002  1.0000
  C   C27       1.0  0.8345092748393361  0.4205784900267222  0.1859988690306149  1.0000
  C   C28       1.0  0.7626480792835562  0.3961983510143279  0.1866725351896843  1.0000
  C   C29       1.0  0.726339034589063  0.3839998741573063  0.06984652597495256  1.0000
  C   C30       1.0  0.7628121107708814  0.3965156490170614  0.95136453928707  1.0000
  C   C31       1.0  0.8346287207878523  0.4208733538947447  0.9487439277588288  1.0000
  C   C32       1.0  0.8700579611533616  0.4327589420848341  0.06659457617745002  1.0000
  C   C33       1.0  0.6503640308768562  0.35823714605778334  0.07153182882626541  1.0000
  C   C34       1.0  0.6064176880321378  0.4234737244964122  0.9788583957261721  1.0000
  C   C35       1.0  0.5349207318346448  0.3992734193142744  0.9805223161320269  1.0000
  C   C36       1.0  0.5061665817925388  0.3085614498049889  0.07399041005819185  1.0000
  C   C37       1.0  0.5496468474852105  0.24442114804223625  0.16758227585411167  1.0000
  C   C38       1.0  0.6211470959343359  0.2685918059226169  0.16609650774924023  1.0000
  C   C39       1.0  0.4291415888456952  0.2852748490297845  0.07790890140802031  1.0000
  O   O1        1.0  0.3979388951384221  0.37286264927930923  0.1574082794144842  1.0000
  H   H20       1.0  0.9700625887594666  0.4674268434649249  0.3919555857936794  1.0000
  H   H21       1.0  0.7346260148237183  0.3884346719261853  0.27814881267193003  1.0000
  H   H22       1.0  0.735234632652727  0.3854634160679098  0.8611864101556357  1.0000
  H   H23       1.0  0.9254518859566415  0.45155041430968823  0.06528904048716799  1.0000
  H   H24       1.0  0.8622427341449076  0.4303280996162182  0.6202538887887208  1.0000
  H   H25       1.0  0.627205457139305  0.4947297163425315  0.9062943764842806  1.0000
  H   H26       1.0  0.5019533394646611  0.4515535754035851  0.9090368296104243  1.0000
  H   H27       1.0  0.5282185592576485  0.17537154602829585  0.2415859790829602  1.0000
  H   H28       1.0  0.6536967477115458  0.21611115023233118  0.2381052256787295  1.0000
  H   H29       1.0  0.41809384723001597  0.18348774064684803  0.1167368603431509  1.0000
  H   H30       1.0  0.40714459242051776  0.29864009207817266  0.9777768532399929  1.0000
  H   H31       1.0  0.3474115063270279  0.35350911324415524  0.15670663038960053  1.0000
  Zn  Zn1       1.0  0.7584121040272784  0.4207274543006305  0.5673733018408109  1.0000
  Zn  Zn2       1.0  0.9107192215597911  0.42072376453849936  0.5673689138788123  1.0000
  C   C40       1.0  0.8346037248164615  0.41564394478387756  0.8045692529309296  1.0000
  C   C41       1.0  0.8345292642501417  0.4258089126821316  0.33017309006244644  1.0000
  C   C42       1.0  0.8346037702892418  0.6579158013820867  0.562175052939458  1.0000
  C   C43       1.0  0.8345291665587743  0.18353549581097672  0.5725673594337177  1.0000
  O   O2        1.0  0.8923357292917969  0.427557224324709  0.3785576109845805  1.0000
  O   O3        1.0  0.8923948376148556  0.41389185283120167  0.7561810278848715  1.0000
  O   O4        1.0  0.8923940953777699  0.6095294415209775  0.560445996314717  1.0000
  O   O5        1.0  0.8923364195430676  0.23191964488876105  0.5742925451798118  1.0000
  O   O6        1.0  0.7767948540690569  0.6095315739530394  0.560449670534477  1.0000
  O   O7        1.0  0.7767955965497843  0.4138955455388793  0.7561846327194981  1.0000
  O   O8        1.0  0.7767364880209913  0.4275608711728518  0.3785596544077201  1.0000
  O   O9        1.0  0.7767371782831317  0.231923282485746  0.5742946859725415  1.0000
