data_image0
_chemical_formula_structural       NC8NC6H8C16H10C16H10Zn2C4O8
_chemical_formula_sum              "N2 C50 H28 Zn2 O8"
_cell_length_a       17.457602349358154
_cell_length_b       10.29914801576943
_cell_length_c       10.299151387937775
_cell_angle_alpha    85.56202673548964
_cell_angle_beta     92.86396087313608
_cell_angle_gamma    91.70309287404056

_space_group_name_H-M_alt    "P 1"
_space_group_IT_number       1

loop_
  _space_group_symop_operation_xyz
  'x, y, z'

loop_
  _atom_site_type_symbol
  _atom_site_label
  _atom_site_symmetry_multiplicity
  _atom_site_fract_x
  _atom_site_fract_y
  _atom_site_fract_z
  _atom_site_occupancy
  N   N1        1.0  0.7227931698645835  0.45235832343041915  0.6259180501168007  1.0000
  C   C1        1.0  0.6617098932392041  0.4064245740607235  0.6153210830471953  1.0000
  C   C2        1.0  0.5857197137912326  0.3492887088652048  0.6021479956118403  1.0000
  C   C3        1.0  0.5271881138533089  0.3894865863276067  0.677029057267561  1.0000
  C   C4        1.0  0.4526362490866989  0.33446943174720967  0.6644695423235296  1.0000
  C   C5        1.0  0.39051355907574936  0.37691257383669896  0.7437714787482301  1.0000
  C   C6        1.0  0.31597603823655535  0.3953582764394836  0.6880006215403915  1.0000
  C   C7        1.0  0.2574443965250204  0.4353722597521341  0.762989711508351  1.0000
  C   C8        1.0  0.1814690652831255  0.4544229026869624  0.7050031535603882  1.0000
  N   N2        1.0  0.12039781454022862  0.46973323943179013  0.6583821146183726  1.0000
  C   C9        1.0  0.2729580885441585  0.45718392399603736  0.8942580755039302  1.0000
  C   C10       1.0  0.3467109159525849  0.43912740992298827  0.9504163709847677  1.0000
  C   C11       1.0  0.4052309252177156  0.39929369549842875  0.8758849274327967  1.0000
  C   C12       1.0  0.4379046999679876  0.23857629885680653  0.5755963268656548  1.0000
  C   C13       1.0  0.49642457508841104  0.19865729923542141  0.5011151536134806  1.0000
  C   C14       1.0  0.5701916262271634  0.25378707836779446  0.5142245707517612  1.0000
  H   H1        1.0  0.5395351655003966  0.46471632913419425  0.7436288967056257  1.0000
  H   H2        1.0  0.3036407783353316  0.3803423184033592  0.5859825768494131  1.0000
  H   H3        1.0  0.2280946871594439  0.48809493395736014  0.9530811297385848  1.0000
  H   H4        1.0  0.3585327315053497  0.4557009986576237  0.05206052134485084  1.0000
  H   H5        1.0  0.46170901988062535  0.38432067564446326  0.921997341479825  1.0000
  H   H6        1.0  0.3814147900660031  0.19323225215908946  0.5649630026318313  1.0000
  H   H7        1.0  0.4845916328180558  0.12454359156447925  0.433316541701388  1.0000
  H   H8        1.0  0.6150548873581253  0.22200651881094036  0.45591299436108335  1.0000
  C   C15       1.0  0.9215445075774772  0.07964223540868609  0.6423114699335084  1.0000
  C   C16       1.0  0.9040427762092624  0.0884184431627657  0.5074080175612263  1.0000
  C   C17       1.0  0.8952254246159033  0.9757407994953238  0.43884910403807775  1.0000
  C   C18       1.0  0.9041452376984568  0.8531709303348213  0.507011791716987  1.0000
  C   C19       1.0  0.9216537977791273  0.8424396155367735  0.6420005548415308  1.0000
  C   C20       1.0  0.9302470003650605  0.9561864392154641  0.7088193349553304  1.0000
  C   C21       1.0  0.8767108929173869  0.9860705828189787  0.29613753628847816  1.0000
  C   C22       1.0  0.9130188904152804  0.9066352044881427  0.21388405886909245  1.0000
  C   C23       1.0  0.8955668484343009  0.9164812461431671  0.0795672378343959  1.0000
  C   C24       1.0  0.8416276599113511  0.005654365408437556  0.025685005240212  1.0000
  C   C25       1.0  0.8051799193091609  0.0850633966070331  0.10664312734034342  1.0000
  C   C26       1.0  0.8225772583631732  0.07545623926673661  0.2409764285820717  1.0000
  C   C27       1.0  0.8236890801257963  0.015668402092973377  0.8873956995119423  1.0000
  C   C28       1.0  0.8086657128783308  0.024055063264575294  0.771580401143221  1.0000
  C   C29       1.0  0.7910735272658136  0.0338757291163867  0.6359618697215232  1.0000
  C   C30       1.0  0.7760526814614688  0.042261131308025  0.5201652850553096  1.0000
  H   H9        1.0  0.9282369657680931  0.4037394116444766  0.6942119887530969  1.0000
  H   H10       1.0  0.8982611713379897  0.18319863900072964  0.45502568998900306  1.0000
  H   H11       1.0  0.8963833138157867  0.765916219269607  0.45496235615542435  1.0000
  H   H12       1.0  0.9437442909221239  0.9487011364891467  0.81287450297657  1.0000
  H   H13       1.0  0.9542251566389855  0.6148575724549367  0.8969242132028017  1.0000
  H   H14       1.0  0.9556334057007  0.8381082611336366  0.2532133163775925  1.0000
  H   H15       1.0  0.9242775789665639  0.8547851627323766  0.01773636333001094  1.0000
  H   H16       1.0  0.7631757873473284  0.15418077168915056  0.06599380957947187  1.0000
  H   H17       1.0  0.7929722689043924  0.13672308969776115  0.3019314974663878  1.0000
  H   H18       1.0  0.7628631696012651  0.049624225380827  0.4184861243872562  1.0000
  C   C31       1.0  0.9216435961698966  0.4608741113759114  0.2607887200168062  1.0000
  C   C32       1.0  0.847627368207963  0.5115972492285326  0.24981426805886087  1.0000
  C   C33       1.0  0.810053877140517  0.5374868854680905  0.12709023190179458  1.0000
  C   C34       1.0  0.8474939594248654  0.5119690452462538  0.014490882781240888  1.0000
  C   C35       1.0  0.921554706283149  0.4612077051064627  0.023523297344530292  1.0000
  C   C36       1.0  0.9581743421078409  0.4359747145677071  0.14706150506480054  1.0000
  C   C37       1.0  0.7317536720487792  0.5911461333122674  0.11652599828306975  1.0000
  C   C38       1.0  0.7122810448321901  0.6901158830353591  0.019589437982960645  1.0000
  C   C39       1.0  0.638572241730115  0.7405801987731444  0.009773636743674263  1.0000
  C   C40       1.0  0.5833691510219987  0.6928410310998077  0.0965133673765588  1.0000
  C   C41       1.0  0.602146524344192  0.5943992851631785  0.1932308338245199  1.0000
  C   C42       1.0  0.675833304282995  0.5438464068665827  0.20329443857762963  1.0000
  C   C43       1.0  0.5074965163356201  0.744840650937372  0.0862808421427983  1.0000
  C   C44       1.0  0.4439542553896145  0.7883895431735486  0.07771116155377844  1.0000
  C   C45       1.0  0.3695469285766398  0.8393849099818764  0.067676153213577  1.0000
  C   C46       1.0  0.3060149362188406  0.8829270023832216  0.059107963921636975  1.0000
  H   H19       1.0  0.9500970849472775  0.44130053645524403  0.5924891018400089  1.0000
  H   H20       1.0  0.819441084188812  0.5327617925550359  0.33680734646335386  1.0000
  H   H21       1.0  0.8183852956635496  0.5300776569900914  0.9197331655454244  1.0000
  H   H22       1.0  0.015264032031109265  0.39684706004473425  0.15481083328956968  1.0000
  H   H23       1.0  0.06114762322694789  0.3646315081620888  0.8333219564105674  1.0000
  H   H24       1.0  0.7543459047891549  0.7296592320010329  0.9524617738248704  1.0000
  H   H25       1.0  0.6247086382017581  0.8170300341786794  0.9347569402436915  1.0000
  H   H26       1.0  0.5597843097313948  0.5564842764640279  0.2606649392754352  1.0000
  H   H27       1.0  0.6887901433878908  0.46659524644313444  0.2778444007142786  1.0000
  H   H28       1.0  0.2502286014575085  0.9211604921325001  0.05158439370242718  1.0000
  Zn  Zn1       1.0  0.8375332802443715  0.4573688691295561  0.635293977725722  1.0000
  Zn  Zn2       1.0  0.005657687145725454  0.46471204959281454  0.6490168238321106  1.0000
  C   C47       1.0  0.9215690630762975  0.45597046256785134  0.8793520835834947  1.0000
  C   C48       1.0  0.9216237404470543  0.4661121751665751  0.40495899462527785  1.0000
  C   C49       1.0  0.9216298000681592  0.6982522482273079  0.6368838308919751  1.0000
  C   C50       1.0  0.9215629458544258  0.22382882658683978  0.6474273125085719  1.0000
  O   O1        1.0  0.9854194121045424  0.47065114968349464  0.45855160668552064  1.0000
  O   O2        1.0  0.9853759260261362  0.4570038121375495  0.8361744207479289  1.0000
  O   O3        1.0  0.9854241116718235  0.6526493811536  0.6403795204419527  1.0000
  O   O4        1.0  0.9853711691020617  0.27500558741018866  0.6543464049307819  1.0000
  O   O5        1.0  0.8578197409154273  0.6470753288077264  0.6299643919372853  1.0000
  O   O6        1.0  0.8577715554978992  0.45143132020749754  0.8257592223617223  1.0000
  O   O7        1.0  0.8578150418027908  0.46507861181258114  0.44813484692793915  1.0000
  O   O8        1.0  0.8577667987844957  0.26943304029207416  0.6439297425441504  1.0000
