data_image0
_chemical_formula_structural       NC11NC3H8C12SCH12C13OH12Zn2C4O8
_chemical_formula_sum              "N2 C44 H32 S1 O9 Zn2"
_cell_length_a       17.807433833752565
_cell_length_b       10.299776766347529
_cell_length_c       10.299153481560891
_cell_angle_alpha    85.58387196387294
_cell_angle_beta     88.54091418840825
_cell_angle_gamma    90.66624570658541

_space_group_name_H-M_alt    "P 1"
_space_group_IT_number       1

loop_
  _space_group_symop_operation_xyz
  'x, y, z'

loop_
  _atom_site_type_symbol
  _atom_site_label
  _atom_site_symmetry_multiplicity
  _atom_site_fract_x
  _atom_site_fract_y
  _atom_site_fract_z
  _atom_site_occupancy
  N   N1        1.0  0.7068961629663102  0.43788303223936964  0.5347211580093469  1.0000
  C   C1        1.0  0.6560944815690315  0.40318274571414237  0.601281742680186  1.0000
  C   C2        1.0  0.5928920623065393  0.3600184484014042  0.6840746158837985  1.0000
  C   C3        1.0  0.6046519001590842  0.2965169712829374  0.8067898007594412  1.0000
  C   C4        1.0  0.5433561729433664  0.25503153348892904  0.8872988256173207  1.0000
  C   C5        1.0  0.470146427645704  0.27673455842627814  0.8457334451292  1.0000
  C   C6        1.0  0.45740968932933135  0.3403904056421305  0.7225580718707487  1.0000
  C   C7        1.0  0.3796310040296643  0.3634224474427554  0.6782121095834461  1.0000
  C   C8        1.0  0.3608284677475311  0.346500173957504  0.5486317071207378  1.0000
  C   C9        1.0  0.2875887795996477  0.3681644544543723  0.5070222537344495  1.0000
  C   C10       1.0  0.2322083550356756  0.40706921184708933  0.5941729460070295  1.0000
  C   C11       1.0  0.1568315913139336  0.4293914172962525  0.5512022324134886  1.0000
  N   N2        1.0  0.0962340475648472  0.44733681209527965  0.5166569060829078  1.0000
  C   C12       1.0  0.25031919823988247  0.42420185235368635  0.7232222257933387  1.0000
  C   C13       1.0  0.3235061746842118  0.40250274169271094  0.7650871057580324  1.0000
  C   C14       1.0  0.5195627320749994  0.3818712849608872  0.642065462569235  1.0000
  H   H1        1.0  0.6611266072016815  0.2791157611571402  0.8401544525178977  1.0000
  H   H2        1.0  0.5525795875686491  0.2056169273410977  0.9820324437654897  1.0000
  H   H3        1.0  0.423524385638253  0.24220378298700673  0.9091707688067927  1.0000
  H   H4        1.0  0.4025009754392587  0.31483222523989185  0.4799142370699674  1.0000
  H   H5        1.0  0.2741328209973646  0.3542451214945601  0.4069876662156513  1.0000
  H   H6        1.0  0.20793004617714184  0.45464659700280596  0.7914248794749361  1.0000
  H   H7        1.0  0.3364333830542021  0.41796738425660807  0.8649390036602671  1.0000
  H   H8        1.0  0.5110375821586203  0.4326483094756113  0.5475662155172893  1.0000
  C   C15       1.0  0.9016395294062884  0.06124658964724361  0.525683960740081  1.0000
  C   C16       1.0  0.9061769651268051  0.04984699608544507  0.6619878251214706  1.0000
  C   C17       1.0  0.9084037911080921  0.926930356062601  0.7310627926106619  1.0000
  C   C18       1.0  0.9060333174029156  0.8145557374786724  0.6620096803997153  1.0000
  C   C19       1.0  0.9014978879728778  0.8239634319604642  0.5257049735466659  1.0000
  C   C20       1.0  0.8993259595415785  0.9477486036250349  0.45830512898259745  1.0000
  C   C21       1.0  0.9131956070990558  0.9159345774236731  0.8752572859643128  1.0000
  C   C22       1.0  0.8702124143691464  0.8214586472478667  0.9512945564388664  1.0000
  C   C23       1.0  0.8747446358652808  0.8113453351859644  0.08699407150271732  1.0000
  C   C24       1.0  0.9220730474462338  0.8954255323597234  0.14847167140809014  1.0000
  C   C25       1.0  0.9652357506347008  0.9893325575525498  0.07379914191380099  1.0000
  C   C26       1.0  0.9608136861299227  0.999798429207436  0.9380841008011949  1.0000
  S   S1        1.0  0.9279713551000451  0.8819902355075588  0.3225889751881271  1.0000
  C   C27       1.0  0.8524834381085977  0.9962265226589019  0.34562021047785063  1.0000
  H   H9        1.0  0.899940115948902  0.3930445518826837  0.4737446297651178  1.0000
  H   H10       1.0  0.9069538009229611  0.13671711002005504  0.7149103054841888  1.0000
  H   H11       1.0  0.9087689402936099  0.719628531694057  0.7146451408775576  1.0000
  H   H12       1.0  0.895826034456331  0.9557744295371043  0.3531524693996666  1.0000
  H   H13       1.0  0.8997321779327347  0.5000935120268633  0.4737733843474876  1.0000
  H   H14       1.0  0.8323866166742164  0.7565581495023036  0.90593527918767  1.0000
  H   H15       1.0  0.8411662217887272  0.7384889457014479  0.1442737246285578  1.0000
  H   H16       1.0  0.0022622617261114364  0.05427012835252554  0.1207844443397742  1.0000
  H   H17       1.0  0.9953405096254476  0.0723094353815239  0.8821734916978541  1.0000
  H   H18       1.0  0.867514271356618  0.09290257655684897  0.29604498255881595  1.0000
  H   H19       1.0  0.843796146198017  0.006735092442556434  0.45130293806057586  1.0000
  H   H20       1.0  0.7996131166536677  0.9593941874108552  0.30595101953627224  1.0000
  C   C28       1.0  0.9015042035751799  0.44245601776036914  0.14432489561891448  1.0000
  C   C29       1.0  0.8238382705757652  0.4161902269460771  0.14859942123329617  1.0000
  C   C30       1.0  0.7845962436205213  0.40303899154065226  0.03359282015415532  1.0000
  C   C31       1.0  0.8240154567483404  0.41651182453001834  0.9132832386319665  1.0000
  C   C32       1.0  0.9016332053810444  0.442754011405867  0.9070640008518596  1.0000
  C   C33       1.0  0.9399243652287181  0.4555692721621942  0.023139325045092862  1.0000
  C   C34       1.0  0.7024841962918021  0.3752826642780094  0.03908512100851658  1.0000
  C   C35       1.0  0.6549588048697852  0.43936466171102895  0.9486237850138983  1.0000
  C   C36       1.0  0.5776865129287458  0.41328826144181363  0.953870320400005  1.0000
  C   C37       1.0  0.5466391732420325  0.3218232121745923  0.04876913140750472  1.0000
  C   C38       1.0  0.593660382274374  0.25882523923086276  0.14017241121520652  1.0000
  C   C39       1.0  0.6709362436106878  0.28487207913286583  0.1351038593177658  1.0000
  C   C40       1.0  0.46339128999577117  0.29651541011737326  0.056547587942014976  1.0000
  O   O1        1.0  0.429632376276214  0.38328270570664547  0.13762274905639615  1.0000
  H   H21       1.0  0.048006805111709294  0.4928613013880938  0.3434893413463782  1.0000
  H   H22       1.0  0.7935520306601315  0.4076912125199905  0.24148006113340625  1.0000
  H   H23       1.0  0.7942109682781333  0.4047359832298463  0.8244867647732996  1.0000
  H   H24       1.0  0.9997928501300926  0.4758142918222832  0.019058080530607757  1.0000
  H   H25       1.0  0.9314777666627216  0.4529333527012911  0.5771902748100799  1.0000
  H   H26       1.0  0.6774023646277862  0.5111649908332372  0.8750261399420953  1.0000
  H   H27       1.0  0.5420329952781194  0.4647022219623216  0.8840447083707135  1.0000
  H   H28       1.0  0.5705236813566965  0.1892144496401078  0.21524213846620777  1.0000
  H   H29       1.0  0.706138298210899  0.23324665845828774  0.20547362778458678  1.0000
  H   H30       1.0  0.45148685253140747  0.19444014433233447  0.09591688816285138  1.0000
  H   H31       1.0  0.4396098543036662  0.3093030785589339  0.9575203785006159  1.0000
  H   H32       1.0  0.375024338005075  0.36260336031283824  0.1394526774368321  1.0000
  Zn  Zn1       1.0  0.8192506680100924  0.44060771722829806  0.5295156895485977  1.0000
  Zn  Zn2       1.0  0.9838795315231113  0.44460151180341945  0.5218729602828791  1.0000
  C   C41       1.0  0.9016080919115208  0.43752403892369873  0.7628899264506874  1.0000
  C   C42       1.0  0.9015239050809583  0.4476868723658871  0.28849876743418856  1.0000
  C   C43       1.0  0.9015198991032403  0.6797916030543858  0.5205259835090452  1.0000
  C   C44       1.0  0.9016120420144278  0.2054177466193663  0.5308627821795648  1.0000
  O   O2        1.0  0.9640063138712637  0.4509523535236455  0.3339844597781241  1.0000
  O   O3        1.0  0.9640751813937439  0.4372887755839088  0.7116032055611565  1.0000
  O   O4        1.0  0.9640031226104583  0.6329228776072002  0.5158926460068596  1.0000
  O   O5        1.0  0.9640783164596777  0.2553182593895873  0.5296949245657898  1.0000
  O   O6        1.0  0.8390518268937732  0.6298909682806553  0.5216937278669445  1.0000
  O   O7        1.0  0.8391238853721169  0.4342584265117231  0.7174042182187648  1.0000
  O   O8        1.0  0.8390550176439614  0.4479219585873373  0.339783911028835  1.0000
  O   O9        1.0  0.8391270202474941  0.2522878552025709  0.5354944731843905  1.0000
