data_image0
_chemical_formula_structural       NC10NC5H10C12NCOCH13C12NH11Zn2C4O8
_chemical_formula_sum              "N4 C45 H34 O9 Zn2"
_cell_length_a       19.4436361288709
_cell_length_b       10.299155265289647
_cell_length_c       10.299774167527174
_cell_angle_alpha    85.56091470143106
_cell_angle_beta     89.69810155224394
_cell_angle_gamma    89.39615277754326

_space_group_name_H-M_alt    "P 1"
_space_group_IT_number       1

loop_
  _space_group_symop_operation_xyz
  'x, y, z'

loop_
  _atom_site_type_symbol
  _atom_site_label
  _atom_site_symmetry_multiplicity
  _atom_site_fract_x
  _atom_site_fract_y
  _atom_site_fract_z
  _atom_site_occupancy
  N   N1        1.0  0.6474476481584122  0.40899695273257675  0.5617783076074327  1.0000
  C   C1        1.0  0.5886096612511345  0.4189012281022224  0.576159046282652  1.0000
  C   C2        1.0  0.5152778186880362  0.43125319329909906  0.5941473253190335  1.0000
  C   C3        1.0  0.4731007878746207  0.39924310135266716  0.49948604900141613  1.0000
  C   C4        1.0  0.397193956814545  0.4096827692952614  0.504811125837733  1.0000
  C   C5        1.0  0.35745935627273356  0.3849452736584251  0.611885694127664  1.0000
  C   C6        1.0  0.2813380546309705  0.3888607015769492  0.5989258111918461  1.0000
  C   C7        1.0  0.2407628920037289  0.4465369845997471  0.6926772404734272  1.0000
  C   C8        1.0  0.16909878820674773  0.4501738022864732  0.6821328096955155  1.0000
  C   C9        1.0  0.137015171662912  0.39573832903276873  0.5781235697696809  1.0000
  C   C10       1.0  0.0632218112296169  0.3994363767693909  0.567423847145355  1.0000
  N   N2        1.0  0.0038969545466991003  0.40240941311654077  0.5588219795208169  1.0000
  C   C11       1.0  0.176865587206464  0.33735494709999614  0.4847555476816259  1.0000
  C   C12       1.0  0.2485461323069059  0.3336638727102619  0.4950482259278577  1.0000
  C   C13       1.0  0.3855998994566345  0.34449647553691176  0.7429856426958819  1.0000
  C   C14       1.0  0.4442543916451782  0.3876269072256435  0.7902147022009498  1.0000
  C   C15       1.0  0.48844200034244256  0.48548381787115313  0.715824326447001  1.0000
  H   H1        1.0  0.49520622699130223  0.37011357469902184  0.40919073234130887  1.0000
  H   H2        1.0  0.3724913389178054  0.43216847015278304  0.4116506627717871  1.0000
  H   H3        1.0  0.2646240436567083  0.4898402627358378  0.7735106879311751  1.0000
  H   H4        1.0  0.13874429439086022  0.4955000523622999  0.7550385828235384  1.0000
  H   H5        1.0  0.1525325111382558  0.2942473789213309  0.4042565172309487  1.0000
  H   H6        1.0  0.2782354684120937  0.2860941480053065  0.42283935367917125  1.0000
  H   H7        1.0  0.3546473456593546  0.2802820121269465  0.8072469648757712  1.0000
  H   H8        1.0  0.45941087063132563  0.3535683340487976  0.8881541312408723  1.0000
  H   H9        1.0  0.4583144426918143  0.5762018593113458  0.69054933447198  1.0000
  H   H10       1.0  0.5317215233310655  0.5110788714216343  0.7788998770880127  1.0000
  C   C16       1.0  0.8257524028074498  0.02430425437902728  0.56041820323341  1.0000
  C   C17       1.0  0.8140117556778429  0.03419350845732416  0.4255970291444573  1.0000
  C   C18       1.0  0.8079923952437871  0.9220710920551715  0.35712268806901304  1.0000
  C   C19       1.0  0.8138473205514021  0.7989367143548068  0.42529062324906164  1.0000
  C   C20       1.0  0.8255988017067811  0.7870920430611549  0.560193294035009  1.0000
  C   C21       1.0  0.8314820562633622  0.9002941595372166  0.6269265414144953  1.0000
  C   C22       1.0  0.7955730572946045  0.9335063823870365  0.21449815841110675  1.0000
  C   C23       1.0  0.8304590316899608  0.026955776087744576  0.13279523427533424  1.0000
  C   C24       1.0  0.8187772757970488  0.03758615580309321  0.9985760010665197  1.0000
  C   C25       1.0  0.7724036419475411  0.9540893654470811  0.9432127919427065  1.0000
  C   C26       1.0  0.7366775377379546  0.862471769680628  0.024854527757692146  1.0000
  C   C27       1.0  0.7483843463894736  0.8515848998462251  0.15903621955819336  1.0000
  N   N3        1.0  0.758508703813987  0.9645587857678944  0.8057737453797214  1.0000
  C   C28       1.0  0.8087352086415317  0.0005468073694334663  0.7071442872633846  1.0000
  O   O1        1.0  0.8718307169301838  0.0019208003055215528  0.7344780375938971  1.0000
  C   C29       1.0  0.7868018044717766  0.027370327200770372  0.5687931247541727  1.0000
  H   H11       1.0  0.8302897072194383  0.34797621540795953  0.6122703226136179  1.0000
  H   H12       1.0  0.8085732677589001  0.1293284230509515  0.3738350460969919  1.0000
  H   H13       1.0  0.8101507130001758  0.7121950898172594  0.3726954227929624  1.0000
  H   H14       1.0  0.8405401781756895  0.8919514632185243  0.7309164657917702  1.0000
  H   H15       1.0  0.8481909625321988  0.5574448899831929  0.814680800779948  1.0000
  H   H16       1.0  0.8671834984954685  0.09133371011755642  0.1725809993490104  1.0000
  H   H17       1.0  0.8451667931845317  0.1125417922341998  0.9387796324417681  1.0000
  H   H18       1.0  0.6998871182967755  0.798798925906879  0.9842023164114164  1.0000
  H   H19       1.0  0.719784713907864  0.7802866285472627  0.21968382463250102  1.0000
  H   H20       1.0  0.7100673027583442  0.9365790401303372  0.775103589503717  1.0000
  H   H21       1.0  0.7371536806481127  0.0817326230948805  0.5647514703927352  1.0000
  H   H22       1.0  0.7804400923182796  0.9338689324142802  0.523624044020282  1.0000
  H   H23       1.0  0.8259597169760838  0.08672649095796969  0.5130757981996026  1.0000
  C   C30       1.0  0.8256990148302309  0.4055831695009773  0.1789535053548561  1.0000
  C   C31       1.0  0.7583481652914401  0.35752229263354884  0.18234747664906692  1.0000
  C   C32       1.0  0.7241968517179559  0.3332857377719807  0.06691957505479929  1.0000
  C   C33       1.0  0.7583008667938508  0.35775448524444053  0.9470430893040427  1.0000
  C   C34       1.0  0.8256521542877044  0.4058131273529286  0.9416579706759363  1.0000
  C   C35       1.0  0.8589739687626288  0.42945885099488645  0.05813558488159565  1.0000
  C   C36       1.0  0.6529435562335067  0.28244068231274877  0.07156354846133461  1.0000
  C   C37       1.0  0.6336336138031274  0.18433626055541175  0.16705163331385364  1.0000
  C   C38       1.0  0.5665668064144038  0.13653648185509937  0.17128884676826028  1.0000
  C   C39       1.0  0.5177490609969042  0.18596801808299324  0.08037473652371419  1.0000
  C   C40       1.0  0.5366052145944099  0.2836906362027578  0.9850498956389719  1.0000
  C   C41       1.0  0.6036513488704287  0.33159206644713324  0.9805465435117156  1.0000
  N   N4        1.0  0.4491552938858102  0.13702031891631483  0.08484516302432077  1.0000
  H   H24       1.0  0.8513744801429494  0.423842677480178  0.5051177663656139  1.0000
  H   H25       1.0  0.731945674825515  0.3405057760442691  0.27485732473301416  1.0000
  H   H26       1.0  0.7325467243288408  0.3375533406833817  0.8579324020480725  1.0000
  H   H27       1.0  0.9109321977975182  0.4665347151206989  0.054749304191124004  1.0000
  H   H28       1.0  0.8513057130795472  0.4241809237146883  0.6121484592039881  1.0000
  H   H29       1.0  0.6706394469400143  0.1433811369688105  0.23740647803484172  1.0000
  H   H30       1.0  0.5527075713159308  0.06074023588999489  0.24524468911154984  1.0000
  H   H31       1.0  0.499312590401548  0.3229856241786391  0.9144278701675801  1.0000
  H   H32       1.0  0.616706359055179  0.40826973536716227  0.9069291320679529  1.0000
  H   H33       1.0  0.4124057309022196  0.17325858883636047  0.01747486859590275  1.0000
  H   H34       1.0  0.434614454152775  0.06418216239370422  0.15555865008962222  1.0000
  Zn  Zn1       1.0  0.7503112197579814  0.4070924617204643  0.5609326880163894  1.0000
  Zn  Zn2       1.0  0.9010333759427789  0.4043032988322004  0.5596782829527016  1.0000
  C   C42       1.0  0.8256605282472063  0.4005955768476559  0.7974920633543761  1.0000
  C   C43       1.0  0.8256857129969415  0.4108017920341487  0.32311902089437927  1.0000
  C   C44       1.0  0.8256245941718546  0.6429073919599764  0.5550609033801761  1.0000
  C   C45       1.0  0.8257215959513711  0.1684884174693133  0.5655502509922856  1.0000
  O   O2        1.0  0.8828795226983511  0.4114890704623049  0.3710262463639742  1.0000
  O   O3        1.0  0.8828613478370522  0.397790408411995  0.7486323999255742  1.0000
  O   O4        1.0  0.8828315594737386  0.5934602782421337  0.5528675290249145  1.0000
  O   O5        1.0  0.8829092596345123  0.21581921084551725  0.566791020319525  1.0000
  O   O6        1.0  0.768435284632173  0.5955765506603632  0.553819951070802  1.0000
  O   O7        1.0  0.7684650726823342  0.3999082412359558  0.7495847522689907  1.0000
  O   O8        1.0  0.7684832476943968  0.4136068575552203  0.3719770373878917  1.0000
  O   O9        1.0  0.7685129846236358  0.21793698867829825  0.5677419087097875  1.0000
