data_image0
_chemical_formula_structural       NC12NC2H8C12OCH12C12SCH12Zn2C4O8
_chemical_formula_sum              "N2 C44 H32 O9 S1 Zn2"
_cell_length_a       17.80743265337812
_cell_length_b       10.29979075500242
_cell_length_c       10.299780138516091
_cell_angle_alpha    85.57237843546018
_cell_angle_beta     91.52646952147009
_cell_angle_gamma    89.41792083348325

_space_group_name_H-M_alt    "P 1"
_space_group_IT_number       1

loop_
  _space_group_symop_operation_xyz
  'x, y, z'

loop_
  _atom_site_type_symbol
  _atom_site_label
  _atom_site_symmetry_multiplicity
  _atom_site_fract_x
  _atom_site_fract_y
  _atom_site_fract_z
  _atom_site_occupancy
  N   N1        1.0  0.7072734416427532  0.40623613972674577  0.6013185642867607  1.0000
  C   C1        1.0  0.656453334755582  0.4357729076464181  0.5326220483196993  1.0000
  C   C2        1.0  0.5932281067617462  0.4725145041095502  0.447172230064079  1.0000
  C   C3        1.0  0.6049543266644815  0.526494580059103  0.32055660633788996  1.0000
  C   C4        1.0  0.5436365466338133  0.5617333543107612  0.23750272700651287  1.0000
  C   C5        1.0  0.4704382444250708  0.5432553054386298  0.2804045920806415  1.0000
  C   C6        1.0  0.4577352386137545  0.48915657680700986  0.40748833726135714  1.0000
  C   C7        1.0  0.5199103353496047  0.45392105115411874  0.4905257057147565  1.0000
  C   C8        1.0  0.3799687216811188  0.4695653186583011  0.45325039482894747  1.0000
  C   C9        1.0  0.3611690904698098  0.4967926485301981  0.5802848155483709  1.0000
  C   C10       1.0  0.2879408320011784  0.47835618609544817  0.6232272380333894  1.0000
  C   C11       1.0  0.23256922290872553  0.4324383919267534  0.5399731734371549  1.0000
  C   C12       1.0  0.15720436163911464  0.41344955502256053  0.5843164741441802  1.0000
  N   N2        1.0  0.0966163502156769  0.39818380721909596  0.6199654373918284  1.0000
  C   C13       1.0  0.2506773538685803  0.4050423245221755  0.41348169998246154  1.0000
  C   C14       1.0  0.3238527721892863  0.4234934898599394  0.3702834055592734  1.0000
  H   H1        1.0  0.6614196989723657  0.5413072478984444  0.28612073118650194  1.0000
  H   H2        1.0  0.5528337583672828  0.6037989027904183  0.13972683679612086  1.0000
  H   H3        1.0  0.42379806196926184  0.5728696855648736  0.21481582071853977  1.0000
  H   H4        1.0  0.5114117683180271  0.41047015210917426  0.5881772571061379  1.0000
  H   H5        1.0  0.4028342142823556  0.5339931437528167  0.6458511389152262  1.0000
  H   H6        1.0  0.274486759688266  0.5002334203456311  0.7212283895488738  1.0000
  H   H7        1.0  0.2082950912054727  0.3691092463587813  0.34832821459520313  1.0000
  H   H8        1.0  0.336778709934447  0.4000808043132651  0.27258568009212536  1.0000
  C   C15       1.0  0.9020160019441984  0.02084076834996207  0.6106843355829064  1.0000
  C   C16       1.0  0.8802588713560274  0.010160846944791802  0.7410747770360777  1.0000
  C   C17       1.0  0.8691747533805186  0.8876141880656823  0.8071086003651247  1.0000
  C   C18       1.0  0.8801239071870341  0.7748813269148963  0.7410025309067372  1.0000
  C   C19       1.0  0.9018810044998128  0.7835690339830499  0.6106111553849585  1.0000
  C   C20       1.0  0.9127069730979862  0.9069925871382611  0.5461829161213496  1.0000
  C   C21       1.0  0.8461615185417948  0.8773694453708308  0.945055842045674  1.0000
  C   C22       1.0  0.7913424075784781  0.7876493837838104  0.9874940179275145  1.0000
  C   C23       1.0  0.7697506250455606  0.7782795404479641  0.11719338616818864  1.0000
  C   C24       1.0  0.802491814649933  0.8579717286621295  0.20610590355715208  1.0000
  C   C25       1.0  0.857510778638449  0.9482972570062148  0.16554892507991625  1.0000
  C   C26       1.0  0.8788697045031952  0.9573105836774576  0.03531172741227162  1.0000
  O   O1        1.0  0.8922301003976284  0.030302198137453384  0.25107658844358216  1.0000
  C   C27       1.0  0.8761130541246189  0.03164977494818122  0.38563501674795386  1.0000
  H   H9        1.0  0.9103392767980365  0.35236108005730693  0.5610228457852384  1.0000
  H   H10       1.0  0.8708862498558693  0.09739466858741186  0.7910525010935003  1.0000
  H   H11       1.0  0.8726305292827302  0.680150071694166  0.79200933078034  1.0000
  H   H12       1.0  0.9294922582902932  0.9144632868469369  0.44559222720348224  1.0000
  H   H13       1.0  0.9101340717865333  0.45942875182924126  0.5609086696409606  1.0000
  H   H14       1.0  0.7644769058476054  0.7259581066653302  0.9200006460322554  1.0000
  H   H15       1.0  0.7273187102752892  0.7091961622138524  0.14883855102443577  1.0000
  H   H16       1.0  0.7846801442282039  0.8486177999856731  0.3059151369425367  1.0000
  H   H17       1.0  0.921907659334665  0.025955626437472512  0.005208380665818413  1.0000
  H   H18       1.0  0.8890864892155691  0.9348660853366211  0.4368767723442407  1.0000
  H   H19       1.0  0.9115609979812567  0.10556706116502723  0.42954523883202245  1.0000
  H   H20       1.0  0.8161390085010499  0.05780470522642012  0.39719754436081167  1.0000
  C   C28       1.0  0.9019787078127404  0.40209298764414525  0.22929710630572853  1.0000
  C   C29       1.0  0.8305578484287247  0.3455587460627225  0.22937602943448043  1.0000
  C   C30       1.0  0.7943385897646293  0.3170272769793838  0.11226766937821409  1.0000
  C   C31       1.0  0.8304963034247652  0.3457854571452148  0.9940691656568768  1.0000
  C   C32       1.0  0.9019182834573786  0.40231685207622414  0.991998458149157  1.0000
  C   C33       1.0  0.937259509176665  0.4301548378519229  0.11011630004705997  1.0000
  C   C34       1.0  0.7187802770739455  0.25723383695138624  0.11341392189786204  1.0000
  C   C35       1.0  0.663133900093322  0.3000455455759843  0.019788729270596717  1.0000
  C   C36       1.0  0.5920348894262931  0.24373752044602504  0.02110488200117855  1.0000
  C   C37       1.0  0.5755451870097563  0.1442690822170456  0.11588659236632814  1.0000
  C   C38       1.0  0.630523093311049  0.10067226854973077  0.2090741892453345  1.0000
  C   C39       1.0  0.7016686124858678  0.15680590252695215  0.2081226870289401  1.0000
  S   S1        1.0  0.4843462212896069  0.07188430585130545  0.11712666840808872  1.0000
  C   C40       1.0  0.44579994064612544  0.18689638350428472  0.22399954401310462  1.0000
  H   H21       1.0  0.9292042885093952  0.4235873731856945  0.5567245716615925  1.0000
  H   H22       1.0  0.8024853782395117  0.3252170874847573  0.32058272761713136  1.0000
  H   H23       1.0  0.8032577199670577  0.3223474779942128  0.9036945145467747  1.0000
  H   H24       1.0  0.9923578368113432  0.47376781154225656  0.10928705058651711  1.0000
  H   H25       1.0  0.9291166753981376  0.4239166479449712  0.663750778233871  1.0000
  H   H26       1.0  0.6742912701670732  0.37818234358664027  0.9466379852904496  1.0000
  H   H27       1.0  0.5496996338756067  0.2779462545525875  0.9487430987716912  1.0000
  H   H28       1.0  0.6182173670328165  0.023255193042310607  0.28229473864147314  1.0000
  H   H29       1.0  0.7436000311733463  0.12055453896190227  0.2803644934106675  1.0000
  H   H30       1.0  0.477568792338286  0.1802092616770301  0.31853568957873657  1.0000
  H   H31       1.0  0.3861859206903878  0.1630006404881763  0.24191898846147097  1.0000
  H   H32       1.0  0.4486860594318263  0.287558366468899  0.1775376725206712  1.0000
  Zn  Zn1       1.0  0.8196293981464483  0.4039089454202138  0.6067071359767657  1.0000
  Zn  Zn2       1.0  0.9842603922540548  0.4005004111691879  0.6145874592616272  1.0000
  C   C41       1.0  0.9019289373841552  0.39710088411508226  0.8478319642466725  1.0000
  C   C42       1.0  0.9019626504815119  0.4073100739111899  0.37346284434783694  1.0000
  C   C43       1.0  0.9019030463438731  0.639395741645908  0.6054499159027265  1.0000
  C   C44       1.0  0.9019884856154662  0.1650136572602816  0.6158449593877051  1.0000
  O   O2        1.0  0.9644338667796329  0.40776178899178994  0.42483672516626503  1.0000
  O   O3        1.0  0.9644088365148604  0.3940611905732674  0.8024386927289833  1.0000
  O   O4        1.0  0.964387086850895  0.5897173700997114  0.6067134333540467  1.0000
  O   O5        1.0  0.9644555602722626  0.21210561989009658  0.6205618844812828  1.0000
  O   O6        1.0  0.8394341739477624  0.5923037378638825  0.6007327080611118  1.0000
  O   O7        1.0  0.8394559233375776  0.39664911862209773  0.796457898044127  1.0000
  O   O8        1.0  0.8394809537840376  0.41034967132533606  0.41885436916218444  1.0000
  O   O9        1.0  0.839502647267525  0.21469349296346896  0.6145796258411222  1.0000
