data_image0
_chemical_formula_structural       NC12NC2H8C13OH12C12NCOH11Zn2C4O8
_chemical_formula_sum              "N3 C44 H31 O10 Zn2"
_cell_length_a       19.240039667572717
_cell_length_b       10.299150109392551
_cell_length_c       10.299148425239203
_cell_angle_alpha    85.51660845067315
_cell_angle_beta     89.98519547309932
_cell_angle_gamma    89.97992514300192

_space_group_name_H-M_alt    "P 1"
_space_group_IT_number       1

loop_
  _space_group_symop_operation_xyz
  'x, y, z'

loop_
  _atom_site_type_symbol
  _atom_site_label
  _atom_site_symmetry_multiplicity
  _atom_site_fract_x
  _atom_site_fract_y
  _atom_site_fract_z
  _atom_site_occupancy
  N   N1        1.0  0.6544086413699416  0.4219863190297912  0.5668870678173468  1.0000
  C   C1        1.0  0.5942602725482395  0.42198640305200397  0.5668869858473038  1.0000
  C   C2        1.0  0.5194422354040639  0.4219865204044684  0.566886848494766  1.0000
  C   C3        1.0  0.48296631456147787  0.35747282297400407  0.6703271112841127  1.0000
  C   C4        1.0  0.41029557529023175  0.3573618966489458  0.6704136956052174  1.0000
  C   C5        1.0  0.3731100004808494  0.4219866130722574  0.5668866207668677  1.0000
  C   C6        1.0  0.41030010399672323  0.48661151641549094  0.46335974042248074  1.0000
  C   C7        1.0  0.4829708013164267  0.4865003545209001  0.46344644732910223  1.0000
  C   C8        1.0  0.2959049100691632  0.4219865344447167  0.566886525369958  1.0000
  C   C9        1.0  0.25873255182842053  0.3086991760586235  0.6087967151783493  1.0000
  C   C10       1.0  0.1860618560229134  0.30880612304593935  0.6087053488134706  1.0000
  C   C11       1.0  0.1495726231617688  0.4219864052360227  0.5668865863261798  1.0000
  C   C12       1.0  0.0747545859937707  0.4219862913799808  0.5668868350412917  1.0000
  N   N2        1.0  0.014606269120514898  0.4219862504659164  0.5668870434886035  1.0000
  C   C13       1.0  0.1860309011503291  0.5351667632819233  0.5250677709199512  1.0000
  C   C14       1.0  0.25870158993553716  0.5352738904726497  0.5249762418909283  1.0000
  H   H1        1.0  0.5106793782018382  0.30752463157085974  0.7510901939164132  1.0000
  H   H2        1.0  0.3832001623368748  0.3082113868690186  0.7522921073586908  1.0000
  H   H3        1.0  0.3832089861639084  0.5357620532713023  0.38148127780825214  1.0000
  H   H4        1.0  0.510687509119824  0.5364484455380285  0.3826836405441172  1.0000
  H   H5        1.0  0.28583823662483143  0.2195236113431258  0.6399952502109862  1.0000
  H   H6        1.0  0.1583591122460636  0.22052937757102753  0.6409366344962197  1.0000
  H   H7        1.0  0.1583038214819789  0.6234434842119241  0.4928364997965706  1.0000
  H   H8        1.0  0.2857823839476779  0.6244495343898426  0.4937776620580818  1.0000
  C   C15       1.0  0.8345762792416607  0.040586590823345814  0.5670311745548886  1.0000
  C   C16       1.0  0.8332772939898815  0.02872487475388974  0.7038512072856473  1.0000
  C   C17       1.0  0.832558242208368  0.9055762438545926  0.7729581556707685  1.0000
  C   C18       1.0  0.8331433416397276  0.7934696828441645  0.703487787610124  1.0000
  C   C19       1.0  0.8344453056311839  0.8033759563911892  0.5667541597253252  1.0000
  C   C20       1.0  0.8351560774108374  0.9273944894431988  0.4993249139303304  1.0000
  C   C21       1.0  0.8311780155300679  0.8940096814856893  0.9176081085371688  1.0000
  C   C22       1.0  0.7884314299888844  0.8011008395539171  0.9856341521988916  1.0000
  C   C23       1.0  0.7871096116359971  0.7902981252289636  0.12174961328583833  1.0000
  C   C24       1.0  0.8289663436769344  0.8712445799344029  0.19229969572988692  1.0000
  C   C25       1.0  0.8710478956903157  0.9651067863055508  0.12491626747876483  1.0000
  C   C26       1.0  0.8723858475159861  0.9760852977814454  0.988800517656159  1.0000
  C   C27       1.0  0.826084590644559  0.861990689645627  0.33839590144986087  1.0000
  O   O1        1.0  0.774131779780749  0.9451491819783099  0.37863930340771423  1.0000
  H   H9        1.0  0.8365766316493828  0.27026897177778997  0.3087769512997267  1.0000
  H   H10       1.0  0.8318582656484982  0.11547463132184577  0.7568633896750498  1.0000
  H   H11       1.0  0.8335326452113313  0.698323538315871  0.7563248951313324  1.0000
  H   H12       1.0  0.8361583545215892  0.9357517032173586  0.3938581753488195  1.0000
  H   H13       1.0  0.834899306607747  0.4797107886374297  0.5141616109360196  1.0000
  H   H14       1.0  0.7552001166061008  0.7381155970127853  0.9335219206266074  1.0000
  H   H15       1.0  0.7532932016276296  0.7189458938889458  0.17212860628300664  1.0000
  H   H16       1.0  0.9029988778974327  0.029644664216167183  0.17777475576489987  1.0000
  H   H17       1.0  0.9062254339407793  0.047882600024119926  0.9392282227718642  1.0000
  H   H18       1.0  0.8772030172792078  0.8898018328398967  0.37856863035439725  1.0000
  H   H19       1.0  0.8147845400907666  0.7599524178007261  0.3762110566959621  1.0000
  H   H20       1.0  0.774375960787458  0.9354285571209368  0.4752725549906721  1.0000
  C   C28       1.0  0.8345630415440448  0.4221371495257076  0.18549638622883324  1.0000
  C   C29       1.0  0.9050734448173132  0.45769891056942  0.18151402779605852  1.0000
  C   C30       1.0  0.9407133318990217  0.4755152468410093  0.06236282947492855  1.0000
  C   C31       1.0  0.9049269853654783  0.4573587327300992  0.9462569963761598  1.0000
  C   C32       1.0  0.834458533931734  0.42182544764762  0.9482888883057115  1.0000
  C   C33       1.0  0.7996899815188191  0.4044140123338493  0.06841432461001662  1.0000
  C   C34       1.0  0.015262884026438162  0.513111055605032  0.059242643183585963  1.0000
  C   C35       1.0  0.06197552976285903  0.45573548259300667  0.9756654324426801  1.0000
  C   C36       1.0  0.13209296724438002  0.49125168939045927  0.9728784055181117  1.0000
  C   C37       1.0  0.15713974435704658  0.5835320827179307  0.054353872200184394  1.0000
  C   C38       1.0  0.11035780604826106  0.6427540199864921  0.13636201571255624  1.0000
  C   C39       1.0  0.04020894089550042  0.6073444903416045  0.13924584514061378  1.0000
  N   N3        1.0  0.229314335512671  0.6197419596000611  0.04780531020451484  1.0000
  C   C40       1.0  0.2692862913006253  0.6564179432100514  0.15652208159697545  1.0000
  O   O2        1.0  0.24577190066129084  0.6422542613418365  0.2708874055295629  1.0000
  H   H21       1.0  0.7015888393073038  0.35425213172975445  0.4003660391406376  1.0000
  H   H22       1.0  0.9326466583645682  0.4698953058423492  0.27143599801279006  1.0000
  H   H23       1.0  0.9318908982658818  0.4727516497564159  0.8540185039128554  1.0000
  H   H24       1.0  0.7453367169386937  0.37700276571184155  0.07069667049889894  1.0000
  H   H25       1.0  0.8073565196731503  0.40812209154271684  0.6215972838500523  1.0000
  H   H26       1.0  0.04446521492054889  0.38221979196310896  0.913519291007721  1.0000
  H   H27       1.0  0.16721880710613513  0.44571007639972304  0.9079400267390452  1.0000
  H   H28       1.0  0.1274733411612996  0.7184344227100876  0.19610076236670793  1.0000
  H   H29       1.0  0.005164654144924841  0.6555525712767052  0.20229068141627327  1.0000
  H   H30       1.0  0.2560469477785863  0.6108019190824314  0.9606254786602242  1.0000
  H   H31       1.0  0.32146637911865183  0.6934606882997731  0.14068474802074094  1.0000
  Zn  Zn1       1.0  0.7583539047826775  0.4219828287014502  0.5668945510189269  1.0000
  Zn  Zn2       1.0  0.9106610248458462  0.4219791421275765  0.5668901637948411  1.0000
  C   C41       1.0  0.8344776320369679  0.4167102681381487  0.8041066811057236  1.0000
  C   C42       1.0  0.8345389604817266  0.42725334135038073  0.32967816054055166  1.0000
  C   C43       1.0  0.8344671934329982  0.659194683070399  0.5616309602120224  1.0000
  C   C44       1.0  0.8345493473723682  0.18476736596256726  0.5721539512460787  1.0000
  O   O3        1.0  0.892330637938886  0.4289633168294069  0.3780652182455686  1.0000
  O   O4        1.0  0.8922835347803428  0.41499651498604706  0.7557159200821435  1.0000
  O   O5        1.0  0.8922743261222255  0.6108057461448215  0.559915059436495  1.0000
  O   O6        1.0  0.8923397946366458  0.23315409500265605  0.5738659815076876  1.0000
  O   O7        1.0  0.7766750830169338  0.6108078758290454  0.5599187333007458  1.0000
  O   O8        1.0  0.7766842914134346  0.4150002051285082  0.7557195241292343  1.0000
  O   O9        1.0  0.7767313948398944  0.42896696235033804  0.3780672607964133  1.0000
  O   O10       1.0  0.7767405515230671  0.2331577311942381  0.5738681214367276  1.0000
