data_image0
_chemical_formula_structural       NC10NC3NCH9C12ClH9C12IH9Zn2C4O8
_chemical_formula_sum              "N3 C42 H27 Cl1 I1 Zn2 O8"
_cell_length_a       19.437513618241372
_cell_length_b       10.299768534541528
_cell_length_c       10.29977335064465
_cell_angle_alpha    85.54596918474078
_cell_angle_beta     90.35638175706923
_cell_angle_gamma    89.54057453160664

_space_group_name_H-M_alt    "P 1"
_space_group_IT_number       1

loop_
  _space_group_symop_operation_xyz
  'x, y, z'

loop_
  _atom_site_type_symbol
  _atom_site_label
  _atom_site_symmetry_multiplicity
  _atom_site_fract_x
  _atom_site_fract_y
  _atom_site_fract_z
  _atom_site_occupancy
  N   N1        1.0  0.6479622907878978  0.4108692640630771  0.5757830671126636  1.0000
  C   C1        1.0  0.5890314908854876  0.4278799874725041  0.5728089536505656  1.0000
  C   C2        1.0  0.5155941901947416  0.4491333204801031  0.569117314632249  1.0000
  C   C3        1.0  0.4738129784353509  0.3479494670643022  0.5574466621266199  1.0000
  C   C4        1.0  0.39792382502323975  0.3580165390378669  0.5502264247817303  1.0000
  C   C5        1.0  0.3583717660015376  0.4388404959784311  0.6159781516073073  1.0000
  C   C6        1.0  0.2821869865885923  0.43023536119750716  0.6075330643640293  1.0000
  C   C7        1.0  0.24903096720185341  0.30889155847740324  0.6121628570617696  1.0000
  C   C8        1.0  0.1772942695359213  0.3025224415169654  0.604994067739508  1.0000
  C   C9        1.0  0.1377429309856782  0.41702432463450334  0.5935576653481991  1.0000
  C   C10       1.0  0.0638916802530306  0.41031709375525316  0.5862207463513249  1.0000
  N   N2        1.0  0.0045203728539993  0.4049250700203  0.5803223219506626  1.0000
  C   C11       1.0  0.1701823983819183  0.5380572990152337  0.5896731157351887  1.0000
  C   C12       1.0  0.2419035526309396  0.5446803799786732  0.5969039550942836  1.0000
  C   C13       1.0  0.3870833927183581  0.5310914518052781  0.7059086487999806  1.0000
  N   N3        1.0  0.44407681501538376  0.5943099545111326  0.6855114897479446  1.0000
  C   C14       1.0  0.4879006504509112  0.5850896517204822  0.5724026362079973  1.0000
  H   H1        1.0  0.49617867163883905  0.2528996234762235  0.5453147760369332  1.0000
  H   H2        1.0  0.3731895671186424  0.28852679706211326  0.49190036810936255  1.0000
  H   H3        1.0  0.2784670160153401  0.2189776836272581  0.6231736506378573  1.0000
  H   H4        1.0  0.1526846979224818  0.2082968164603749  0.6088706860509321  1.0000
  H   H5        1.0  0.1400612648992547  0.6273154463233448  0.5809744017135692  1.0000
  H   H6        1.0  0.2660316728283941  0.639318801300186  0.5930119232294697  1.0000
  H   H7        1.0  0.3570951695090315  0.5514461614496478  0.790277774372552  1.0000
  H   H8        1.0  0.5306663744369179  0.6553984927996033  0.5781739307172917  1.0000
  H   H9        1.0  0.4582262227800392  0.6132305064639509  0.48176001135266455  1.0000
  C   C15       1.0  0.8261797392240378  0.026532773523422426  0.5780498069800619  1.0000
  C   C16       1.0  0.8306993701490395  0.03606228101703546  0.44163864134031905  1.0000
  C   C17       1.0  0.8330556459172664  0.9237504862378685  0.3725262497372879  1.0000
  C   C18       1.0  0.8308307739164114  0.8007723684632615  0.44165580415210615  1.0000
  C   C19       1.0  0.8263095244717528  0.7892513589325826  0.5780668871371191  1.0000
  C   C20       1.0  0.8240098330439649  0.9026884644199543  0.6454999920144475  1.0000
  C   C21       1.0  0.8378379534370127  0.934885563305674  0.2282146199268702  1.0000
  C   C22       1.0  0.7986911181535611  0.029099631984268903  0.15325256540473342  1.0000
  C   C23       1.0  0.8032536632751576  0.0393834646862683  0.01743112343904496  1.0000
  C   C24       1.0  0.8468964587799166  0.9559769589853959  0.954879033241288  1.0000
  C   C25       1.0  0.8860318900011415  0.8620757584691818  0.02832972451955129  1.0000
  C   C26       1.0  0.8815915249259486  0.8513976334374448  0.164167365180254  1.0000
  Cl  Cl1       1.0  0.8525441903299202  0.9691268781548869  0.7844662132546749  1.0000
  H   H10       1.0  0.824422235947428  0.35035590181756593  0.6300254735738928  1.0000
  H   H11       1.0  0.8333473842600901  0.131045634455909  0.38893984901487455  1.0000
  H   H12       1.0  0.8316832974314317  0.7139395606574401  0.38872059877869214  1.0000
  H   H13       1.0  0.82052244905869  0.8945687109584699  0.7507349180436063  1.0000
  H   H14       1.0  0.8246141106733224  0.45740711103691567  0.6300511451518311  1.0000
  H   H15       1.0  0.7639089119982073  0.09364200100130993  0.19955314909434207  1.0000
  H   H16       1.0  0.7727020146759819  0.11202281579216589  0.9609305069699237  1.0000
  H   H17       1.0  0.9200466705970974  0.7975000530247279  0.9803298956319013  1.0000
  H   H18       1.0  0.9130160859545964  0.7790374676628922  0.21918479183875106  1.0000
  C   C27       1.0  0.8262118460716147  0.40799871099447316  0.19668875886498127  1.0000
  C   C28       1.0  0.8885903617093703  0.47596167028202085  0.19114707635911454  1.0000
  C   C29       1.0  0.9202311069315436  0.5102906560006013  0.07120944502406612  1.0000
  C   C30       1.0  0.8886565050549287  0.4757464130218987  0.9558783007076923  1.0000
  C   C31       1.0  0.8262774135693222  0.4077854682624824  0.9594280177213612  1.0000
  C   C32       1.0  0.7954046475364132  0.3742911090913186  0.08030588212760104  1.0000
  C   C33       1.0  0.9862221020107459  0.5821874807284373  0.06640082158204663  1.0000
  C   C34       1.0  0.9970623723143239  0.6850249323345066  0.14635153913344334  1.0000
  C   C35       1.0  0.05920908453349716  0.7525804901869606  0.14162428482613754  1.0000
  C   C36       1.0  0.11120633418276138  0.7183543266403738  0.05729622916258825  1.0000
  C   C37       1.0  0.10102987045780742  0.6163919980388142  0.9774967210102505  1.0000
  C   C38       1.0  0.038952914822675266  0.5486093073849312  0.9818189171490888  1.0000
  I   I1        1.0  0.20490116672219605  0.8204301918601546  0.05047290480949185  1.0000
  H   H19       1.0  0.8024228131979948  0.3821670749655566  0.5262486274447731  1.0000
  H   H20       1.0  0.9131968890864846  0.5007982079760454  0.2804377173931356  1.0000
  H   H21       1.0  0.9123554341004458  0.5035387799412985  0.8630677791395907  1.0000
  H   H22       1.0  0.7472820765600326  0.3218619225113606  0.08381267354756905  1.0000
  H   H23       1.0  0.8025188334268452  0.38185333547948064  0.6333300038786782  1.0000
  H   H24       1.0  0.9571728932810737  0.7142675921689581  0.21123499203734775  1.0000
  H   H25       1.0  0.06683682538622038  0.831729557939364  0.20330886577132756  1.0000
  H   H26       1.0  0.14125762815913134  0.5893799069321919  0.9123264793516146  1.0000
  H   H27       1.0  0.032520682681295376  0.46889942730521783  0.9203104550507986  1.0000
  Zn  Zn1       1.0  0.7508572567541004  0.40915040679090664  0.5771005068953139  1.0000
  Zn  Zn2       1.0  0.9016254121993152  0.4066332548894247  0.5790155518204145  1.0000
  C   C39       1.0  0.8262626012805  0.40265218277137893  0.815253799650248  1.0000
  C   C40       1.0  0.8262217143462532  0.4131330899858754  0.3408624074811877  1.0000
  C   C41       1.0  0.8262810003829132  0.6450828521688377  0.5728884693359486  1.0000
  C   C42       1.0  0.8262032635376729  0.17070086114426375  0.5832278063457386  1.0000
  O   O1        1.0  0.8834407545219569  0.41389532277721  0.3899751504408522  1.0000
  O   O2        1.0  0.8834731023512304  0.39997851032360754  0.7675941576088967  1.0000
  O   O3        1.0  0.8834871886797976  0.5957443543159604  0.5718824288384239  1.0000
  O   O4        1.0  0.8834266167396416  0.21812948896112427  0.5856867811832129  1.0000
  O   O5        1.0  0.7690560007640019  0.5976541735796035  0.5704292768721742  1.0000
  O   O6        1.0  0.7690419146918297  0.4018898898917993  0.7661409364320535  1.0000
  O   O7        1.0  0.7690095667663973  0.41580665752575463  0.3885203678600375  1.0000
  O   O8        1.0  0.7689954289880576  0.22004081439379752  0.584232095970169  1.0000
