data_image0
_chemical_formula_structural       NC10NC3NCH9C12OCH12C12ClH9Zn2C4O8
_chemical_formula_sum              "N3 C43 H30 O9 Cl1 Zn2"
_cell_length_a       19.437513618241372
_cell_length_b       10.29979075500242
_cell_length_c       10.299771906710086
_cell_angle_alpha    85.53978707277841
_cell_angle_beta     90.35636607497939
_cell_angle_gamma    89.50469088654314

_space_group_name_H-M_alt    "P 1"
_space_group_IT_number       1

loop_
  _space_group_symop_operation_xyz
  'x, y, z'

loop_
  _atom_site_type_symbol
  _atom_site_label
  _atom_site_symmetry_multiplicity
  _atom_site_fract_x
  _atom_site_fract_y
  _atom_site_fract_z
  _atom_site_occupancy
  N   N1        1.0  0.6474936815582498  0.41088675583012124  0.5756248817512892  1.0000
  C   C1        1.0  0.5885572296604967  0.4278976812440374  0.5726488637207774  1.0000
  C   C2        1.0  0.5151128673184117  0.44915126662246707  0.5689548451240882  1.0000
  C   C3        1.0  0.4733652791493259  0.3479662300251769  0.5572955159497839  1.0000
  C   C4        1.0  0.3974727816199278  0.35803342496627044  0.5500741504449111  1.0000
  C   C5        1.0  0.3578938566275705  0.4388582916695485  0.6158168429495636  1.0000
  C   C6        1.0  0.281711937775879  0.4302530609331625  0.6073727172984984  1.0000
  C   C7        1.0  0.2485962385246378  0.30890782762796354  0.6120160928841691  1.0000
  C   C8        1.0  0.17686165824229214  0.30253864022083765  0.6048480151154372  1.0000
  C   C9        1.0  0.1372722739941946  0.4170418776871254  0.5933987943783752  1.0000
  C   C10       1.0  0.0634232530193804  0.41033457248836935  0.5860626247486684  1.0000
  N   N2        1.0  0.0040537381495695  0.4049424890071862  0.5801648027732684  1.0000
  C   C11       1.0  0.16967152443287511  0.5380762785291033  0.5895006968080061  1.0000
  C   C12       1.0  0.2413904769009285  0.5446994328884125  0.5967307961989785  1.0000
  C   C13       1.0  0.3865748169135109  0.5311102765612787  0.7057370313234619  1.0000
  N   N3        1.0  0.4435472355117448  0.5943295358472673  0.6853327924006245  1.0000
  C   C14       1.0  0.4873741507829202  0.5851091954160617  0.5722249497124272  1.0000
  H   H1        1.0  0.4957625577657506  0.25291527571493244  0.5451742665248769  1.0000
  H   H2        1.0  0.37276162243556954  0.2885429019310719  0.49175586084423584  1.0000
  H   H3        1.0  0.278062162856419  0.21899288798885808  0.6230369525886834  1.0000
  H   H4        1.0  0.1522833958925623  0.20831190411311962  0.6087351808340811  1.0000
  H   H5        1.0  0.1395207329923772  0.6273354814630365  0.5807919904864862  1.0000
  H   H6        1.0  0.2654871506706258  0.6393389701275114  0.5928281707197423  1.0000
  H   H7        1.0  0.3565798181471959  0.5514651728496243  0.7901038943883174  1.0000
  H   H8        1.0  0.5301165113370122  0.6554188601078026  0.5779883756283419  1.0000
  H   H9        1.0  0.4576903851843371  0.6132504380252597  0.48157915807799934  1.0000
  C   C15       1.0  0.8258388391369633  0.026545741912707976  0.5779346408557837  1.0000
  C   C16       1.0  0.8059344974453189  0.015672672700580703  0.7091195801275476  1.0000
  C   C17       1.0  0.7957942160029237  0.8930278405975751  0.7755581399657923  1.0000
  C   C18       1.0  0.8058108868935314  0.780392459657264  0.7090522209962122  1.0000
  C   C19       1.0  0.8257151979638109  0.7892733148867995  0.5778663488176321  1.0000
  C   C20       1.0  0.8356193227263805  0.9127927160228888  0.513042802550209  1.0000
  C   C21       1.0  0.7747407416986877  0.8825787824865834  0.9143457495639387  1.0000
  C   C22       1.0  0.7245445654263103  0.7925360831233246  0.9587722797008535  1.0000
  C   C23       1.0  0.7047915386373126  0.7829743879420428  0.0892601219050313  1.0000
  C   C24       1.0  0.7347897477829357  0.8627937699750566  0.17699045180552075  1.0000
  C   C25       1.0  0.7851692459771321  0.9534419451468856  0.13443796592876678  1.0000
  C   C26       1.0  0.8047089392654219  0.9626461648679318  0.003420706508860394  1.0000
  O   O1        1.0  0.8169784762494454  0.03558678498718337  0.21871160542027035  1.0000
  C   C27       1.0  0.8022399390231938  0.03676951603442147  0.3538603604081455  1.0000
  H   H10       1.0  0.8334533572444506  0.358139817007467  0.5279692231726112  1.0000
  H   H11       1.0  0.7973590462190586  0.10282683945025961  0.7594392697839267  1.0000
  H   H12       1.0  0.7989565949501499  0.6855911858210765  0.7603329409052317  1.0000
  H   H13       1.0  0.8509752108821415  0.9204124242345588  0.41183917118382674  1.0000
  H   H14       1.0  0.8332654140480628  0.465206437576097  0.5278624772151777  1.0000
  H   H15       1.0  0.6999306584983486  0.730737306271184  0.8922491985502454  1.0000
  H   H16       1.0  0.6659377467539304  0.7136419666988121  0.12244428609298807  1.0000
  H   H17       1.0  0.7184937804315147  0.8532856955410492  0.2774497817196966  1.0000
  H   H18       1.0  0.8441179821136287  0.03154266459385102  0.971756473227477  1.0000
  H   H19       1.0  0.8141290273474688  0.9400270469688551  0.40463443674127664  1.0000
  H   H20       1.0  0.8347098401723364  0.11085452504362636  0.3964881996266373  1.0000
  H   H21       1.0  0.7473180219051995  0.06259145794480325  0.36759657788968014  1.0000
  C   C28       1.0  0.8257442445191985  0.40801640642104653  0.19653082382675668  1.0000
  C   C29       1.0  0.8881373452425437  0.475859099073324  0.1909915412935519  1.0000
  C   C30       1.0  0.9197860046606472  0.5101268238087406  0.07105484175753984  1.0000
  C   C31       1.0  0.8882037480590795  0.4756428301131417  0.9557226293111643  1.0000
  C   C32       1.0  0.8258097623265536  0.40780271210220653  0.9592702443914338  1.0000
  C   C33       1.0  0.79492973088504  0.37436856928877815  0.08014678429754785  1.0000
  C   C34       1.0  0.9857931597743077  0.581897332127844  0.0662484961310672  1.0000
  C   C35       1.0  0.9966501846729994  0.6847213429771946  0.1461798331849884  1.0000
  C   C36       1.0  0.05880868278839535  0.7521723285103217  0.14146902203393186  1.0000
  C   C37       1.0  0.1108154321091448  0.7178345362454788  0.05714606504780084  1.0000
  C   C38       1.0  0.10061508375121009  0.615859043587853  0.9773518092782694  1.0000
  C   C39       1.0  0.038518286115007516  0.5482067078220767  0.9816877923194038  1.0000
  Cl  Cl1       1.0  0.18876139295925842  0.8025852166198257  0.05147139766400932  1.0000
  H   H22       1.0  0.8019511880291248  0.3822225514941213  0.5260902698978638  1.0000
  H   H23       1.0  0.9127488378417246  0.5006482774908498  0.2802835133920165  1.0000
  H   H24       1.0  0.9119084865979513  0.5033887002499267  0.8629124276427298  1.0000
  H   H25       1.0  0.7467959074065281  0.3220321816919425  0.08365187787428208  1.0000
  H   H26       1.0  0.8020479029016241  0.38190636784121423  0.6331723440611303  1.0000
  H   H27       1.0  0.9567604843636922  0.7140394557308511  0.21104336415344704  1.0000
  H   H28       1.0  0.0664032751030521  0.831319583323082  0.20319240973771535  1.0000
  H   H29       1.0  0.14081840907322407  0.5886828468765919  0.9121485088132868  1.0000
  H   H30       1.0  0.03206572964730925  0.4685001364641286  0.920198528032099  1.0000
  Zn  Zn1       1.0  0.7503892184888118  0.4091678775093892  0.57694251417243  1.0000
  Zn  Zn2       1.0  0.9011582100752967  0.40665069479262206  0.5788578412010903  1.0000
  C   C40       1.0  0.8257966884618437  0.4026694278746523  0.8150965788636708  1.0000
  C   C41       1.0  0.8257523862402436  0.4131507555231444  0.3407039247452568  1.0000
  C   C42       1.0  0.8257345657719611  0.64510310141748  0.5727040678878403  1.0000
  C   C43       1.0  0.8258144577421298  0.17071552251777367  0.5830965044459  1.0000
  O   O2        1.0  0.8829711661626645  0.41391296652245524  0.38981659158355764  1.0000
  O   O3        1.0  0.883008084723296  0.3999957538195249  0.7674372271633341  1.0000
  O   O4        1.0  0.8829571486819033  0.5957640236965636  0.5717035496637808  1.0000
  O   O5        1.0  0.8830220507469415  0.2181447068218656  0.5855501710538413  1.0000
  O   O6        1.0  0.7685253263671089  0.597673866340553  0.5702501836592409  1.0000
  O   O7        1.0  0.7685762621464396  0.4019071567864647  0.7659837917735428  1.0000
  O   O8        1.0  0.7685393435047639  0.4158243246701989  0.3883615947945187  1.0000
  O   O9        1.0  0.7685902280960983  0.22005605565356712  0.5840952716336345  1.0000
