data_image0
_chemical_formula_structural       NC8NC6H8C16H10C15H12Zn2C4O8
_chemical_formula_sum              "N2 C49 H30 Zn2 O8"
_cell_length_a       17.457602349358154
_cell_length_b       10.29914801576943
_cell_length_c       10.299157797200024
_cell_angle_alpha    85.52082761248347
_cell_angle_beta     92.8989280324144
_cell_angle_gamma    91.70309287404056

_space_group_name_H-M_alt    "P 1"
_space_group_IT_number       1

loop_
  _space_group_symop_operation_xyz
  'x, y, z'

loop_
  _atom_site_type_symbol
  _atom_site_label
  _atom_site_symmetry_multiplicity
  _atom_site_fract_x
  _atom_site_fract_y
  _atom_site_fract_z
  _atom_site_occupancy
  N   N1        1.0  0.722312601438386  0.45332825835199486  0.6258025552781572  1.0000
  C   C1        1.0  0.6612256186528408  0.40740198915364156  0.6152046975083996  1.0000
  C   C2        1.0  0.5852308320779819  0.3502754225574747  0.6020305028438813  1.0000
  C   C3        1.0  0.5267254208793507  0.3904204430875291  0.6769178584299851  1.0000
  C   C4        1.0  0.4521691635753589  0.3354121539988475  0.6643572878290098  1.0000
  C   C5        1.0  0.3900742084508076  0.37779931855548776  0.7436658897690769  1.0000
  C   C6        1.0  0.3155171824335722  0.39628438860794835  0.6878903448887488  1.0000
  C   C7        1.0  0.25701176724291613  0.43624543873338695  0.762885737867127  1.0000
  C   C8        1.0  0.1810161559086322  0.4553370131334309  0.7048943060117856  1.0000
  N   N2        1.0  0.1199286000251912  0.4706802586678356  0.6582693484611528  1.0000
  C   C9        1.0  0.2725713687735651  0.45796444345989507  0.8941651352792499  1.0000
  C   C10       1.0  0.3463438368618501  0.4398682884528191  0.9503281509976795  1.0000
  C   C11       1.0  0.4048377796623619  0.4000871841726994  0.8757904429015548  1.0000
  C   C12       1.0  0.4374065321319819  0.23958175480149113  0.5754766023671221  1.0000
  C   C13       1.0  0.4959003583692116  0.199715329839822  0.5009891687961314  1.0000
  C   C14       1.0  0.5696719943669405  0.2548358553163379  0.5140996878119362  1.0000
  H   H1        1.0  0.5390957650091223  0.46560317449858313  0.7435232957421141  1.0000
  H   H2        1.0  0.3031462429637573  0.38134044291736435  0.5858637253397634  1.0000
  H   H3        1.0  0.2277285400356274  0.488833931491248  0.9529931337307744  1.0000
  H   H4        1.0  0.3582012012182178  0.4563701287658868  0.05198084478906717  1.0000
  H   H5        1.0  0.4613320015804537  0.38508161455654144  0.9219067328060746  1.0000
  H   H6        1.0  0.3809129033543562  0.19424521393885774  0.5648423843772412  1.0000
  H   H7        1.0  0.48404370436010047  0.1256494797521439  0.43318485825031194  1.0000
  H   H8        1.0  0.6145148617342718  0.22309645664823452  0.4557832101953112  1.0000
  C   C15       1.0  0.9210696725501958  0.08060059856748181  0.6421973530005833  1.0000
  C   C16       1.0  0.9035207603425842  0.08947203176972929  0.5072825616739796  1.0000
  C   C17       1.0  0.8946794311042406  0.9768427823661212  0.4387178856119549  1.0000
  C   C18       1.0  0.9036230832566154  0.8542247986290944  0.5068863025260204  1.0000
  C   C19       1.0  0.921178854013079  0.8433981981638518  0.6418864117754568  1.0000
  C   C20       1.0  0.9297954256535306  0.9570978559014899  0.7087108081658027  1.0000
  C   C21       1.0  0.8761149877730742  0.9872733027188042  0.29599432261746395  1.0000
  C   C22       1.0  0.9123942181190553  0.907895985350182  0.21373393159870857  1.0000
  C   C23       1.0  0.8948952004658445  0.9178368383629187  0.07940582091744197  1.0000
  C   C24       1.0  0.8409371672883091  0.007047991938333498  0.02551905939413568  1.0000
  C   C25       1.0  0.8045177408032856  0.08639987653820036  0.10648398621595767  1.0000
  C   C26       1.0  0.8219620612932806  0.07669789620716738  0.24082857848945638  1.0000
  C   C27       1.0  0.8229502225023848  0.017159644072164637  0.8872181301225592  1.0000
  C   C28       1.0  0.8078863502648993  0.025628056774197328  0.7713930972040184  1.0000
  C   C29       1.0  0.7902467337227975  0.03554445283311192  0.6357631667239132  1.0000
  C   C30       1.0  0.7751853894733223  0.04401159334558025  0.5199568490808106  1.0000
  H   H9        1.0  0.9277802823151405  0.40466113934229786  0.6941022341815632  1.0000
  H   H10       1.0  0.8977208353902392  0.1842892031671135  0.4548958312431992  1.0000
  H   H11       1.0  0.8958429557177991  0.7670068281419827  0.45483249208626253  1.0000
  H   H12       1.0  0.9433291082382587  0.9495391028680469  0.8127747222700845  1.0000
  H   H13       1.0  0.95383936931758  0.6156362099494839  0.8968314970733025  1.0000
  H   H14       1.0  0.9550224883332736  0.8393412803179241  0.25306649482434596  1.0000
  H   H15       1.0  0.9235843064028252  0.8561844000377931  0.01756974938177791  1.0000
  H   H16       1.0  0.7624993922376588  0.15554594510023567  0.06583125178376115  1.0000
  H   H17       1.0  0.7923783901274336  0.13792171976489476  0.30178877079151767  1.0000
  H   H18       1.0  0.7619603165650867  0.05144646055297386  0.4182691420387541  1.0000
  C   C31       1.0  0.9210353282076276  0.4621017832455534  0.26064253519415725  1.0000
  C   C32       1.0  0.8411201680736535  0.44063339255549505  0.2542998728548307  1.0000
  C   C33       1.0  0.8007650839659678  0.42964645989369044  0.13395509213166146  1.0000
  C   C34       1.0  0.8413480964377771  0.44043458987263584  0.019051276946520312  1.0000
  C   C35       1.0  0.9212131789158631  0.4618970001329239  0.023441168627340803  1.0000
  C   C36       1.0  0.9605904331355736  0.47259950766143044  0.14472905151080573  1.0000
  C   C37       1.0  0.7162768639154469  0.4069549197404898  0.12829577389163926  1.0000
  C   C38       1.0  0.6817422660013555  0.31846143995909326  0.04440533424334148  1.0000
  C   C39       1.0  0.6022353244977713  0.2972008072958501  0.039111899854681775  1.0000
  C   C40       1.0  0.5558467783597646  0.3633626868600661  0.11812559546200108  1.0000
  C   C41       1.0  0.5899709002181235  0.452683872153091  0.20100544831575395  1.0000
  C   C42       1.0  0.6694770687559993  0.4739486697959048  0.2064467685554907  1.0000
  C   C43       1.0  0.4701956565163807  0.3428082884043  0.11007596366368166  1.0000
  C   C44       1.0  0.4357042811333015  0.4350784578371467  0.009809386771618467  1.0000
  C   C45       1.0  0.4073575180722639  0.5109528309146434  0.9273637333317337  1.0000
  H   H19       1.0  0.07193192898071343  0.5018301311584645  0.4799739469429818  1.0000
  H   H20       1.0  0.8102591445821009  0.4306610278803522  0.3433213087891318  1.0000
  H   H21       1.0  0.8103771498760799  0.4338445416849379  0.925892278657209  1.0000
  H   H22       1.0  0.02219278781640499  0.48915033266615193  0.14883084317623818  1.0000
  H   H23       1.0  0.9519351109718848  0.4701108593641268  0.697657577871384  1.0000
  H   H24       1.0  0.716311843634519  0.2645997704923977  0.9838791926879518  1.0000
  H   H25       1.0  0.5768244115362269  0.22893049031847257  0.9735060392494415  1.0000
  H   H26       1.0  0.5549532321123933  0.5062167821899923  0.2611501320461338  1.0000
  H   H27       1.0  0.694262509600468  0.5442990973109103  0.2703594324429366  1.0000
  H   H28       1.0  0.4548690634715937  0.2418907538909143  0.08542127719980952  1.0000
  H   H29       1.0  0.4457754882851919  0.35718883401029133  0.2052968081228599  1.0000
  H   H30       1.0  0.3824929891357556  0.5775689514619489  0.8549857155663365  1.0000
  Zn  Zn1       1.0  0.8370559909346603  0.4583321857853069  0.6351792709559754  1.0000
  Zn  Zn2       1.0  0.005185197234301109  0.4656656795863807  0.6489032705000441  1.0000
  C   C46       1.0  0.9211771301165789  0.4567615038510995  0.8792578904749295  1.0000
  C   C47       1.0  0.9210658942823928  0.4672380803373617  0.40482492765528266  1.0000
  C   C48       1.0  0.9211530667902292  0.6992144426398719  0.6367692577531483  1.0000
  C   C49       1.0  0.9210899000307756  0.22478357858229314  0.6473136255743184  1.0000
  O   O1        1.0  0.9848803093032121  0.47173922498104837  0.4584220443013567  1.0000
  O   O2        1.0  0.9849688922047279  0.45782533160517325  0.8360765984546543  1.0000
  O   O3        1.0  0.9849486009687374  0.6536091080340272  0.6402652411241021  1.0000
  O   O4        1.0  0.9849005431467148  0.27595545536698163  0.654233299562615  1.0000
  O   O5        1.0  0.8573405876479989  0.64804240750356  0.6298492372032443  1.0000
  O   O6        1.0  0.8573608790877081  0.4522601915398563  0.8256605246463831  1.0000
  O   O7        1.0  0.8572722958666072  0.46617404007700824  0.448004408990474  1.0000
  O   O8        1.0  0.8572925297283497  0.27039026114700837  0.6438157616308666  1.0000
