data_image0
_chemical_formula_structural       NC10NC5H10C12ClH9C12SCH12Zn2C4O8
_chemical_formula_sum              "N2 C44 H31 Cl1 S1 Zn2 O8"
_cell_length_a       19.4436361288709
_cell_length_b       10.299768534541528
_cell_length_c       10.299780138516091
_cell_angle_alpha    85.57853540926422
_cell_angle_beta     89.6968932683751
_cell_angle_gamma    89.43641405984484

_space_group_name_H-M_alt    "P 1"
_space_group_IT_number       1

loop_
  _space_group_symop_operation_xyz
  'x, y, z'

loop_
  _atom_site_type_symbol
  _atom_site_label
  _atom_site_symmetry_multiplicity
  _atom_site_fract_x
  _atom_site_fract_y
  _atom_site_fract_z
  _atom_site_occupancy
  N   N1        1.0  0.647987064317128  0.40888068268684763  0.5622200770468679  1.0000
  C   C1        1.0  0.5891525965500823  0.4187839392150452  0.5766039251119055  1.0000
  C   C2        1.0  0.5158251422326305  0.4311346333386479  0.5945960819850016  1.0000
  C   C3        1.0  0.4736372740353275  0.3991282307581978  0.499924748305111  1.0000
  C   C4        1.0  0.39773426179200716  0.4095669057047948  0.5052531009862178  1.0000
  C   C5        1.0  0.3579892801069752  0.3848307780315168  0.6123199267634687  1.0000
  C   C6        1.0  0.2818695771982814  0.3887459566127196  0.5993612699657984  1.0000
  C   C7        1.0  0.2413147964548709  0.4464162241898624  0.6931308080392098  1.0000
  C   C8        1.0  0.1696521610095619  0.45005279799259057  0.6825875163983885  1.0000
  C   C9        1.0  0.1375494806360118  0.39562312994680826  0.5785611826361146  1.0000
  C   C10       1.0  0.0637576130283055  0.399320929510373  0.5678626183312587  1.0000
  N   N2        1.0  0.004433956497187  0.4022937663381878  0.5592616819348224  1.0000
  C   C11       1.0  0.17737924735809313  0.3372458245938075  0.4851748300001495  1.0000
  C   C12       1.0  0.2490583067538498  0.3335550010928736  0.49546635204706746  1.0000
  C   C13       1.0  0.3861133383697974  0.3443845786273223  0.74340720810337  1.0000
  C   C14       1.0  0.44478332680980687  0.3875107002319562  0.7906498056078075  1.0000
  C   C15       1.0  0.4890081149752166  0.4853593259313149  0.7162901156135182  1.0000
  H   H1        1.0  0.4957328972350343  0.3700020956403316  0.40962027864988104  1.0000
  H   H2        1.0  0.3730410336844952  0.4320513288259975  0.41209967634077516  1.0000
  H   H3        1.0  0.2651911345450923  0.48971489998042417  0.773977853284032  1.0000
  H   H4        1.0  0.1393136933527343  0.495374327035051  0.7555075206144779  1.0000
  H   H5        1.0  0.1530310538320709  0.29414283821466936  0.40466226321272636  1.0000
  H   H6        1.0  0.2787307755464419  0.2859901956626236  0.4232425450393358  1.0000
  H   H7        1.0  0.35513621520312805  0.2801754247526833  0.8076483966078085  1.0000
  H   H8        1.0  0.45992606377207124  0.3534544176673404  0.888578566565283  1.0000
  H   H9        1.0  0.4589145382118467  0.5760693272970454  0.6910435780420197  1.0000
  H   H10       1.0  0.5322964438695971  0.5109515333041248  0.7793737059644188  1.0000
  C   C16       1.0  0.8261489300115944  0.024222971743474986  0.5607392929078638  1.0000
  C   C17       1.0  0.8306887641361125  0.03366614688071978  0.42423901909514616  1.0000
  C   C18       1.0  0.8330552552271675  0.9213104918273625  0.3550800845116491  1.0000
  C   C19       1.0  0.8308201244676522  0.7983760063593016  0.4242534180993429  1.0000
  C   C20       1.0  0.8262786723380939  0.7869413320666611  0.5607536432939637  1.0000
  C   C21       1.0  0.8239690140055458  0.9004212333245003  0.6282321743057881  1.0000
  C   C22       1.0  0.8378589357624772  0.9323542348103558  0.2106741664469023  1.0000
  C   C23       1.0  0.7987361026792994  0.02659619974058125  0.1365385200360385  1.0000
  C   C24       1.0  0.8033187443070926  0.0367939602913856  0.0006270419046652265  1.0000
  C   C25       1.0  0.8469579228266798  0.9532726368962551  0.9371599810791924  1.0000
  C   C26       1.0  0.8860695947387314  0.8593426948702645  0.009784569713801483  1.0000
  C   C27       1.0  0.8816090927323273  0.848750430161826  0.1457096767241164  1.0000
  Cl  Cl1       1.0  0.8526308929187805  0.9663147018344292  0.7666358094802801  1.0000
  H   H11       1.0  0.8243837398465689  0.34807905867870215  0.6127496565550365  1.0000
  H   H12       1.0  0.8333443037181612  0.12861451583030692  0.3714868361301549  1.0000
  H   H13       1.0  0.8316807672586028  0.7115113279063449  0.3713025866154773  1.0000
  H   H14       1.0  0.8204660443991679  0.8923680825577042  0.7335358578402171  1.0000
  H   H15       1.0  0.824575551051111  0.45512993537134244  0.6127712924167954  1.0000
  H   H16       1.0  0.7639573416832376  0.09122804061994771  0.18356846654964754  1.0000
  H   H17       1.0  0.7727855107695407  0.10945622998759363  0.944771298097018  1.0000
  H   H18       1.0  0.9200814370880195  0.7946779328309693  0.961071588697922  1.0000
  H   H19       1.0  0.913015203107838  0.7763649163376717  0.20006394020737428  1.0000
  C   C28       1.0  0.826241423755352  0.40547036028068884  0.1793941404791768  1.0000
  C   C29       1.0  0.7608357244325207  0.3486680198201486  0.1834302190302739  1.0000
  C   C30       1.0  0.7276669460325481  0.32000058955738586  0.06832864346928647  1.0000
  C   C31       1.0  0.7607794543173169  0.34889449648716164  0.9481267941274409  1.0000
  C   C32       1.0  0.8261861786660308  0.4056939945499014  0.9420988687147385  1.0000
  C   C33       1.0  0.8585508737376395  0.43366464553518314  0.0582585747107236  1.0000
  C   C34       1.0  0.6584722605098374  0.25992351932591085  0.0736612934678027  1.0000
  C   C35       1.0  0.6075413469482973  0.30252527456126743  0.9831283675566174  1.0000
  C   C36       1.0  0.5424303803316994  0.24595035905576812  0.9883838403129617  1.0000
  C   C37       1.0  0.5273007587058343  0.14642108509334983  0.08407011353323801  1.0000
  C   C38       1.0  0.5776194160581772  0.10303171866605876  0.17420245422786862  1.0000
  C   C39       1.0  0.642772904019716  0.15943242020035497  0.1693090329647131  1.0000
  S   S1        1.0  0.44378262681693853  0.07369396939618467  0.09036315343250823  1.0000
  C   C40       1.0  0.4085311027341322  0.18855956209649283  0.19938700118780495  1.0000
  H   H20       1.0  0.8511740109807274  0.42706694561808844  0.5053131350869653  1.0000
  H   H21       1.0  0.7351281794384814  0.3282209599725292  0.2761925021639964  1.0000
  H   H22       1.0  0.7358343172736039  0.3253542925153401  0.8592611313238261  1.0000
  H   H23       1.0  0.9090087464038145  0.47748444676610924  0.05437653850441926  1.0000
  H   H24       1.0  0.8510939091706586  0.42739588659203376  0.6123442377957322  1.0000
  H   H25       1.0  0.6177820488507559  0.3807031023586944  0.909366709220425  1.0000
  H   H26       1.0  0.5036831503697218  0.27999934238928637  0.9183747972526444  1.0000
  H   H27       1.0  0.5663276150403421  0.02556928264676439  0.2480977148983281  1.0000
  H   H28       1.0  0.6811497364956776  0.12333931268672615  0.23922029342358297  1.0000
  H   H29       1.0  0.4376137652652232  0.18199208549856394  0.2921596161506341  1.0000
  H   H30       1.0  0.3539455919703745  0.16443975403216893  0.22061187370250068  1.0000
  H   H31       1.0  0.4112068258890644  0.2892311686440563  0.15277554436466967  1.0000
  Zn  Zn1       1.0  0.750849937855943  0.40697637178984536  0.5613738598698235  1.0000
  Zn  Zn2       1.0  0.9015710718954953  0.4041874728150474  0.5601185796275563  1.0000
  C   C41       1.0  0.8261941999626838  0.4004781308551584  0.7979312362866311  1.0000
  C   C42       1.0  0.8262284559283372  0.4106873219317131  0.32356131699497004  1.0000
  C   C43       1.0  0.8262509772034118  0.6427699100838604  0.5555760502876927  1.0000
  C   C44       1.0  0.8261716269866073  0.1683939833917043  0.565916572628421  1.0000
  O   O1        1.0  0.8834219877216393  0.41137414362158853  0.37146876600016165  1.0000
  O   O2        1.0  0.8833945213161908  0.3976736195541599  0.7490706847744777  1.0000
  O   O3        1.0  0.8834395985034571  0.5933273101423888  0.5533671638244924  1.0000
  O   O4        1.0  0.8833768591120936  0.2157204632465799  0.5671721900082265  1.0000
  O   O5        1.0  0.7690440992056194  0.5954433823114391  0.5543202499106883  1.0000
  O   O6        1.0  0.7689990222856298  0.399791251987643  0.7500237016476969  1.0000
  O   O7        1.0  0.7690264888422316  0.41349173034103237  0.3724202215392771  1.0000
  O   O8        1.0  0.7689813602212401  0.21783804070593016  0.5681237429107975  1.0000
