data_image0
_chemical_formula_structural       NC10NC3NH7C12SCH12C16H10Zn2C4O8
_chemical_formula_sum              "N3 C46 H29 S1 Zn2 O8"
_cell_length_a       19.210446455230148
_cell_length_b       10.299776766347529
_cell_length_c       10.299151387937775
_cell_angle_alpha    85.58705518708116
_cell_angle_beta     89.97931430287453
_cell_angle_gamma    89.9285037425463

_space_group_name_H-M_alt    "P 1"
_space_group_IT_number       1

loop_
  _space_group_symop_operation_xyz
  'x, y, z'

loop_
  _atom_site_type_symbol
  _atom_site_label
  _atom_site_symmetry_multiplicity
  _atom_site_fract_x
  _atom_site_fract_y
  _atom_site_fract_z
  _atom_site_occupancy
  N   N1        1.0  0.6553721343888107  0.4195501366306118  0.5674115739924661  1.0000
  C   C1        1.0  0.5951430014701046  0.4217576917683743  0.5676428689845117  1.0000
  C   C2        1.0  0.5203378383942712  0.4244946558019662  0.5679294147571581  1.0000
  C   C3        1.0  0.48469590970339327  0.540728478197221  0.583048929162507  1.0000
  C   C4        1.0  0.41203039566959  0.5408799895083805  0.58299634181581  1.0000
  C   C5        1.0  0.3751708947301611  0.42520364048763515  0.5680159450569839  1.0000
  C   C6        1.0  0.2978491276304287  0.4238471367523451  0.5678652628738663  1.0000
  C   C7        1.0  0.2600736610053203  0.5273885870950157  0.5045103244138267  1.0000
  C   C8        1.0  0.1872956760335767  0.5259863467241943  0.5044011569657814  1.0000
  C   C9        1.0  0.1512916846858555  0.42130013786868314  0.5675959482340014  1.0000
  C   C10       1.0  0.0763625116612672  0.4199980325126085  0.5674590329594531  1.0000
  N   N2        1.0  0.0161249383639492  0.4189510956132496  0.5673489879516922  1.0000
  C   C11       1.0  0.188343463574979  0.3178843663684918  0.6309258865633478  1.0000
  C   C12       1.0  0.2611233638458414  0.3190123667456959  0.6310852816800843  1.0000
  C   C13       1.0  0.4134221920536396  0.31079014729829635  0.5531847162294696  1.0000
  N   N3        1.0  0.48419149502807873  0.31323512802401754  0.5533504413848307  1.0000
  H   H1        1.0  0.5127727921171505  0.6301647951669886  0.5951032974007855  1.0000
  H   H2        1.0  0.38473719372698  0.6308987366471286  0.5964454725576105  1.0000
  H   H3        1.0  0.2867840755127008  0.6086186365094854  0.45352507002067477  1.0000
  H   H4        1.0  0.1591325028410118  0.6063892657373802  0.45474624155144583  1.0000
  H   H5        1.0  0.1609935621919756  0.23651803401046356  0.6804812533563409  1.0000
  H   H6        1.0  0.2886415157526963  0.23872922827601162  0.6821779317688401  1.0000
  H   H7        1.0  0.3871814269381222  0.21990848240966843  0.539689281181059  1.0000
  C   C14       1.0  0.8358174956040598  0.037885380206563735  0.5673786760261736  1.0000
  C   C15       1.0  0.8399859521600904  0.02637631895627912  0.7038917802460536  1.0000
  C   C16       1.0  0.8420311224170293  0.9034060786310634  0.7730694269561103  1.0000
  C   C17       1.0  0.8398528470252602  0.7910887702189296  0.7039069936592623  1.0000
  C   C18       1.0  0.8356862496551514  0.8006058805441619  0.5673931397351175  1.0000
  C   C19       1.0  0.8336915059125636  0.9244433295479731  0.4998931473961785  1.0000
  C   C20       1.0  0.8464332079289922  0.8922947092955278  0.9174848896543808  1.0000
  C   C21       1.0  0.8065863896826176  0.7989327848175315  0.9915344554334424  1.0000
  C   C22       1.0  0.8107501735766495  0.7887101056429581  0.12744297171127184  1.0000
  C   C23       1.0  0.8545870284123934  0.8715718602229  0.1911086237687437  1.0000
  C   C24       1.0  0.8945998170082082  0.9643603220657945  0.11843209335268567  1.0000
  C   C25       1.0  0.8905381051432917  0.9749327159705196  0.982513144369227  1.0000
  S   S1        1.0  0.860006497553845  0.8579940912711308  0.36549793529439123  1.0000
  C   C26       1.0  0.7900557558643226  0.9741805920057426  0.3850387754486131  1.0000
  H   H8        1.0  0.8342565099991064  0.369724291470779  0.5153609817257496  1.0000
  H   H9        1.0  0.8406918486204934  0.11322935797635725  0.7568499631137953  1.0000
  H   H10       1.0  0.8423737684537693  0.6960939021860904  0.7566687253801765  1.0000
  H   H11       1.0  0.8304761948523178  0.9325535918648168  0.3945790919238352  1.0000
  H   H12       1.0  0.8340638337197355  0.4767786216935501  0.515380121853297  1.0000
  H   H13       1.0  0.7715501217511948  0.7350063030007002  0.9444264284678097  1.0000
  H   H14       1.0  0.7796224479082291  0.7167238565050241  0.18316984116572144  1.0000
  H   H15       1.0  0.9288950645675323  0.028344604186156364  0.16712918260619614  1.0000
  H   H16       1.0  0.9225442372702389  0.046549173268688904  0.9281991645419252  1.0000
  H   H17       1.0  0.8039958622490576  0.0704657934195041  0.33615872354840903  1.0000
  H   H18       1.0  0.781978641417482  0.984919399838568  0.49031940182537814  1.0000
  H   H19       1.0  0.741078218400548  0.938711006583487  0.3429252046427951  1.0000
  C   C27       1.0  0.8357922328297113  0.4190768202101607  0.18601490828347567  1.0000
  C   C28       1.0  0.768619872004348  0.47314080494803745  0.18111911471042808  1.0000
  C   C29       1.0  0.7345205492866219  0.5007263706129337  0.06148090154751129  1.0000
  C   C30       1.0  0.7684987140870918  0.47351859615140945  0.9458068086494715  1.0000
  C   C31       1.0  0.8357114797193536  0.41941440041677547  0.9487569052959639  1.0000
  C   C32       1.0  0.8689451439627326  0.39252853403246113  0.0692876276611678  1.0000
  C   C33       1.0  0.6634603266718919  0.5579198298230101  0.05734715245112665  1.0000
  C   C34       1.0  0.6457623574719793  0.6577604333145584  0.9620473302490149  1.0000
  C   C35       1.0  0.578869010191298  0.7115517243406113  0.9582849187124323  1.0000
  C   C36       1.0  0.5287960911904086  0.6663123117378789  0.04952075524352151  1.0000
  C   C37       1.0  0.5458630771673163  0.5670310886242729  0.1446586046232763  1.0000
  C   C38       1.0  0.6127364689573799  0.5131522388684397  0.14867058291752588  1.0000
  C   C39       1.0  0.45993897390400074  0.7217365700944773  0.0455193495753512  1.0000
  C   C40       1.0  0.4022721098045398  0.7681535487720943  0.0421681436736685  1.0000
  C   C41       1.0  0.3347448115823796  0.8225074149727687  0.03824391495645907  1.0000
  C   C42       1.0  0.277087266520477  0.8689171303031884  0.0348933571375154  1.0000
  H   H20       1.0  0.8616148089412153  0.39821895626129034  0.5153784856148547  1.0000
  H   H21       1.0  0.7430392577760118  0.49557740923877724  0.2704278307059431  1.0000
  H   H22       1.0  0.7420821215603708  0.492941249868051  0.8534388639541182  1.0000
  H   H23       1.0  0.9207560704465579  0.35082404077461615  0.07234840488618022  1.0000
  H   H24       1.0  0.9623972953850718  0.3165375286433634  0.7470909529730938  1.0000
  H   H25       1.0  0.6839170604050003  0.6953986655571172  0.8914950124898477  1.0000
  H   H26       1.0  0.5662670715590339  0.7886210022895972  0.884436127971787  1.0000
  H   H27       1.0  0.5074380839471656  0.531034483888525  0.21554240860261165  1.0000
  H   H28       1.0  0.6245159164079218  0.43532269842714943  0.22212648468224683  1.0000
  H   H29       1.0  0.2264591815231169  0.9096686297532115  0.03195129811406794  1.0000
  Zn  Zn1       1.0  0.7594775998893093  0.4193738056323342  0.5674010120554345  1.0000
  Zn  Zn2       1.0  0.9120194576188602  0.41911684887377954  0.567370185523411  1.0000
  C   C43       1.0  0.8357260881986515  0.41417700289845505  0.8045822213491594  1.0000
  C   C44       1.0  0.835772634766354  0.4243152874619385  0.33018910339123053  1.0000
  C   C45       1.0  0.8357080042099327  0.6564331916320012  0.5622151885253566  1.0000
  C   C46       1.0  0.8357906669644038  0.18205753855915607  0.5725562054350166  1.0000
  O   O1        1.0  0.8936548984821516  0.4259701854879927  0.37856358170140636  1.0000
  O   O2        1.0  0.893619565129447  0.4123261007596737  0.7561839725478376  1.0000
  O   O3        1.0  0.893604181567649  0.6079510388219547  0.5604708789389206  1.0000
  O   O4        1.0  0.8936702300004552  0.23034525676042317  0.5742765779458212  1.0000
  O   O5        1.0  0.7778267754526651  0.6081453978347879  0.5604946196367129  1.0000
  O   O6        1.0  0.7778421587500822  0.4125220200308408  0.7562076440293357  1.0000
  O   O7        1.0  0.7778774923221621  0.4261660588123939  0.3785856917728623  1.0000
  O   O8        1.0  0.7778928238289107  0.23054112083921052  0.5742987853854684  1.0000
