data_image0
_chemical_formula_structural       NC8NC6H8C12OCH12C12NH11Zn2C4O8
_chemical_formula_sum              "N3 C43 H31 O9 Zn2"
_cell_length_a       17.457602349358154
_cell_length_b       10.29979075500242
_cell_length_c       10.299774167527174
_cell_angle_alpha    85.5728606880388
_cell_angle_beta     92.86883644785563
_cell_angle_gamma    91.67079993281202

_space_group_name_H-M_alt    "P 1"
_space_group_IT_number       1

loop_
  _space_group_symop_operation_xyz
  'x, y, z'

loop_
  _atom_site_type_symbol
  _atom_site_label
  _atom_site_symmetry_multiplicity
  _atom_site_fract_x
  _atom_site_fract_y
  _atom_site_fract_z
  _atom_site_occupancy
  N   N1        1.0  0.7222563764861092  0.4524023834336004  0.6264243089997192  1.0000
  C   C1        1.0  0.6611874732591551  0.4064748129839504  0.6158137942507786  1.0000
  C   C2        1.0  0.5852151729252112  0.3493466324441137  0.6026238548144265  1.0000
  C   C3        1.0  0.5266741546654425  0.3895299118334399  0.6775137820973163  1.0000
  C   C4        1.0  0.4521395120454001  0.33452013942328307  0.6649380343563329  1.0000
  C   C5        1.0  0.3900068891314112  0.37694783466733806  0.7442493207358165  1.0000
  C   C6        1.0  0.3154607049415972  0.3953994648870083  0.688486639832631  1.0000
  C   C7        1.0  0.256919709698755  0.4353988537871947  0.7634845343326127  1.0000
  C   C8        1.0  0.1809354123606011  0.45445567290468714  0.7055064384605265  1.0000
  N   N2        1.0  0.11985695495107139  0.4697709759309061  0.6588922010716591  1.0000
  C   C9        1.0  0.2724326571638667  0.45718989990545156  0.8947535777250792  1.0000
  C   C10       1.0  0.3461940404772083  0.43912736416547316  0.9509037981216768  1.0000
  C   C11       1.0  0.4047233669056968  0.3993081616196572  0.8763635842426021  1.0000
  C   C12       1.0  0.4374347541105112  0.2386492567719367  0.5760395786434802  1.0000
  C   C13       1.0  0.49596397645058626  0.19874477070322327  0.5015496067221714  1.0000
  C   C14       1.0  0.5697137954373662  0.25386707912105555  0.5146752659951195  1.0000
  H   H1        1.0  0.5390000377723203  0.46474263640491986  0.744133565259063  1.0000
  H   H2        1.0  0.3031253965463819  0.3803993328700501  0.5864686583253151  1.0000
  H   H3        1.0  0.2275620731709621  0.48808951042671844  0.9535833927774142  1.0000
  H   H4        1.0  0.3580153817972268  0.45568502006895373  0.05254837812539037  1.0000
  H   H5        1.0  0.46120853443509074  0.38433021226222985  0.922469322954105  1.0000
  H   H6        1.0  0.38095902477522003  0.19331133381988197  0.5653928885148789  1.0000
  H   H7        1.0  0.484151783349803  0.12464813514102557  0.43373144662336394  1.0000
  H   H8        1.0  0.6145845455726344  0.22209793622078977  0.4563566398661394  1.0000
  C   C15       1.0  0.9211292744716673  0.07972209045050205  0.6427031337514069  1.0000
  C   C16       1.0  0.8989123235319517  0.06762278834078161  0.7723213548911394  1.0000
  C   C17       1.0  0.8875939463002603  0.9443530258367271  0.8379617720648684  1.0000
  C   C18       1.0  0.8987744960621299  0.832334455676682  0.7722443176850926  1.0000
  C   C19       1.0  0.920991413009134  0.8424415412684072  0.6426251612946525  1.0000
  C   C20       1.0  0.9320461857994496  0.9665713575549075  0.5785811658109892  1.0000
  C   C21       1.0  0.8640943446647993  0.932606957602254  0.975092210869861  1.0000
  C   C22       1.0  0.8081131226203226  0.839308066152938  0.015584437198246204  1.0000
  C   C23       1.0  0.7860650179626805  0.8285296316974584  0.14451745406373073  1.0000
  C   C24       1.0  0.8195017066850493  0.9103603328444935  0.23459231404334968  1.0000
  C   C25       1.0  0.8756870437116538  0.004277756602331317  0.19598838134467533  1.0000
  C   C26       1.0  0.8974973464563836  0.014684466051052114  0.06650926851337569  1.0000
  O   O1        1.0  0.9111437760337684  0.08855033509297128  0.2827486045984776  1.0000
  C   C27       1.0  0.894686579561399  0.08884681703609987  0.4167350303394324  1.0000
  H   H9        1.0  0.9296284581170036  0.41178539373598233  0.5933370600420231  1.0000
  H   H10       1.0  0.8893415419685844  0.15424510804084712  0.8219664130553992  1.0000
  H   H11       1.0  0.8911228270354951  0.737114406003288  0.8229851627283054  1.0000
  H   H12       1.0  0.9491862152283568  0.9751370872588297  0.47858623276319046  1.0000
  H   H13       1.0  0.929418899572724  0.5188396663815914  0.5932155993458008  1.0000
  H   H14       1.0  0.7806770028733143  0.7758620996709663  0.9471373202122566  1.0000
  H   H15       1.0  0.7427335735147439  0.7566761028116109  0.17465638457714772  1.0000
  H   H16       1.0  0.8013135141104175  0.899844353134657  0.3337693558156032  1.0000
  H   H17       1.0  0.9414477033775328  0.08613924244585869  0.037933670996226465  1.0000
  H   H18       1.0  0.9079357993557764  0.9929106398439551  0.46843736995225616  1.0000
  H   H19       1.0  0.9308868704929326  0.16507893967756093  0.4619036381184609  1.0000
  H   H20       1.0  0.8334407105627165  0.11108606789985065  0.4261685875839082  1.0000
  C   C28       1.0  0.9210864555742652  0.46096845089655103  0.26131422230846946  1.0000
  C   C29       1.0  0.8459579387791504  0.4083848328027144  0.25800433420508373  1.0000
  C   C30       1.0  0.8078628418584665  0.3818549403240612  0.13917716305340866  1.0000
  C   C31       1.0  0.8459051899283936  0.4086138290225887  0.022695295501502066  1.0000
  C   C32       1.0  0.9210341951417758  0.46119524196054607  0.024014079321682313  1.0000
  C   C33       1.0  0.9582040025648482  0.48707860065046527  0.1438083979836502  1.0000
  C   C34       1.0  0.7283812251974624  0.32622508672030137  0.13672884186093381  1.0000
  C   C35       1.0  0.7068376724990428  0.22683037095132463  0.2302769503596913  1.0000
  C   C36       1.0  0.6320260015674627  0.17452692057288122  0.22783858936503054  1.0000
  C   C37       1.0  0.5775744874451523  0.22067384775566135  0.1320832601431705  1.0000
  C   C38       1.0  0.5986118452912094  0.319656291484947  0.03865321478441697  1.0000
  C   C39       1.0  0.6734004608901872  0.3720599963240514  0.04082340413687002  1.0000
  N   N3        1.0  0.5010595211246459  0.16711994300909616  0.1297261117605535  1.0000
  H   H21       1.0  0.9497269175166132  0.48095212129907217  0.5900341128179822  1.0000
  H   H22       1.0  0.8165065722315468  0.3895951987822981  0.34788656204864465  1.0000
  H   H23       1.0  0.8171768824605832  0.3866833819590667  0.9310207464917482  1.0000
  H   H24       1.0  0.016162361018798865  0.5276435615169175  0.14559385083643384  1.0000
  H   H25       1.0  0.9496502262394242  0.4812857202653702  0.697058043208906  1.0000
  H   H26       1.0  0.7481139781600007  0.18836537907220796  0.3043008946321024  1.0000
  H   H27       1.0  0.6165634114786904  0.0978050069445553  0.30040091636695077  1.0000
  H   H28       1.0  0.5570155661060383  0.35644199974986845  0.9643332340596005  1.0000
  H   H29       1.0  0.6879660181449574  0.44960921706861323  0.9685197679249082  1.0000
  H   H30       1.0  0.4600688646333502  0.2008856625073967  0.05871118388368601  1.0000
  H   H31       1.0  0.4848367659504501  0.09331008605434987  0.1989789716191004  1.0000
  Zn  Zn1       1.0  0.8369953149341234  0.4574111036110571  0.6358013397580302  1.0000
  Zn  Zn2       1.0  0.005118003449709807  0.4647516112113619  0.6495258033998896  1.0000
  C   C40       1.0  0.9210433068875742  0.4559786506268426  0.8798478945470549  1.0000
  C   C41       1.0  0.921071847085831  0.4661857829931937  0.4054795257742756  1.0000
  C   C42       1.0  0.9210138582686259  0.6982696417373342  0.6374646994134952  1.0000
  C   C43       1.0  0.9211012386135832  0.22389322911302112  0.6478627856192369  1.0000
  O   O2        1.0  0.9848686294808175  0.47071678600542  0.45907108158901866  1.0000
  O   O3        1.0  0.9848477551844292  0.45701794321256584  0.836672515346667  1.0000
  O   O4        1.0  0.9848231148824803  0.6526709455711901  0.6409463000247992  1.0000
  O   O5        1.0  0.9848932124188722  0.27506379040314877  0.6547971948568825  1.0000
  O   O6        1.0  0.8572200485929388  0.6470989219157264  0.6305299436107206  1.0000
  O   O7        1.0  0.8572446886140617  0.45144747982323974  0.8262560895308697  1.0000
  O   O8        1.0  0.857265563076612  0.46514627689865495  0.4486530944589795  1.0000
  O   O9        1.0  0.8572901460065387  0.26949327203648776  0.6443793050905307  1.0000
