data_image0
_chemical_formula_structural       NC9NC5H8C12BrH9C12NH11Zn2C4O8
_chemical_formula_sum              "N3 C42 H28 Br1 Zn2 O8"
_cell_length_a       17.807436237873137
_cell_length_b       10.299144633409057
_cell_length_c       10.299774167527174
_cell_angle_alpha    85.56689002636797
_cell_angle_beta     89.38598095942662
_cell_angle_gamma    88.36447201994044

_space_group_name_H-M_alt    "P 1"
_space_group_IT_number       1

loop_
  _space_group_symop_operation_xyz
  'x, y, z'

loop_
  _atom_site_type_symbol
  _atom_site_label
  _atom_site_symmetry_multiplicity
  _atom_site_fract_x
  _atom_site_fract_y
  _atom_site_fract_z
  _atom_site_occupancy
  N   N1        1.0  0.7071520829164184  0.3874354311441792  0.5569294908871136  1.0000
  C   C1        1.0  0.6465743490199917  0.35223967280875357  0.545912638552911  1.0000
  C   C2        1.0  0.571222306107828  0.30846002539408035  0.5322088704360479  1.0000
  C   C3        1.0  0.5531563678761595  0.23700817418604037  0.42722382059937614  1.0000
  C   C4        1.0  0.47999345631002605  0.19438998060634072  0.4138357408488642  1.0000
  C   C5        1.0  0.4238478637565566  0.22284606936351614  0.505400331495921  1.0000
  C   C6        1.0  0.3460945137327342  0.17766885575070046  0.4912543192272809  1.0000
  C   C7        1.0  0.2838953801619589  0.2594391340553983  0.5171768031983719  1.0000
  C   C8        1.0  0.2105902150219628  0.21661789054416847  0.5038024421007694  1.0000
  C   C9        1.0  0.1473402749753858  0.30107983982838316  0.530088308657064  1.0000
  N   N2        1.0  0.096500313022456  0.36898140396285384  0.5512214200077008  1.0000
  C   C10       1.0  0.1989007066588106  0.09176836103359443  0.46448029675625446  1.0000
  C   C11       1.0  0.2602424745378311  0.009984226854255818  0.4385494260377103  1.0000
  C   C12       1.0  0.3334283228613741  0.052410838245768865  0.4517213312598869  1.0000
  C   C13       1.0  0.4426050644910933  0.29479239081235886  0.6106045090277799  1.0000
  C   C14       1.0  0.515820906899948  0.3372201288405916  0.6238369802506065  1.0000
  H   H1        1.0  0.5955619282049991  0.214499881166347  0.35551828058560364  1.0000
  H   H2        1.0  0.4671003256901605  0.1406788668493104  0.3309288243789559  1.0000
  H   H3        1.0  0.2923658244834615  0.35692021709917077  0.546034329180799  1.0000
  H   H4        1.0  0.1424451524515359  0.057726504281629065  0.4538922493698194  1.0000
  H   H5        1.0  0.2510735559457062  0.9133229506508173  0.4084913848918905  1.0000
  H   H6        1.0  0.3800873542081032  0.9866550079459007  0.43268607546021265  1.0000
  H   H7        1.0  0.4009164354373366  0.3167619770855521  0.6836045945908238  1.0000
  H   H8        1.0  0.529242143704398  0.39215161408932264  0.7057020842194341  1.0000
  C   C15       1.0  0.9019277847418613  0.9968088462850399  0.5541527931501504  1.0000
  C   C16       1.0  0.8698976059329225  0.007231206818375968  0.4296672665245851  1.0000
  C   C17       1.0  0.8535565076874987  0.8953838309464771  0.366476000536089  1.0000
  C   C18       1.0  0.8696778027104233  0.7719759845451744  0.4294492556536791  1.0000
  C   C19       1.0  0.9017317987090118  0.7595977178764588  0.5540092893194459  1.0000
  C   C20       1.0  0.9176585530655623  0.8725353024853657  0.6155953606456319  1.0000
  C   C21       1.0  0.8196736117982318  0.9074545518076768  0.23478443078787214  1.0000
  C   C22       1.0  0.8448241658989352  0.0015429814757677018  0.13895257208072986  1.0000
  C   C23       1.0  0.8128669408435819  0.012700173046389374  0.015052515754777174  1.0000
  C   C24       1.0  0.7554984452275271  0.9303199213153438  0.9853601269007037  1.0000
  C   C25       1.0  0.7300566506501642  0.836564683379468  0.07975576046598398  1.0000
  C   C26       1.0  0.7618829598657311  0.8249963961841005  0.20375801037675578  1.0000
  Br  Br1       1.0  0.7119349382551103  0.9458405994817298  0.8160431510177508  1.0000
  H   H9        1.0  0.9142791965665188  0.3202758725042194  0.6020112652113685  1.0000
  H   H10       1.0  0.8566334655357353  0.10256607556613906  0.3823028600002485  1.0000
  H   H11       1.0  0.8581438200005517  0.6854401123485512  0.38045546750104053  1.0000
  H   H12       1.0  0.9423665849268078  0.8637805347730075  0.7116123711389437  1.0000
  H   H13       1.0  0.9626642609015791  0.5289473952940218  0.7887694505924749  1.0000
  H   H14       1.0  0.8898371637420928  0.06529792831696746  0.15929383046553403  1.0000
  H   H15       1.0  0.8328725345870513  0.08520068080351928  0.9421043667633673  1.0000
  H   H16       1.0  0.6854937581182445  0.772813846981844  0.05725939549888803  1.0000
  H   H17       1.0  0.7406557342415238  0.7527678778627946  0.27586424884080274  1.0000
  C   C27       1.0  0.9018553769497721  0.3780875260624792  0.17272859612790925  1.0000
  C   C28       1.0  0.8282901226210622  0.3322690700619224  0.1766373240552579  1.0000
  C   C29       1.0  0.7909876918699112  0.3091695694655834  0.061470451987677865  1.0000
  C   C30       1.0  0.8282384501024055  0.3325028360544118  0.9413333261706875  1.0000
  C   C31       1.0  0.9018041828900637  0.3783190427279277  0.9354334472943622  1.0000
  C   C32       1.0  0.93820057733604  0.40085532995524864  0.05165637187685235  1.0000
  C   C33       1.0  0.7131599162534447  0.26069686532070513  0.06665900813888737  1.0000
  C   C34       1.0  0.6920713788063898  0.16323580586800812  0.16228581099838824  1.0000
  C   C35       1.0  0.6188163727930941  0.1176689906511108  0.1670356163179587  1.0000
  C   C36       1.0  0.5654911415330065  0.16872545028106933  0.07650347594355056  1.0000
  C   C37       1.0  0.5860840215861695  0.26581981512852293  0.9810433792233857  1.0000
  C   C38       1.0  0.6593164426941203  0.3114889695784271  0.9760276054727828  1.0000
  N   N3        1.0  0.4905682866956397  0.12206155444755007  0.08149815859890341  1.0000
  H   H18       1.0  0.929899897599652  0.39549217953799287  0.4986966152660126  1.0000
  H   H19       1.0  0.7994514297172257  0.3161316047016818  0.2693491558411112  1.0000
  H   H20       1.0  0.8001080625164568  0.3131591754758871  0.8524192838635032  1.0000
  H   H21       1.0  0.994952947381494  0.4362012646527438  0.04787297889633191  1.0000
  H   H22       1.0  0.9298247711430861  0.39583271330111836  0.6057278744087666  1.0000
  H   H23       1.0  0.7324941979976404  0.12104894275831812  0.23235074072947137  1.0000
  H   H24       1.0  0.6036807939766502  0.04233453054017988  0.2410904539780574  1.0000
  H   H25       1.0  0.5453480031713527  0.3063560989095391  0.9107133076267635  1.0000
  H   H26       1.0  0.6735735376684839  0.3877316213240669  0.9023174983482853  1.0000
  H   H27       1.0  0.45042556458106225  0.1595230573380213  0.014415305338237427  1.0000
  H   H28       1.0  0.4746880848626523  0.04970785936312816  0.15231621258793515  1.0000
  Zn  Zn1       1.0  0.8195095709338828  0.38210653424481245  0.5552897760523916  1.0000
  Zn  Zn2       1.0  0.984142808811695  0.37429971708184206  0.5528718129850378  1.0000
  C   C39       1.0  0.9018135225728829  0.3731012409885488  0.7912669267541335  1.0000
  C   C40       1.0  0.9018406545329075  0.3833065638772146  0.31689476303185726  1.0000
  C   C41       1.0  0.9017653159238905  0.6154129732735585  0.548861521509507  1.0000
  C   C42       1.0  0.9018888054003845  0.14099327384978055  0.5593002386307733  1.0000
  O   O1        1.0  0.96431317079253  0.3820898080220514  0.36436064230227805  1.0000
  O   O2        1.0  0.9642938247855448  0.36839182334016085  0.7419654958178914  1.0000
  O   O3        1.0  0.9642540549902262  0.5640616519581294  0.5462214281402547  1.0000
  O   O4        1.0  0.9643528844138236  0.18641999132943332  0.5601046134327916  1.0000
  O   O5        1.0  0.8392994391505102  0.5699862626627166  0.5480569764229386  1.0000
  O   O6        1.0  0.8393392085461  0.37431799445266667  0.7438009745645866  1.0000
  O   O7        1.0  0.8393585547194539  0.3880159333987345  0.36619455972350323  1.0000
  O   O8        1.0  0.8393982683335285  0.19234610744626113  0.5619386282194407  1.0000
