data_image0
_chemical_formula_structural       NC9NC5H8C12ClH9C13OH12Zn2C4O8
_chemical_formula_sum              "N2 C43 H29 Cl1 O9 Zn2"
_cell_length_a       17.807436237873137
_cell_length_b       10.299768534541528
_cell_length_c       10.299153481560891
_cell_angle_alpha    85.58394017871095
_cell_angle_beta     89.40949667369763
_cell_angle_gamma    88.408414792471

_space_group_name_H-M_alt    "P 1"
_space_group_IT_number       1

loop_
  _space_group_symop_operation_xyz
  'x, y, z'

loop_
  _atom_site_type_symbol
  _atom_site_label
  _atom_site_symmetry_multiplicity
  _atom_site_fract_x
  _atom_site_fract_y
  _atom_site_fract_z
  _atom_site_occupancy
  N   N1        1.0  0.7074255031071218  0.38719109664698026  0.5571424679242911  1.0000
  C   C1        1.0  0.6468295830189392  0.3519979597064813  0.5461178228433783  1.0000
  C   C2        1.0  0.5714549184829688  0.3082215730171336  0.5324043614069331  1.0000
  C   C3        1.0  0.5533325427763279  0.23676883850372143  0.4273993449697131  1.0000
  C   C4        1.0  0.4801475984201684  0.19415381554885047  0.4140018266566965  1.0000
  C   C5        1.0  0.4240362357259032  0.2226139928020956  0.505576866049946  1.0000
  C   C6        1.0  0.3462595408043757  0.17744014364670968  0.4914208507844193  1.0000
  C   C7        1.0  0.2841027364554922  0.2592043562286299  0.5173614560507451  1.0000
  C   C8        1.0  0.2107754518615018  0.21638630426927397  0.503977615311245  1.0000
  C   C9        1.0  0.1475691186739826  0.30084195136737124  0.5302821750829179  1.0000
  N   N2        1.0  0.0967642138772294  0.36873844906228603  0.5514303145403774  1.0000
  C   C10       1.0  0.1990213746073167  0.09154605541518346  0.46462781468705217  1.0000
  C   C11       1.0  0.2603208051482565  0.009767987686469803  0.438678819402188  1.0000
  C   C12       1.0  0.3335285503677552  0.05219143099053469  0.4518601129290061  1.0000
  C   C13       1.0  0.4428501446373137  0.2945611655609428  0.6108011228932522  1.0000
  C   C14       1.0  0.5160878987484798  0.3369857399400922  0.6240429856920355  1.0000
  H   H1        1.0  0.5957111980662835  0.214257365666366  0.35568557633187603  1.0000
  H   H2        1.0  0.4672111009385683  0.14044173824545303  0.331079700912718  1.0000
  H   H3        1.0  0.2926231596411207  0.35667805449320267  0.5462404823780662  1.0000
  H   H4        1.0  0.1425482464196876  0.057506739193221135  0.4540322334343334  1.0000
  H   H5        1.0  0.2511019870812976  0.9131139257661832  0.40859938629876935  1.0000
  H   H6        1.0  0.3801539702047952  0.9864406144291229  0.4328103756882262  1.0000
  H   H7        1.0  0.4011884879090742  0.316534081665129  0.6838093912350611  1.0000
  H   H8        1.0  0.5295527966529247  0.3919179909073416  0.7059234976840245  1.0000
  C   C15       1.0  0.9020275906652842  0.9966025804648505  0.5542852779730172  1.0000
  C   C16       1.0  0.9069524509730733  0.005883308337538917  0.4177431170847248  1.0000
  C   C17       1.0  0.9095201411717974  0.8934431394825162  0.34856244753177545  1.0000
  C   C18       1.0  0.9070959366744438  0.7705887962657223  0.41775650202617176  1.0000
  C   C19       1.0  0.9021693090417338  0.759316623094031  0.5542986267933139  1.0000
  C   C20       1.0  0.8996632786777858  0.872879006883414  0.6217983698216001  1.0000
  C   C21       1.0  0.9147312316980064  0.9043149963595251  0.2041122093679677  1.0000
  C   C22       1.0  0.8719797703516864  0.9998531382608592  0.13027509183362418  1.0000
  C   C23       1.0  0.8769515346435326  0.009887075412041701  0.9943214253322976  1.0000
  C   C24       1.0  0.924601926267604  0.9249078182152966  0.9305140749596728  1.0000
  C   C25       1.0  0.9673408211740677  0.8296819453909975  0.0028401454860593756  1.0000
  C   C26       1.0  0.9625024708047126  0.8192494394084533  0.1388064979967356  1.0000
  Cl  Cl1       1.0  0.9307560360340562  0.9377468931360184  0.7599375636478123  1.0000
  H   H9        1.0  0.9001124293223429  0.32052174229462715  0.6063118751307073  1.0000
  H   H10       1.0  0.9098399379827388  0.10073890274655684  0.3649677854604807  1.0000
  H   H11       1.0  0.9080228463622599  0.6836910756203473  0.36479637785829766  1.0000
  H   H12       1.0  0.895863214818404  0.8649511998910275  0.7271343726879977  1.0000
  H   H13       1.0  0.9003219460372707  0.4275662357383536  0.6063320302974169  1.0000
  H   H14       1.0  0.8340033434948299  0.06564660218600027  0.17757605882757455  1.0000
  H   H15       1.0  0.8435868525550168  0.0835611065923536  0.9386987670234754  1.0000
  H   H16       1.0  0.004479140893228539  0.7638809499939614  0.9538619845305285  1.0000
  H   H17       1.0  0.9968202049394992  0.7458229830604575  0.1929208578779973  1.0000
  C   C27       1.0  0.9020338983340793  0.3778152524486318  0.1729203687833485  1.0000
  C   C28       1.0  0.8243587432169067  0.357116700376761  0.17473095303258246  1.0000
  C   C29       1.0  0.785112101214737  0.3467784045257474  0.058479403394340324  1.0000
  C   C30       1.0  0.8245360476501229  0.35742559249436034  0.9394203905744991  1.0000
  C   C31       1.0  0.9021630099637714  0.37810399469671396  0.9356635655466619  1.0000
  C   C32       1.0  0.9404586666009478  0.3881744760679293  0.05295367222542091  1.0000
  C   C33       1.0  0.7029903086970763  0.32490802154052423  0.061366710446234096  1.0000
  C   C34       1.0  0.6554890542848494  0.39239537014055825  0.9693973116940193  1.0000
  C   C35       1.0  0.5782076078718493  0.3718579907366306  0.972192393696174  1.0000
  C   C36       1.0  0.547126500220656  0.28261984374967186  0.06610656134439052  1.0000
  C   C37       1.0  0.5941239784790476  0.216252639126278  0.15900190368741796  1.0000
  C   C38       1.0  0.671408983279959  0.2367602028231368  0.15638491853767467  1.0000
  C   C39       1.0  0.46386978934441514  0.2632793568332872  0.07124397831074947  1.0000
  O   O1        1.0  0.4301433459095855  0.35246489149491245  0.15124774299532162  1.0000
  H   H18       1.0  0.048554215107396326  0.4177189421556817  0.37673258650675145  1.0000
  H   H19       1.0  0.7940695548472883  0.35078863051515574  0.26665075891891155  1.0000
  H   H20       1.0  0.794727389942675  0.3477862211697127  0.8496783801946584  1.0000
  H   H21       1.0  0.00033425964372946204  0.40412801124737774  0.050771747416618274  1.0000
  H   H22       1.0  0.9320111470505603  0.3861440207889959  0.6067366538800454  1.0000
  H   H23       1.0  0.6779591353168951  0.46258581569897417  0.8965114243671031  1.0000
  H   H24       1.0  0.5425734386004477  0.42582658692435715  0.9012354203844088  1.0000
  H   H25       1.0  0.5709615745658441  0.14830137769921525  0.23333787352251156  1.0000
  H   H26       1.0  0.7065916140549705  0.18261250918915417  0.22787172592101856  1.0000
  H   H27       1.0  0.45192750960663897  0.16205908375960676  0.11023601068706479  1.0000
  H   H28       1.0  0.4400932690046347  0.27777137012193  0.9714622212603041  1.0000
  H   H29       1.0  0.3755280017893268  0.33569998945189505  0.15134524764127177  1.0000
  Zn  Zn1       1.0  0.819780244290775  0.38186259877288187  0.5555015746315035  1.0000
  Zn  Zn2       1.0  0.9844094543365818  0.37405636499507655  0.5530818843345626  1.0000
  C   C40       1.0  0.9021359535510076  0.37287591082030214  0.7914887156640176  1.0000
  C   C41       1.0  0.9020555431482249  0.3830446063421016  0.3170948443752335  1.0000
  C   C42       1.0  0.9021377721806875  0.6151456934819952  0.5491209891969959  1.0000
  C   C43       1.0  0.9020536680639254  0.14077326609591045  0.5594626408796435  1.0000
  O   O2        1.0  0.9645387335329606  0.3818315346041363  0.3645628554771039  1.0000
  O   O3        1.0  0.9646025240851174  0.36816325189851673  0.7421838417487121  1.0000
  O   O4        1.0  0.9646031506747561  0.5637992057635219  0.5464702002371924  1.0000
  O   O5        1.0  0.9645380507517693  0.1861955926560619  0.5602764004391076  1.0000
  O   O6        1.0  0.839651591695717  0.5697233737771923  0.5483070593458492  1.0000
  O   O7        1.0  0.839650965380827  0.37408898016198  0.7440206316388707  1.0000
  O   O8        1.0  0.8395871746059563  0.387757217018996  0.3663980839540266  1.0000
  O   O9        1.0  0.8395864918364468  0.19212126581928657  0.5621117262844368  1.0000
