data_image0
_chemical_formula_structural       NC10NC5H10C12OCH12C15H12Zn2C4O8
_chemical_formula_sum              "N2 C47 H34 O9 Zn2"
_cell_length_a       19.4436361288709
_cell_length_b       10.29979075500242
_cell_length_c       10.299157797200024
_cell_angle_alpha    85.53980185155037
_cell_angle_beta     89.72702837822627
_cell_angle_gamma    89.4004616021446

_space_group_name_H-M_alt    "P 1"
_space_group_IT_number       1

loop_
  _space_group_symop_operation_xyz
  'x, y, z'

loop_
  _atom_site_type_symbol
  _atom_site_label
  _atom_site_symmetry_multiplicity
  _atom_site_fract_x
  _atom_site_fract_y
  _atom_site_fract_z
  _atom_site_occupancy
  N   N1        1.0  0.6471140275801324  0.4097258078643926  0.5619250432639065  1.0000
  C   C1        1.0  0.588280321850012  0.4196209062767491  0.5763093243444926  1.0000
  C   C2        1.0  0.5149538329832687  0.43196139529687505  0.5943020267289472  1.0000
  C   C3        1.0  0.4727499287824082  0.40000909779010185  0.49962436139048805  1.0000
  C   C4        1.0  0.3968449498330666  0.4104448343443723  0.5049521639617813  1.0000
  C   C5        1.0  0.3571383454521326  0.38564676419261357  0.61203254528633  1.0000
  C   C6        1.0  0.281013691564719  0.3895694512695851  0.5990721511277568  1.0000
  C   C7        1.0  0.240466167396467  0.44718645020931014  0.6928452351553704  1.0000
  C   C8        1.0  0.1687993539176157  0.4508291385762284  0.6823004826332348  1.0000
  C   C9        1.0  0.1366854511801135  0.3964586839054103  0.578269212918668  1.0000
  C   C10       1.0  0.0628893414605997  0.4001626881781024  0.5675691654129822  1.0000
  N   N2        1.0  0.0035622745358477  0.4031405131813215  0.5589670366160466  1.0000
  C   C11       1.0  0.1765083041422672  0.33813441785485754  0.484879427754783  1.0000
  C   C12       1.0  0.24819148867100913  0.3344376240587692  0.49517239060495855  1.0000
  C   C13       1.0  0.3853127662415187  0.3451245998909551  0.7431374896978051  1.0000
  C   C14       1.0  0.4439817363780185  0.38822405786277536  0.7903803969832675  1.0000
  C   C15       1.0  0.48815307306876543  0.4861167009678382  0.716002826313346  1.0000
  H   H1        1.0  0.49482978928913357  0.3709345894213094  0.4093137047942894  1.0000
  H   H2        1.0  0.3721180117489214  0.4329831623830507  0.4117868442791479  1.0000
  H   H3        1.0  0.2643508960370354  0.4904391189566044  0.7736960118723262  1.0000
  H   H4        1.0  0.138466371829299  0.4961092490552117  0.7552231946016383  1.0000
  H   H5        1.0  0.1521517492795441  0.29507724838442506  0.4043631431955359  1.0000
  H   H6        1.0  0.2778594132140992  0.28691380866835914  0.422946182538142  1.0000
  H   H7        1.0  0.3543750693755559  0.28087766956106974  0.8073919927065702  1.0000
  H   H8        1.0  0.4591633726105387  0.35411097823089044  0.8883227562426534  1.0000
  H   H9        1.0  0.45802225112971934  0.5768423578258666  0.6907441845514333  1.0000
  H   H10       1.0  0.5314506706461934  0.5116729085263898  0.7790901881180885  1.0000
  C   C16       1.0  0.8254032573684729  0.025064193793006284  0.5604844769659914  1.0000
  C   C17       1.0  0.8055213593887458  0.014226629097412014  0.6920956838069086  1.0000
  C   C18       1.0  0.7953924633832623  0.89159988562392  0.7587513828775934  1.0000
  C   C19       1.0  0.8053977794948891  0.778946638399431  0.6920309201590369  1.0000
  C   C20       1.0  0.825279646747911  0.7877919891694398  0.5604187810005272  1.0000
  C   C21       1.0  0.8351726595769174  0.9112937227991434  0.49538315642166997  1.0000
  C   C22       1.0  0.774362732103187  0.8811883817422861  0.8979898713498982  1.0000
  C   C23       1.0  0.7241878532197253  0.791235822214248  0.9434745941282425  1.0000
  C   C24       1.0  0.7044571365244469  0.781709361009423  0.07438548097790676  1.0000
  C   C25       1.0  0.7344567043412645  0.8614746335051782  0.16149011753010079  1.0000
  C   C26       1.0  0.7848150783632608  0.9520323353608812  0.11787569381542518  1.0000
  C   C27       1.0  0.8043324635414272  0.9612017057090725  0.9864398449358205  1.0000
  O   O1        1.0  0.8166246704147396  0.034119817417697984  0.20148535283160351  1.0000
  C   C28       1.0  0.8019074372803924  0.03532875854006723  0.33695197500888296  1.0000
  H   H11       1.0  0.8330092166398526  0.35664468597213794  0.5103560011326629  1.0000
  H   H12       1.0  0.7969548135426391  0.10139610540240862  0.7425986600743417  1.0000
  H   H13       1.0  0.7985519688987754  0.6841575781227881  0.7434587883982364  1.0000
  H   H14       1.0  0.8505112331911165  0.9188860398245267  0.39385066650092737  1.0000
  H   H15       1.0  0.8328213195234742  0.4637116446139954  0.5102532012142762  1.0000
  H   H16       1.0  0.6995735045868222  0.7294814314374932  0.8774652225192552  1.0000
  H   H17       1.0  0.6656196812783092  0.7124467140331905  0.10838865680633591  1.0000
  H   H18       1.0  0.7181782560905172  0.8519956417191443  0.26229803148091735  1.0000
  H   H19       1.0  0.8437251820924251  0.03002742984753959  0.9539450126665503  1.0000
  H   H20       1.0  0.8137990367882667  0.938564810783898  0.38747901114846284  1.0000
  H   H21       1.0  0.8343723586411897  0.10935530967744445  0.37889949762327857  1.0000
  H   H22       1.0  0.7470045241151888  0.061249399843866126  0.35184396367339354  1.0000
  C   C29       1.0  0.8252616800927233  0.4065358300722828  0.17906027798237334  1.0000
  C   C30       1.0  0.7536258732848454  0.3898799774245316  0.17983147493616713  1.0000
  C   C31       1.0  0.7174516903534128  0.38132326380685355  0.06307895993244395  1.0000
  C   C32       1.0  0.7538302633773194  0.3896674703108043  0.9445625024372646  1.0000
  C   C33       1.0  0.8254211784939033  0.4063203576154797  0.9418429951183933  1.0000
  C   C34       1.0  0.8607188427739036  0.4146515333937477  0.05962564912614443  1.0000
  C   C35       1.0  0.6417165992487865  0.3637196536154357  0.06494058579715833  1.0000
  C   C36       1.0  0.6107828518124047  0.27731243249328164  0.9840978480519418  1.0000
  C   C37       1.0  0.5395129429690009  0.26083974657653997  0.9858819670943304  1.0000
  C   C38       1.0  0.4979075006545532  0.3297886560050416  0.06905135036267995  1.0000
  C   C39       1.0  0.5284730256984873  0.41704822401663977  0.14892035454578512  1.0000
  C   C40       1.0  0.5997422403869936  0.43352512109903274  0.14728419162409012  1.0000
  C   C41       1.0  0.42112927510960657  0.3143920151431663  0.06862700047487857  1.0000
  C   C42       1.0  0.3901817816701418  0.4087308610165339  0.9714647140506507  1.0000
  C   C43       1.0  0.3647475484611826  0.48630537391224893  0.8915703381545979  1.0000
  H   H23       1.0  0.9605253582936177  0.4371771627544283  0.38495895948537284  1.0000
  H   H24       1.0  0.725962595363715  0.3817662211524764  0.2715995241324154  1.0000
  H   H25       1.0  0.726067459808329  0.3849423674108088  0.8541610432853028  1.0000
  H   H26       1.0  0.9159390829063769  0.42749262812916533  0.0582437449618638  1.0000
  H   H27       1.0  0.8529602749217042  0.4126841272466  0.6133245972131887  1.0000
  H   H28       1.0  0.6417892978367855  0.22137419594173946  0.9204732898651553  1.0000
  H   H29       1.0  0.5167524893670361  0.19410478175258405  0.9225175817448306  1.0000
  H   H30       1.0  0.4970649726899339  0.4726847026800318  0.21220327319052457  1.0000
  H   H31       1.0  0.6219413690386923  0.5023776764518935  0.209011809995872  1.0000
  H   H32       1.0  0.407418655370628  0.21440547914873687  0.045304285165933544  1.0000
  H   H33       1.0  0.3992329986987198  0.33024142226281117  0.16602867252509168  1.0000
  H   H34       1.0  0.3424377439697697  0.5544127768631788  0.8214302092893924  1.0000
  Zn  Zn1       1.0  0.7499772953463765  0.4078219605777671  0.5610789393222291  1.0000
  Zn  Zn2       1.0  0.9006990022380968  0.40503374976809803  0.5598238232796096  1.0000
  C   C44       1.0  0.8253903529564369  0.4011874570013023  0.7976612120819919  1.0000
  C   C45       1.0  0.8252875902654416  0.41166986148091933  0.3232416641469382  1.0000
  C   C46       1.0  0.8252983721401418  0.6436217517356544  0.5552557899875727  1.0000
  C   C47       1.0  0.8253795199183455  0.169234007375896  0.5656471560466456  1.0000
  O   O2        1.0  0.882494389147097  0.41232911210896894  0.3711539449475698  1.0000
  O   O3        1.0  0.8825778422233115  0.3984110392666449  0.7487959534626951  1.0000
  O   O4        1.0  0.8825027957755449  0.594179812147166  0.5530518663676263  1.0000
  O   O5        1.0  0.8825693841418837  0.21656034949760206  0.5668979350897225  1.0000
  O   O6        1.0  0.7681068620086664  0.5962953618011582  0.5540048279335936  1.0000
  O   O7        1.0  0.7681819081859014  0.4005281492442041  0.7497488456448529  1.0000
  O   O8        1.0  0.7680984548362075  0.4144461772707593  0.3721052756406009  1.0000
  O   O9        1.0  0.7681734498500511  0.2186774053431335  0.567849363157148  1.0000
