data_image0
_chemical_formula_structural       NC11NC3H8C12SCH12C12BrH9Zn2C4O8
_chemical_formula_sum              "N2 C43 H29 S1 Br1 Zn2 O8"
_cell_length_a       17.807433833752565
_cell_length_b       10.299776766347529
_cell_length_c       10.299148005577397
_cell_angle_alpha    85.55397783742741
_cell_angle_beta     88.49799670841169
_cell_angle_gamma    90.66624570658541

_space_group_name_H-M_alt    "P 1"
_space_group_IT_number       1

loop_
  _space_group_symop_operation_xyz
  'x, y, z'

loop_
  _atom_site_type_symbol
  _atom_site_label
  _atom_site_symmetry_multiplicity
  _atom_site_fract_x
  _atom_site_fract_y
  _atom_site_fract_z
  _atom_site_occupancy
  N   N1        1.0  0.7075373533174786  0.4386650056030983  0.5346313158818836  1.0000
  C   C1        1.0  0.6567065457201646  0.40392919778131287  0.6011959816493446  1.0000
  C   C2        1.0  0.5934678971817678  0.36072071650870563  0.6839939312163459  1.0000
  C   C3        1.0  0.6051740361817605  0.2971537501446784  0.8067166402525543  1.0000
  C   C4        1.0  0.5438430790777499  0.2556253472090364  0.8872306014419129  1.0000
  C   C5        1.0  0.4706515223460778  0.2773505542863741  0.8456626724134702  1.0000
  C   C6        1.0  0.4579686842557725  0.34107213633589417  0.7224797467784556  1.0000
  C   C7        1.0  0.38020940427495464  0.36412784418580846  0.6781310654621997  1.0000
  C   C8        1.0  0.3614635709911714  0.3472747236974365  0.5485427179048781  1.0000
  C   C9        1.0  0.28824209069510703  0.36896120985461667  0.5069307132759815  1.0000
  C   C10       1.0  0.2328235299202095  0.4078194576560976  0.5940867491073294  1.0000
  C   C11       1.0  0.1574655697231956  0.4301645952274533  0.5511134008068528  1.0000
  N   N2        1.0  0.09688314263947452  0.44812842578372836  0.5165659563636489  1.0000
  C   C12       1.0  0.2508779025396696  0.4248832286093307  0.723143941422989  1.0000
  C   C13       1.0  0.3240465593602408  0.40316177597488934  0.7650113882915195  1.0000
  C   C14       1.0  0.5201569497064611  0.38259597203581674  0.641982202151967  1.0000
  H   H1        1.0  0.6616341432095585  0.27973473435062335  0.8400833377317365  1.0000
  H   H2        1.0  0.5530250392848379  0.20616018470024589  0.9819700280884733  1.0000
  H   H3        1.0  0.4240017208442013  0.24278592433698387  0.9091038856880163  1.0000
  H   H4        1.0  0.4031661487129102  0.3156434473384653  0.47982103451018543  1.0000
  H   H5        1.0  0.2748299061585255  0.3550952622168666  0.40688999223508127  1.0000
  H   H6        1.0  0.20845890572505543  0.45529157564115996  0.7913507768830503  1.0000
  H   H7        1.0  0.3369300736075522  0.41857313071244273  0.8648694085144226  1.0000
  H   H8        1.0  0.5116731516499916  0.43342342783499666  0.5474771609718625  1.0000
  C   C15       1.0  0.9022846743383355  0.062033385879729286  0.5255935645057774  1.0000
  C   C16       1.0  0.9067624649454693  0.05056105122028787  0.6619057862242195  1.0000
  C   C17       1.0  0.908959064459689  0.9276075480536318  0.7309849889769355  1.0000
  C   C18       1.0  0.9066188076579437  0.8152697809500385  0.6619276428424992  1.0000
  C   C19       1.0  0.9021430237099453  0.8247502169790744  0.5256145786007425  1.0000
  C   C20       1.0  0.9000005887298352  0.9485713578268871  0.4582106014816596  1.0000
  C   C21       1.0  0.9136877824824161  0.9165348173358451  0.8751883234737741  1.0000
  C   C22       1.0  0.8706713166561101  0.8220183084534759  0.9512302560985955  1.0000
  C   C23       1.0  0.8751441574956597  0.8118325778162078  0.08693809144441633  1.0000
  C   C24       1.0  0.9224456671363522  0.895879966322965  0.1484194607882111  1.0000
  C   C25       1.0  0.9656410462251577  0.9898268419028938  0.07374235282140174  1.0000
  C   C26       1.0  0.9612783691709973  0.0003651404189113361  0.9380189904748619  1.0000
  S   S1        1.0  0.9282677829200867  0.8823517485264595  0.3225474403990535  1.0000
  C   C27       1.0  0.8527697877063788  0.9965757446298368  0.3455800878262604  1.0000
  H   H9        1.0  0.9006079889767304  0.3938590665071837  0.47365104892194654  1.0000
  H   H10       1.0  0.9075161424301855  0.1374029220868893  0.7148315114766404  1.0000
  H   H11       1.0  0.9093313978340306  0.7203144852709257  0.7145663306117029  1.0000
  H   H12       1.0  0.8965466773238905  0.9566533004155664  0.3530514945670844  1.0000
  H   H13       1.0  0.9004000383778654  0.5009080113059444  0.47367980526737585  1.0000
  H   H14       1.0  0.832865367695821  0.757142017531619  0.9058681976880374  1.0000
  H   H15       1.0  0.8415406784554624  0.7389456199772289  0.14422125661571128  1.0000
  H   H16       1.0  0.0026469970507005947  0.05473933812052301  0.12073053610486673  1.0000
  H   H17       1.0  0.9958296585511427  0.07290598433160289  0.8821049532676504  1.0000
  H   H18       1.0  0.8678223145439656  0.09327825527213962  0.2960018202510061  1.0000
  H   H19       1.0  0.8440362501644076  0.0070279148562135685  0.4512692952412266  1.0000
  H   H20       1.0  0.7999168250651716  0.9597645795848857  0.30590846460735255  1.0000
  C   C28       1.0  0.9023162271557673  0.44344633336568373  0.14421111672954545  1.0000
  C   C29       1.0  0.8316395527945306  0.502507734170931  0.14205458463397425  1.0000
  C   C30       1.0  0.7956991958309487  0.5323972911728376  0.02382781765498021  1.0000
  C   C31       1.0  0.831388830183302  0.5024288357776505  0.9067891817203924  1.0000
  C   C32       1.0  0.902111433184843  0.4433372847869983  0.9069969704980094  1.0000
  C   C33       1.0  0.9371395038427832  0.414207920836243  0.026151908515544164  1.0000
  C   C34       1.0  0.720932340814468  0.5948790702977087  0.02259135833064252  1.0000
  C   C35       1.0  0.7051328885861124  0.6958118906233697  0.10340436855656843  1.0000
  C   C36       1.0  0.6347284054524146  0.7545090535678223  0.10204736178833174  1.0000
  C   C37       1.0  0.5793230742876003  0.7132190302889092  0.020252733136362666  1.0000
  C   C38       1.0  0.5943678238135088  0.6130547245939184  0.9396222901656839  1.0000
  C   C39       1.0  0.6647084768563417  0.5541340467857054  0.9405897159561958  1.0000
  Br  Br1       1.0  0.4831947418917876  0.7935524463964787  0.018664351296670434  1.0000
  H   H21       1.0  0.9295168529301105  0.42078183076070697  0.472511389788113  1.0000
  H   H22       1.0  0.803913346923249  0.5237798609748463  0.23268098876228827  1.0000
  H   H23       1.0  0.8044037255612314  0.5268676679773714  0.8152252729922393  1.0000
  H   H24       1.0  0.9916552735337288  0.36865635314000733  0.027099203362257462  1.0000
  H   H25       1.0  0.035806272021766006  0.3325454082156396  0.7000305509605917  1.0000
  H   H26       1.0  0.747516744968861  0.7304588737679767  0.1663459985609672  1.0000
  H   H27       1.0  0.6233689333558229  0.832298572560755  0.16438041182950047  1.0000
  H   H28       1.0  0.5515391489294194  0.5805488963134158  0.8763943390885394  1.0000
  H   H29       1.0  0.6748109716059522  0.4756246907995283  0.8785160699057046  1.0000
  Zn  Zn1       1.0  0.8198941362185905  0.4413924685872901  0.5294255282529687  1.0000
  Zn  Zn2       1.0  0.9845263441082025  0.4453903418473284  0.5217823303808404  1.0000
  C   C40       1.0  0.9021494380497176  0.43818424577156523  0.7628140742662919  1.0000
  C   C41       1.0  0.9022728397170734  0.4486002468974113  0.28839382842361716  1.0000
  C   C42       1.0  0.9021673011109629  0.6805811519375546  0.5204352710184534  1.0000
  C   C43       1.0  0.9022549207495967  0.20620177907726878  0.5307727034795919  1.0000
  O   O1        1.0  0.9647353444548454  0.4518414537676929  0.33388230967793087  1.0000
  O   O2        1.0  0.9646389700525279  0.43797635254625433  0.7115242087820373  1.0000
  O   O3        1.0  0.9646525521171216  0.6337148991572825  0.5158016494277475  1.0000
  O   O4        1.0  0.9647217062368489  0.25610291509647154  0.5296047742597789  1.0000
  O   O5        1.0  0.839698717909053  0.6306798939752833  0.5216030869754469  1.0000
  O   O6        1.0  0.8396851355697995  0.4349429076555451  0.7173255771230171  1.0000
  O   O7        1.0  0.8397815104496968  0.4488079638461355  0.33968211651627755  1.0000
  O   O8        1.0  0.8397678722042119  0.25306941587224374  0.5354046784719846  1.0000
