data_image0
_chemical_formula_structural       NC11NC3H8C12ClH9C15H12Zn2C4O8
_chemical_formula_sum              "N2 C45 H29 Cl1 Zn2 O8"
_cell_length_a       17.807433833752565
_cell_length_b       10.299768534541528
_cell_length_c       10.299157797200024
_cell_angle_alpha    85.54593967103355
_cell_angle_beta     88.54730741847368
_cell_angle_gamma    90.7030232555817

_space_group_name_H-M_alt    "P 1"
_space_group_IT_number       1

loop_
  _space_group_symop_operation_xyz
  'x, y, z'

loop_
  _atom_site_type_symbol
  _atom_site_label
  _atom_site_symmetry_multiplicity
  _atom_site_fract_x
  _atom_site_fract_y
  _atom_site_fract_z
  _atom_site_occupancy
  N   N1        1.0  0.7073438061772971  0.4388695515872745  0.5346275644594292  1.0000
  C   C1        1.0  0.6565331653964227  0.4041247493786275  0.6011919151893637  1.0000
  C   C2        1.0  0.5933196012210923  0.3609050802213525  0.6839894729147662  1.0000
  C   C3        1.0  0.6050630971502345  0.2973215358545125  0.8067115936110072  1.0000
  C   C4        1.0  0.5437567138275068  0.2557822583910736  0.8872251660273156  1.0000
  C   C5        1.0  0.470552575913382  0.2775130825586283  0.8456574331992186  1.0000
  C   C6        1.0  0.45783220968218924  0.34125130396633563  0.7224750994386413  1.0000
  C   C7        1.0  0.38005946124083156  0.364313003478302  0.6781266293956429  1.0000
  C   C8        1.0  0.3612429808669012  0.3474765733691465  0.5485402346259953  1.0000
  C   C9        1.0  0.28800888310333556  0.3691686819730897  0.5069284273847001  1.0000
  C   C10       1.0  0.2326480627710091  0.40801597162203196  0.5940827134333659  1.0000
  C   C11       1.0  0.1572770534403798  0.4303669150861238  0.5511095697839532  1.0000
  N   N2        1.0  0.0966841357903954  0.4483354131572792  0.5165622898658457  1.0000
  C   C12       1.0  0.25077289684221  0.42506312332140483  0.7231379565300329  1.0000
  C   C13       1.0  0.3239542850545949  0.403336014678604  0.7650052032428398  1.0000
  C   C14       1.0  0.5199959078112159  0.3827860120146258  0.6419779434440898  1.0000
  H   H1        1.0  0.661533310512597  0.27989801139867754  0.8400781332845233  1.0000
  H   H2        1.0  0.5529673668961218  0.20630429419034146  0.9819641447150851  1.0000
  H   H3        1.0  0.4239214529497133  0.24293986611267537  0.9090983693489683  1.0000
  H   H4        1.0  0.4028996622762362  0.31585392777888965  0.4798199466459274  1.0000
  H   H5        1.0  0.2745418419606704  0.3553156108133213  0.40688922743889444  1.0000
  H   H6        1.0  0.20839908617672054  0.45546289467475165  0.7913434226629723  1.0000
  H   H7        1.0  0.3368931393087142  0.418734531699438  0.8648616802429776  1.0000
  H   H8        1.0  0.5114840394884361  0.4336262522444607  0.5474733255735025  1.0000
  C   C15       1.0  0.9019467044574715  0.062235451729566904  0.525595902532427  1.0000
  C   C16       1.0  0.9068635213368883  0.0719599091197125  0.38889088872192623  1.0000
  C   C17       1.0  0.9094271366040313  0.9597497556555037  0.3196254090713164  1.0000
  C   C18       1.0  0.907007008551421  0.8366756757569332  0.3888997217965404  1.0000
  C   C19       1.0  0.9020884243360531  0.8249596463786475  0.5256047555578216  1.0000
  C   C20       1.0  0.8995863698888248  0.9382975513420712  0.5931872711275574  1.0000
  C   C21       1.0  0.9146297178577172  0.9710911129977803  0.1750028543988238  1.0000
  C   C22       1.0  0.8718736783130855  0.06361308253828124  0.10251858757581989  1.0000
  C   C23       1.0  0.8768374341865393  0.07409372150723925  0.9664006084158259  1.0000
  C   C24       1.0  0.9244842953151751  0.992573238710197  0.9010783238599567  1.0000
  C   C25       1.0  0.9672276790695707  0.9003636402035201  0.9720518693772768  1.0000
  C   C26       1.0  0.9623973385397736  0.8894939894528794  0.108178302203364  1.0000
  Cl  Cl1       1.0  0.93062835676553  0.005966767433793985  0.7302983136494063  1.0000
  H   H9        1.0  0.9000346077038472  0.385982768813556  0.5776857775634934  1.0000
  H   H10       1.0  0.9097479044091492  0.16705755874207817  0.3360213931062408  1.0000
  H   H11       1.0  0.9079307935137269  0.7498795641165024  0.3359076298952066  1.0000
  H   H12       1.0  0.8957925111610001  0.9300273728954149  0.6986489316672353  1.0000
  H   H13       1.0  0.9002441266643618  0.49304227074370877  0.577699286158847  1.0000
  H   H14       1.0  0.8338998552915116  0.12665232891564226  0.15102675575408386  1.0000
  H   H15       1.0  0.843469297433803  0.14541250104906633  0.9118338571638542  1.0000
  H   H16       1.0  0.00436329163006155  0.8372578852293714  0.921893017662966  1.0000
  H   H17       1.0  0.9967184430113659  0.8184921174894406  0.16120644372498827  1.0000
  C   C27       1.0  0.9019304774676951  0.443701702886524  0.14421236771340507  1.0000
  C   C28       1.0  0.8236777890380719  0.423819986877201  0.14801807480855134  1.0000
  C   C29       1.0  0.7841622033846398  0.41363429742058466  0.032797893700359015  1.0000
  C   C30       1.0  0.8239009639564359  0.4236166830681798  0.9127404206671956  1.0000
  C   C31       1.0  0.9021046168343935  0.44349341221643  0.9069883055088979  1.0000
  C   C32       1.0  0.9406627133620132  0.4534140928822765  0.023275753188102266  1.0000
  C   C33       1.0  0.7014315884552924  0.3926202272166357  0.03786767686964532  1.0000
  C   C34       1.0  0.6676117988209406  0.304819809352914  0.9583281019901366  1.0000
  C   C35       1.0  0.5897588413414083  0.28513773724057034  0.9631312405609913  1.0000
  C   C36       1.0  0.5443389006510143  0.35221329787868916  0.048070184793230775  1.0000
  C   C37       1.0  0.5777567961321805  0.4408494834829315  0.12665170933198788  1.0000
  C   C38       1.0  0.6556089969254378  0.46053573551348337  0.12199655668372533  1.0000
  C   C39       1.0  0.4604696874635265  0.3333592295192671  0.050898402221762895  1.0000
  C   C40       1.0  0.4267004663460086  0.4263047288360249  0.9550562854423625  1.0000
  C   C41       1.0  0.39894720823552193  0.5027341183647973  0.8762468963115442  1.0000
  H   H18       1.0  0.049687945742302286  0.48043415134955136  0.3443811735543525  1.0000
  H   H19       1.0  0.7934586893964594  0.41446050906693643  0.2409577943362231  1.0000
  H   H20       1.0  0.7935743836036399  0.41764138570327947  0.8235151578033371  1.0000
  H   H21       1.0  0.000983556948072506  0.46874183441860007  0.019554706446200054  1.0000
  H   H22       1.0  0.9321874400426255  0.4510973068469464  0.5773033412346567  1.0000
  H   H23       1.0  0.7014593464251985  0.2502776737219885  0.893384365090113  1.0000
  H   H24       1.0  0.5648737477179814  0.21737767697818255  0.9007254102834246  1.0000
  H   H25       1.0  0.5434704701569313  0.4950717757449592  0.1912707999237755  1.0000
  H   H26       1.0  0.6798817326523472  0.5303881148709286  0.18278960212726192  1.0000
  H   H27       1.0  0.4454575172719917  0.23275503333891012  0.028147676091171192  1.0000
  H   H28       1.0  0.4365584861910848  0.3482226701918745  0.1492295086854054  1.0000
  H   H29       1.0  0.3746032784857138  0.5698370690051455  0.80705847637542  1.0000
  Zn  Zn1       1.0  0.8196990159518689  0.4415977180965007  0.5294218012956877  1.0000
  Zn  Zn2       1.0  0.9843289116994053  0.4455966242159177  0.521778639448572  1.0000
  C   C42       1.0  0.9020690841389227  0.43835911017865636  0.762807362479738  1.0000
  C   C43       1.0  0.9019606415992497  0.4488369143787183  0.2883931222933753  1.0000
  C   C44       1.0  0.9020565813718581  0.6807898922487985  0.520427868407273  1.0000
  C   C45       1.0  0.901973087915549  0.206404570629926  0.5307726881978048  1.0000
  O   O1        1.0  0.9644469513649545  0.4520722365834684  0.3338809604834596  1.0000
  O   O2        1.0  0.9645330557017173  0.43815788557436597  0.7115181674222606  1.0000
  O   O3        1.0  0.9645221176586536  0.633923787225493  0.5157950502006006  1.0000
  O   O4        1.0  0.9644578332104781  0.2563063428845518  0.5296039829337842  1.0000
  O   O5        1.0  0.839570038260691  0.630887998064652  0.5215964604118803  1.0000
  O   O6        1.0  0.8395809765744148  0.4351236567289598  0.71731950840298  1.0000
  O   O7        1.0  0.8394948719226738  0.4490379629098624  0.33968073998257076  1.0000
  O   O8        1.0  0.8395057537856325  0.25327205989552026  0.5354038598056357  1.0000
