data_image0
_chemical_formula_structural       NC8NC6H8C13OH12C13F3H9Zn2C4O8
_chemical_formula_sum              "N2 C44 H29 O9 F3 Zn2"
_cell_length_a       17.457602349358154
_cell_length_b       10.299150109392551
_cell_length_c       10.2985328690268
_cell_angle_alpha    85.55822410433288
_cell_angle_beta     92.88104695485512
_cell_angle_gamma    91.67070309183428

_space_group_name_H-M_alt    "P 1"
_space_group_IT_number       1

loop_
  _space_group_symop_operation_xyz
  'x, y, z'

loop_
  _atom_site_type_symbol
  _atom_site_label
  _atom_site_symmetry_multiplicity
  _atom_site_fract_x
  _atom_site_fract_y
  _atom_site_fract_z
  _atom_site_occupancy
  N   N1        1.0  0.7220701062657447  0.45248881900371085  0.6258450365785271  1.0000
  C   C1        1.0  0.6610002690878599  0.4065571648364823  0.6152458496825215  1.0000
  C   C2        1.0  0.5850268080731442  0.34942390486572306  0.6020700017482403  1.0000
  C   C3        1.0  0.5264948908805624  0.38961239656407254  0.6769585029748515  1.0000
  C   C4        1.0  0.4519591464140408  0.33459773620238265  0.6643963403772251  1.0000
  C   C5        1.0  0.3898361630073124  0.37703094084383304  0.7437061518842631  1.0000
  C   C6        1.0  0.3152827748031988  0.3954827118198121  0.6879311567679298  1.0000
  C   C7        1.0  0.2567508958850425  0.4354873004375457  0.7629276900255408  1.0000
  C   C8        1.0  0.18075910945173562  0.4545442552708989  0.7049368260673257  1.0000
  N   N2        1.0  0.11967463088522481  0.46985966688604197  0.6583123249209335  1.0000
  C   C9        1.0  0.27228022574217436  0.4572834384502753  0.894207684874647  1.0000
  C   C10       1.0  0.3460488585652677  0.4392208039884302  0.9503701620110747  1.0000
  C   C11       1.0  0.4045691248668892  0.3993964281427893  0.8758313187408586  1.0000
  C   C12       1.0  0.4372440106418965  0.23871666113130408  0.5755128979975275  1.0000
  C   C13       1.0  0.4957641799525457  0.19880699592741213  0.5010243267659846  1.0000
  C   C14       1.0  0.5695151692270767  0.2539342153944384  0.5141364408974507  1.0000
  H   H1        1.0  0.5388285212970177  0.4648330392686446  0.7435661039680359  1.0000
  H   H2        1.0  0.3029347174533509  0.38047878344559605  0.5859041290306719  1.0000
  H   H3        1.0  0.2274167969845721  0.4881870880977306  0.9530365639592544  1.0000
  H   H4        1.0  0.3578828879297443  0.45578237641694574  0.05202330925764653  1.0000
  H   H5        1.0  0.46106024636594056  0.3844183855390537  0.9219471621582  1.0000
  H   H6        1.0  0.3807673375779295  0.19337470258317335  0.5648773679908949  1.0000
  H   H7        1.0  0.48394407836535464  0.12470250508318204  0.433217885221143  1.0000
  H   H8        1.0  0.6143788363562664  0.22216097384531408  0.45581905729660344  1.0000
  C   C15       1.0  0.9209483526469887  0.07977794679312389  0.6422290221608875  1.0000
  C   C16       1.0  0.9195430587440596  0.06795449424114208  0.7789347214773117  1.0000
  C   C17       1.0  0.9187637744958284  0.9448221545516434  0.8479782472890849  1.0000
  C   C18       1.0  0.9193951193703299  0.832692574325069  0.7785592203452241  1.0000
  C   C19       1.0  0.9208037194144407  0.8425607917328586  0.6419401961103626  1.0000
  C   C20       1.0  0.92157421437545  0.9665638716129507  0.5745736603189537  1.0000
  C   C21       1.0  0.9172704384381357  0.9332957125242143  0.9925067014395419  1.0000
  C   C22       1.0  0.8700987956959849  0.8383755482144437  0.056681040334387034  1.0000
  C   C23       1.0  0.8686681502139585  0.8276094766200965  0.19268009570442335  1.0000
  C   C24       1.0  0.9148864865037877  0.9106265431390504  0.2670044629969388  1.0000
  C   C25       1.0  0.9613241656533107  0.006468473981181333  0.20341280793079897  1.0000
  C   C26       1.0  0.9627726200240814  0.01741112056505356  0.06741491805158117  1.0000
  C   C27       1.0  0.9117359914030383  0.9013414273535332  0.4128438551510558  1.0000
  O   O1        1.0  0.8543962422702325  0.9820241282327238  0.4484051661931512  1.0000
  H   H9        1.0  0.9231024744377212  0.3093663274835414  0.3841499075756627  1.0000
  H   H10       1.0  0.9179877412831431  0.15467491470520556  0.8318200631327266  1.0000
  H   H11       1.0  0.919835894203277  0.7376041730370734  0.8314324822816865  1.0000
  H   H12       1.0  0.9226585388235058  0.974891636703544  0.4691951416906315  1.0000
  H   H13       1.0  0.9212938782060193  0.5188787302430313  0.5893875112645937  1.0000
  H   H14       1.0  0.8334054889720302  0.7737492609785199  0.0015723694553626544  1.0000
  H   H15       1.0  0.8313504022994455  0.754663573662995  0.24001197319090162  1.0000
  H   H16       1.0  0.996604333556804  0.07258620182383213  0.25915234458330216  1.0000
  H   H17       1.0  0.00011611982867187898  0.09080380708925939  0.02089184398181798  1.0000
  H   H18       1.0  0.9681715098116255  0.9316474320092736  0.4576250842463381  1.0000
  H   H19       1.0  0.8992703224700715  0.7987860898424762  0.44964121228103426  1.0000
  H   H20       1.0  0.854685975793524  0.9723865487231681  0.5450623727438755  1.0000
  C   C28       1.0  0.9208540083538502  0.46104647543045085  0.26068536090215155  1.0000
  C   C29       1.0  0.99779167262654  0.42351314590570266  0.26919584188520207  1.0000
  C   C30       1.0  0.036776540948201486  0.4046134016676126  0.1563372660203357  1.0000
  C   C31       1.0  0.9978369166257777  0.42377075977451417  0.03389876701910133  1.0000
  C   C32       1.0  0.9208980590875141  0.46129233139774484  0.02348384362470246  1.0000
  C   C33       1.0  0.8828979504776782  0.4796854037246203  0.13741472918988995  1.0000
  C   C34       1.0  0.11811797116476241  0.3649439084536221  0.16626930451057653  1.0000
  C   C35       1.0  0.1710822677584276  0.42186267104269426  0.07903272803425021  1.0000
  C   C36       1.0  0.24763543930011656  0.3846304876108364  0.08840155531017957  1.0000
  C   C37       1.0  0.2726176633687869  0.2883180612790308  0.1839484178396158  1.0000
  C   C38       1.0  0.2200971188056644  0.2332378761926448  0.2727978960936115  1.0000
  C   C39       1.0  0.1435489350896777  0.27050333515024594  0.2635403850842679  1.0000
  C   C40       1.0  0.35580588523419676  0.251662676644415  0.1970394985019277  1.0000
  F   F1        1.0  0.39513604339727015  0.3327018655149514  0.27970696431584274  1.0000
  F   F2        1.0  0.3884768964467724  0.264264090985604  0.07684605566224456  1.0000
  F   F3        1.0  0.3629352130609893  0.12384279342407223  0.24755428604034724  1.0000
  H   H21       1.0  0.7756165112267654  0.532795482869971  0.4518772762589034  1.0000
  H   H22       1.0  0.02783880207213074  0.41066519040785887  0.3637335549989045  1.0000
  H   H23       1.0  0.02730451971761272  0.40767524905335173  0.9466806454093892  1.0000
  H   H24       1.0  0.8236003219695542  0.5086078224562014  0.13012239062205389  1.0000
  H   H25       1.0  0.7753710797486287  0.5314450296543745  0.7965234501372613  1.0000
  H   H26       1.0  0.15358504499893044  0.49686855200002333  0.0048471472551312456  1.0000
  H   H27       1.0  0.2874020806032054  0.4315977435714109  0.02114707903720303  1.0000
  H   H28       1.0  0.23820715726339636  0.16115053498900567  0.34947534553695503  1.0000
  H   H29       1.0  0.10405844150238153  0.22450224670254926  0.3318367413211023  1.0000
  Zn  Zn1       1.0  0.8368101844662695  0.4574981899345594  0.6352218950457498  1.0000
  Zn  Zn2       1.0  0.004934541068011944  0.4648396507937753  0.6489461038589288  1.0000
  C   C41       1.0  0.92088900407407  0.4560717160056993  0.8793004088624221  1.0000
  C   C42       1.0  0.9208575570695933  0.46626784367008556  0.40486786676622266  1.0000
  C   C43       1.0  0.9208268096561422  0.6983767954807238  0.6368188663884147  1.0000
  C   C44       1.0  0.9209196944183043  0.22396120129706265  0.6473494743921457  1.0000
  O   O2        1.0  0.9846610662683064  0.47080056253450864  0.4584651007235909  1.0000
  O   O3        1.0  0.9846879915674622  0.457110016149878  0.8361191583329481  1.0000
  O   O4        1.0  0.9846369087806724  0.6527743950699323  0.640313526465728  1.0000
  O   O5        1.0  0.9847120916782559  0.2751361903688192  0.6542706305217396  1.0000
  O   O6        1.0  0.8570325764834335  0.6472016478556466  0.6298973636927077  1.0000
  O   O7        1.0  0.8570836589668476  0.4515388293297222  0.8257029257177806  1.0000
  O   O8        1.0  0.8570567336371154  0.46522932995409905  0.4480473066048969  1.0000
  O   O9        1.0  0.8571077590513128  0.2695649485301763  0.6438529337818859  1.0000
