data_image0
_chemical_formula_structural       NC8NC6H8C12SCH12C16H10Zn2C4O8
_chemical_formula_sum              "N2 C47 H30 S1 Zn2 O8"
_cell_length_a       17.457602349358154
_cell_length_b       10.299776766347529
_cell_length_c       10.299151387937775
_cell_angle_alpha    85.58705518708116
_cell_angle_beta     92.86396087313608
_cell_angle_gamma    91.66964631390691

_space_group_name_H-M_alt    "P 1"
_space_group_IT_number       1

loop_
  _space_group_symop_operation_xyz
  'x, y, z'

loop_
  _atom_site_type_symbol
  _atom_site_label
  _atom_site_symmetry_multiplicity
  _atom_site_fract_x
  _atom_site_fract_y
  _atom_site_fract_z
  _atom_site_occupancy
  N   N1        1.0  0.7223096053811732  0.45219948214398786  0.6265150364327952  1.0000
  C   C1        1.0  0.6612416224539304  0.4062707564490442  0.615899188471764  1.0000
  C   C2        1.0  0.5852704664622863  0.3491411400794404  0.6027026155582569  1.0000
  C   C3        1.0  0.5267254825918057  0.3893346211869859  0.677600200397265  1.0000
  C   C4        1.0  0.4521919358542277  0.3343234837137099  0.6650180708629498  1.0000
  C   C5        1.0  0.3900551143471124  0.3767619838886105  0.7443374533783476  1.0000
  C   C6        1.0  0.3155114519886347  0.39520566912482424  0.6885741782057859  1.0000
  C   C7        1.0  0.2569664875723253  0.43521527619472367  0.7635797157680482  1.0000
  C   C8        1.0  0.1809848133955218  0.45426383560196637  0.7056009885137642  1.0000
  N   N2        1.0  0.1199084650572455  0.46957249788840105  0.6589862428269206  1.0000
  C   C9        1.0  0.2724729173711268  0.45702455494411653  0.8948570453645208  1.0000
  C   C10       1.0  0.3462317567180391  0.43897001567293126  0.9510079187845333  1.0000
  C   C11       1.0  0.404765028667197  0.39914065777550434  0.8764601017370945  1.0000
  C   C12       1.0  0.4374923144716134  0.23844083844770525  0.5761054389007525  1.0000
  C   C13       1.0  0.496025480671875  0.19852620468090998  0.5016078570969573  1.0000
  C   C14       1.0  0.5697741762831128  0.25364995438865945  0.5147399351194111  1.0000
  H   H1        1.0  0.5390474864038446  0.4645561362794264  0.7442309627324462  1.0000
  H   H2        1.0  0.3031811916690387  0.38019135335153065  0.5865499612628744  1.0000
  H   H3        1.0  0.2275992241277693  0.48793218423518203  0.953692805451211  1.0000
  H   H4        1.0  0.3580480540741265  0.4555417917900373  0.052658881654671585  1.0000
  H   H5        1.0  0.4612481086154141  0.3841692754883137  0.9225663611817647  1.0000
  H   H6        1.0  0.3810175019255386  0.1931017509302353  0.5654534761705234  1.0000
  H   H7        1.0  0.4842172146513029  0.12442060266576882  0.43377878102970846  1.0000
  H   H8        1.0  0.6146480187903212  0.2218728706028199  0.45641529545167314  1.0000
  C   C15       1.0  0.9211850393722756  0.0795241572741161  0.6427552527316727  1.0000
  C   C16       1.0  0.9257792478410917  0.06822276029762975  0.779644281106038  1.0000
  C   C17       1.0  0.9280333048015763  0.9453544063158345  0.8490063675216029  1.0000
  C   C18       1.0  0.9256325478024896  0.8329285805253176  0.7796474906913078  1.0000
  C   C19       1.0  0.9210403884104946  0.842238119197723  0.6427578802797471  1.0000
  C   C20       1.0  0.9188419083562749  0.9659761940074768  0.5750779958525094  1.0000
  C   C21       1.0  0.9328850042897846  0.9344623401873133  0.9938188237477688  1.0000
  C   C22       1.0  0.8889683681482806  0.8391153259133527  0.06427488165242679  1.0000
  C   C23       1.0  0.8935574267053635  0.829100078229784  0.20055890068979887  1.0000
  C   C24       1.0  0.941871628143127  0.9141456983490912  0.2681778943181673  1.0000
  C   C25       1.0  0.9859711862785921  0.008927518303002424  0.1991098394899694  1.0000
  C   C26       1.0  0.9814946250389905  0.01929756574364272  0.06282459291456999  1.0000
  S   S1        1.0  0.9478446233492596  0.9008379166476395  0.4430559501373865  1.0000
  C   C27       1.0  0.8707493518620166  0.01353960956925504  0.4562884185785273  1.0000
  H   H9        1.0  0.9194646200301089  0.4112853033181101  0.5905967839777262  1.0000
  H   H10       1.0  0.9265572421545498  0.15511096568536864  0.832666123874384  1.0000
  H   H11       1.0  0.9284109475339971  0.7380592998197579  0.832636566812673  1.0000
  H   H12       1.0  0.9152981964081468  0.9739262758768609  0.4694739738000939  1.0000
  H   H13       1.0  0.9192522644537635  0.5183300347891382  0.5905985479694214  1.0000
  H   H14       1.0  0.8503536154975961  0.7734434064174248  0.014007176944826116  1.0000
  H   H15       1.0  0.8592504214724692  0.7555631072697487  0.25347857669130747  1.0000
  H   H16       1.0  0.023769233267768364  0.0746203219308823  0.2508997790031182  1.0000
  H   H17       1.0  0.016769754165365303  0.09250850533900912  0.011397023919778815  1.0000
  H   H18       1.0  0.8861132530921472  0.11051927955433127  0.40866552808463286  1.0000
  H   H19       1.0  0.8618472685377737  0.02387603151093809  0.5608406260841112  1.0000
  H   H20       1.0  0.8167694160336607  0.975630059950871  0.4097579037282246  1.0000
  C   C28       1.0  0.921157196344455  0.46071433873618384  0.2613892067147596  1.0000
  C   C29       1.0  0.8471240800516207  0.5114319291090001  0.2504356043079987  1.0000
  C   C30       1.0  0.8095419689980654  0.5373187338550764  0.1277222099865678  1.0000
  C   C31       1.0  0.8469905474785832  0.5118036844641956  0.01511237185570491  1.0000
  C   C32       1.0  0.921068195387266  0.46104789598231055  0.024123921164907136  1.0000
  C   C33       1.0  0.9576962325670767  0.4358176651211172  0.1476517569612381  1.0000
  C   C34       1.0  0.7312238979940073  0.5909721131034542  0.11718003279577238  1.0000
  C   C35       1.0  0.7117183186779769  0.6899310387192228  0.020284153631530577  1.0000
  C   C36       1.0  0.6379927134201412  0.7403898352840184  0.010489095555591188  1.0000
  C   C37       1.0  0.582805517526398  0.6926558887401257  0.09720920318678306  1.0000
  C   C38       1.0  0.6016156671485251  0.5942249091641878  0.19388620553280878  1.0000
  C   C39       1.0  0.6753192787301011  0.5436775597264778  0.20392903071927093  1.0000
  C   C40       1.0  0.5069155695028776  0.7446498214918131  0.08699805219722889  1.0000
  C   C41       1.0  0.4433588088998401  0.7881939508799012  0.0784462722132615  1.0000
  C   C42       1.0  0.3689345031170003  0.8391837404353326  0.06843222532291215  1.0000
  C   C43       1.0  0.30538801336618254  0.8827210707322719  0.05988193384097795  1.0000
  H   H21       1.0  0.94961720216759  0.4411429045350417  0.5930815428950975  1.0000
  H   H22       1.0  0.8189307492718356  0.5325941577152071  0.3374373823168153  1.0000
  H   H23       1.0  0.8178758544327984  0.5299103157083602  0.9203620980952607  1.0000
  H   H24       1.0  0.014798950090862961  0.39669428990503386  0.15538500191375215  1.0000
  H   H25       1.0  0.06069326749417581  0.36448226136757267  0.8338828829557627  1.0000
  H   H26       1.0  0.7537700126284497  0.729470062914406  0.9531727436153004  1.0000
  H   H27       1.0  0.6241036558254095  0.8168313095365183  0.9355038234671054  1.0000
  H   H28       1.0  0.5592660763843329  0.5563140471474772  0.26130472616488243  1.0000
  H   H29       1.0  0.6883018387035182  0.46643484809524693  0.27844723906284896  1.0000
  H   H30       1.0  0.2495889487175894  0.9209503789675269  0.052374079351023006  1.0000
  Zn  Zn1       1.0  0.837048047493631  0.45720947985058613  0.6358930236073002  1.0000
  Zn  Zn2       1.0  0.005170009474052106  0.4645518572060905  0.6496188880998413  1.0000
  C   C44       1.0  0.9210842959267351  0.4558112262295808  0.8799505546554216  1.0000
  C   C45       1.0  0.9211355966018554  0.46595182965114734  0.40556163440925364  1.0000
  C   C46       1.0  0.9210643649011857  0.6980665140545208  0.6375818909622364  1.0000
  C   C47       1.0  0.9211554705470144  0.2236949790768621  0.6479303626517807  1.0000
  O   O1        1.0  0.9849297570022164  0.470490307750248  0.4591561121975547  1.0000
  O   O2        1.0  0.9848908148215686  0.45684446278407265  0.8367733165742313  1.0000
  O   O3        1.0  0.9848738600353207  0.6524686344676842  0.6410588356286864  1.0000
  O   O4        1.0  0.9849466544294257  0.27486614280864363  0.6548704910851562  1.0000
  O   O5        1.0  0.8572713451664831  0.646895191743851  0.6306414159311906  1.0000
  O   O6        1.0  0.8572882996613478  0.4512725803054023  0.8263558276365992  1.0000
  O   O7        1.0  0.857327242083777  0.46491837933574054  0.4487370618696642  1.0000
  O   O8        1.0  0.8573441394982511  0.26929420514794655  0.6444515381244145  1.0000
