data_image0
_chemical_formula_structural       NC9NC5H8C12SCH12C12ClH9Zn2C4O8
_chemical_formula_sum              "N2 C43 H29 S1 Cl1 Zn2 O8"
_cell_length_a       17.807436237873137
_cell_length_b       10.299776766347529
_cell_length_c       10.299771906710086
_cell_angle_alpha    85.54586025256013
_cell_angle_beta     89.40099058273775
_cell_angle_gamma    88.3716268350294

_space_group_name_H-M_alt    "P 1"
_space_group_IT_number       1

loop_
  _space_group_symop_operation_xyz
  'x, y, z'

loop_
  _atom_site_type_symbol
  _atom_site_label
  _atom_site_symmetry_multiplicity
  _atom_site_fract_x
  _atom_site_fract_y
  _atom_site_fract_z
  _atom_site_occupancy
  N   N1        1.0  0.7070187501448202  0.3881694435256582  0.5571589542960211  1.0000
  C   C1        1.0  0.64643673591001  0.35298300659564363  0.546134248908035  1.0000
  C   C2        1.0  0.5710793687255286  0.30921495399278  0.53242071245636  1.0000
  C   C3        1.0  0.5529914474554976  0.23783050010997853  0.4274161945027173  1.0000
  C   C4        1.0  0.47982334516588393  0.19522362182072817  0.41401860352432296  1.0000
  C   C5        1.0  0.4236945128152894  0.2236236781969958  0.5055930704768001  1.0000
  C   C6        1.0  0.3459356677843232  0.17845843233998493  0.4914369778372931  1.0000
  C   C7        1.0  0.2837465313408309  0.26020686235321433  0.5173777207571784  1.0000
  C   C8        1.0  0.21043616321715491  0.2173969425700999  0.5039938064236174  1.0000
  C   C9        1.0  0.1471964705502441  0.3018366118135294  0.5302985120619812  1.0000
  N   N2        1.0  0.0963647469575297  0.3697202636952117  0.5514467687779545  1.0000
  C   C10       1.0  0.1987314322889241  0.09258062087185936  0.4646437936929104  1.0000
  C   C11       1.0  0.2600632007039944  0.010818341029602774  0.43869466076117947  1.0000
  C   C12       1.0  0.3332541913182593  0.053233779517946944  0.451876027799049  1.0000
  C   C13       1.0  0.4424737670772014  0.2955024336078136  0.610816829200175  1.0000
  C   C14       1.0  0.5156947616020781  0.337918963106695  0.6240587650594163  1.0000
  H   H1        1.0  0.5953838666750939  0.2153661050301856  0.35570287324098304  1.0000
  H   H2        1.0  0.4669130479095953  0.1415655114665526  0.33109688247104674  1.0000
  H   H3        1.0  0.2922285644471156  0.35766309945430863  0.5462569265588275  1.0000
  H   H4        1.0  0.1422717489543738  0.05854774025046594  0.45404815360215167  1.0000
  H   H5        1.0  0.2508825585771622  0.9141825485598037  0.40861506053899  1.0000
  H   H6        1.0  0.3799054747340107  0.9874944564152442  0.43282616625797554  1.0000
  H   H7        1.0  0.4007984490407118  0.31742740615774534  0.6838246382465794  1.0000
  H   H8        1.0  0.5291330843688228  0.39279795710736454  0.7059388851522099  1.0000
  C   C15       1.0  0.9017661726467471  0.9975762045256642  0.5543001969616135  1.0000
  C   C16       1.0  0.9062934234515403  0.9857610807879159  0.6907469903609027  1.0000
  C   C17       1.0  0.9085150867450632  0.8626390684066619  0.7598920863724703  1.0000
  C   C18       1.0  0.9061497715920602  0.7504801070217603  0.690764288148537  1.0000
  C   C19       1.0  0.9016245271759592  0.7603031883893276  0.5543167159349138  1.0000
  C   C20       1.0  0.8994576362486554  0.8842886877813977  0.4868484719233208  1.0000
  C   C21       1.0  0.9132961280719363  0.851204299065366  0.9042375198389725  1.0000
  C   C22       1.0  0.8703064647545018  0.7597598725172026  0.9789105464650985  1.0000
  C   C23       1.0  0.8748285467515214  0.7492318040785546  0.1147528296637238  1.0000
  C   C24       1.0  0.9221531494847789  0.8298779476572754  0.17773149511726616  1.0000
  C   C25       1.0  0.9653222236084668  0.9207396954576537  0.10442889431215208  1.0000
  C   C26       1.0  0.9609103016812991  0.9316124356901886  0.9685745799904706  1.0000
  S   S1        1.0  0.9280384484916214  0.8159045240824218  0.35203461836787353  1.0000
  C   C27       1.0  0.852547488803937  0.9355379282739048  0.37267077263402926  1.0000
  H   H9        1.0  0.9000706407201388  0.32953038444600846  0.502307341223083  1.0000
  H   H10       1.0  0.9070662876951785  0.07254047369775285  0.7436937186650772  1.0000
  H   H11       1.0  0.908881478495071  0.6553219283643356  0.7434861426407076  1.0000
  H   H12       1.0  0.8959655684035254  0.892635040744419  0.38158556497623897  1.0000
  H   H13       1.0  0.8998626969344988  0.436594234372519  0.5023294986076754  1.0000
  H   H14       1.0  0.8324834269240902  0.6976014398504221  0.9323515597262739  1.0000
  H   H15       1.0  0.8412452375370525  0.678745024624697  0.17096675321186283  1.0000
  H   H16       1.0  0.0023458385426762263  0.9829914326300917  0.152588536068875  1.0000
  H   H17       1.0  0.9954419336660688  0.0016849264382172713  0.9137597791404524  1.0000
  H   H18       1.0  0.8675823155601906  0.03116910433433051  0.3235727811783521  1.0000
  H   H19       1.0  0.8438520884934113  0.9465994235052331  0.4780770954570367  1.0000
  H   H20       1.0  0.7996792379818096  0.9025225599583121  0.3313245312095682  1.0000
  C   C28       1.0  0.9016595604830802  0.37904771212256927  0.17293970455412921  1.0000
  C   C29       1.0  0.9697891455562928  0.44470178498388435  0.1656137778466178  1.0000
  C   C30       1.0  0.004347615773774738  0.4778593417234096  0.044770794494530586  1.0000
  C   C31       1.0  0.9698616560247342  0.4444831886226297  0.9303429336948859  1.0000
  C   C32       1.0  0.9017311045429292  0.37883172142399024  0.9356772186684372  1.0000
  C   C33       1.0  0.8680119307492083  0.3464807847549085  0.05743803227796551  1.0000
  C   C34       1.0  0.07642353504454369  0.5473144567765442  0.03807431501669489  1.0000
  C   C35       1.0  0.08827797368017753  0.6497570354487188  0.11770444639160793  1.0000
  C   C36       1.0  0.1561513877348253  0.7150276314470254  0.11121369443702478  1.0000
  C   C37       1.0  0.21294048071607707  0.6788661404696537  0.025391835109325633  1.0000
  C   C38       1.0  0.20180309295165855  0.5772490442739542  0.9458799952144701  1.0000
  C   C39       1.0  0.13399705451617616  0.5117749354601722  0.9519941236747993  1.0000
  Cl  Cl1       1.0  0.2980528715265871  0.7608826391920653  0.017485162628975814  1.0000
  H   H21       1.0  0.8756789458077634  0.3540884674716378  0.5031804797948787  1.0000
  H   H22       1.0  0.9966634606652781  0.4686276563837519  0.2542007829579749  1.0000
  H   H23       1.0  0.9957458148857669  0.47139753320812794  0.836854149866979  1.0000
  H   H24       1.0  0.8154526351793688  0.2958328312448284  0.06232145174029968  1.0000
  H   H25       1.0  0.8757845564093009  0.3537688939958765  0.6102597396509086  1.0000
  H   H26       1.0  0.044720141699166716  0.6804739241407418  0.18371796781924998  1.0000
  H   H27       1.0  0.16444361762193838  0.7939080239806899  0.17272715451280285  1.0000
  H   H28       1.0  0.24570336927278968  0.5486630586316517  0.8795179152421415  1.0000
  H   H29       1.0  0.1269518760719186  0.43229517782957316  0.8906818927795759  1.0000
  Zn  Zn1       1.0  0.819375594643843  0.3828419413413937  0.5555180516594811  1.0000
  Zn  Zn2       1.0  0.9840078872292103  0.37503717669346504  0.5530983477926095  1.0000
  C   C40       1.0  0.9017168731996833  0.37369892900539226  0.7915033826248652  1.0000
  C   C41       1.0  0.9016684061604842  0.38418174238332625  0.31711311790596897  1.0000
  C   C42       1.0  0.9016469286613932  0.6161332086878293  0.5491384631376686  1.0000
  C   C43       1.0  0.9017382948175883  0.14174590504366735  0.5594781074236919  1.0000
  O   O1        1.0  0.9641484729507335  0.38293723659469436  0.364580767337612  1.0000
  O   O2        1.0  0.9641889072966859  0.36901881940068315  0.7421988600793479  1.0000
  O   O3        1.0  0.9641315841029774  0.5647876057891161  0.5464874852294588  1.0000
  O   O4        1.0  0.9642057399557324  0.18716846218728933  0.5602920456387595  1.0000
  O   O5        1.0  0.8391776857363985  0.5707106585123682  0.5483243546322263  1.0000
  O   O6        1.0  0.8392350086303708  0.3749434324459555  0.7440356602704836  1.0000
  O   O7        1.0  0.8391945741963119  0.3888618048239032  0.3664160061270605  1.0000
  O   O8        1.0  0.8392518412090981  0.19309302110026927  0.5621273817958448  1.0000
