data_image0
_chemical_formula_structural       NC12NC2H8C13OH12C12OCH12Zn2C4O8
_chemical_formula_sum              "N2 C44 H32 O10 Zn2"
_cell_length_a       17.80743265337812
_cell_length_b       10.299150109392551
_cell_length_c       10.299794127170987
_cell_angle_alpha    85.5569512017134
_cell_angle_beta     91.52773436804358
_cell_angle_gamma    89.41750150667457

_space_group_name_H-M_alt    "P 1"
_space_group_IT_number       1

loop_
  _space_group_symop_operation_xyz
  'x, y, z'

loop_
  _atom_site_type_symbol
  _atom_site_label
  _atom_site_symmetry_multiplicity
  _atom_site_fract_x
  _atom_site_fract_y
  _atom_site_fract_z
  _atom_site_occupancy
  N   N1        1.0  0.7072435106566258  0.40634626114974925  0.6009318533006791  1.0000
  C   C1        1.0  0.6564222743894861  0.4358851284218679  0.5322272616864718  1.0000
  C   C2        1.0  0.5931956415755608  0.47262933634704907  0.4467673979073037  1.0000
  C   C3        1.0  0.6049197838613768  0.5266132431707033  0.3201370167641382  1.0000
  C   C4        1.0  0.5436006424737132  0.5618545160963724  0.2370735041065708  1.0000
  C   C5        1.0  0.4704030458527967  0.5433751534763922  0.2799804213522985  1.0000
  C   C6        1.0  0.45770212464233156  0.4892725865814993  0.4070789561616981  1.0000
  C   C7        1.0  0.5198785824969202  0.45403456243683227  0.4901259570637664  1.0000
  C   C8        1.0  0.37993635931493114  0.4696799370356848  0.45284636994017746  1.0000
  C   C9        1.0  0.3611381111879563  0.49691023650960764  0.5798731194620423  1.0000
  C   C10       1.0  0.2879105584652323  0.47847246402876253  0.6228205825848301  1.0000
  C   C11       1.0  0.23253828489417883  0.4325503735016698  0.5395792989758466  1.0000
  C   C12       1.0  0.1571741519706423  0.41356018792211047  0.5839277912068221  1.0000
  N   N2        1.0  0.0965867260875952  0.3982933558739834  0.6195809280906586  1.0000
  C   C13       1.0  0.2506450411381539  0.4051513253196857  0.41309554267379056  1.0000
  C   C14       1.0  0.32381975032780497  0.42360380054400193  0.36989220385722765  1.0000
  H   H1        1.0  0.6613845899818549  0.5414269639173477  0.28569709166318646  1.0000
  H   H2        1.0  0.552796246535977  0.6039230547490171  0.13928611268381474  1.0000
  H   H3        1.0  0.42376177292411404  0.5729916563394817  0.2143835492023738  1.0000
  H   H4        1.0  0.5113816334924383  0.41058055656995607  0.587789392426215  1.0000
  H   H5        1.0  0.4028037493601401  0.5341142022168825  0.6454290905023572  1.0000
  H   H6        1.0  0.2744575456171912  0.5003520622389968  0.7208155751264771  1.0000
  H   H7        1.0  0.2082622584498288  0.36921488501556254  0.3479520590816245  1.0000
  H   H8        1.0  0.33674464570501755  0.40018862414722367  0.27220106106786734  1.0000
  C   C15       1.0  0.9019895116617591  0.020918677660144658  0.6104040531279904  1.0000
  C   C16       1.0  0.9005965809741986  0.009182392476156487  0.7471412666320931  1.0000
  C   C17       1.0  0.899824984921957  0.886098523123174  0.8162031247220047  1.0000
  C   C18       1.0  0.9004517601550659  0.7739299392716518  0.7467709529686084  1.0000
  C   C19       1.0  0.9018479176578773  0.7837107762106641  0.6101202887040631  1.0000
  C   C20       1.0  0.9026107006047552  0.9076659147730501  0.5427355136534451  1.0000
  C   C21       1.0  0.8983448779295652  0.8746647241173058  0.9607651613796999  1.0000
  C   C22       1.0  0.8521449817523279  0.7827594798918835  0.02657027847170923  1.0000
  C   C23       1.0  0.8507273129291654  0.7720822105541879  0.16260181830975984  1.0000
  C   C24       1.0  0.895976658535942  0.8521425887655725  0.23531099095965813  1.0000
  C   C25       1.0  0.94145776210484  0.9450165181195845  0.17011398432110403  1.0000
  C   C26       1.0  0.9428928698249663  0.9558692237133297  0.0340829910845295  1.0000
  C   C27       1.0  0.8928736464536348  0.8430560499253632  0.3812413750000335  1.0000
  O   O1        1.0  0.8367203321171219  0.9274043880372361  0.4187903622255441  1.0000
  H   H9        1.0  0.90413065365186  0.2503743969621677  0.352282776574095  1.0000
  H   H10       1.0  0.8990670563152487  0.0960012209903216  0.8000739486667541  1.0000
  H   H11       1.0  0.9008768751749966  0.6788123149852017  0.7996222057342866  1.0000
  H   H12       1.0  0.903685472854956  0.9159264195064564  0.4373326655709362  1.0000
  H   H13       1.0  0.9023343635331891  0.45999840698618955  0.5575572286145547  1.0000
  H   H14       1.0  0.8162204889857853  0.7204804672880781  0.9727434368884966  1.0000
  H   H15       1.0  0.8141787419979687  0.701521495154013  0.21122424865175093  1.0000
  H   H16       1.0  0.9759983859646958  0.008877315832573895  0.22462070907392573  1.0000
  H   H17       1.0  0.9794665583186853  0.02687506018716035  0.9862683670346708  1.0000
  H   H18       1.0  0.9481316227792002  0.8697526546711786  0.42405617050626776  1.0000
  H   H19       1.0  0.8806623320380427  0.741297050919461  0.4184671726310436  1.0000
  H   H20       1.0  0.8369921550567458  0.9177463823100132  0.5154252630998827  1.0000
  C   C28       1.0  0.9019440749778556  0.4022007407004071  0.2289119831651758  1.0000
  C   C29       1.0  0.8283368915791383  0.35459665792706496  0.22821078208534384  1.0000
  C   C30       1.0  0.7910188714419295  0.33057831746220523  0.1107075823850634  1.0000
  C   C31       1.0  0.8282857749118792  0.3548241996920125  0.9929033597784409  1.0000
  C   C32       1.0  0.9018933788622864  0.4024287812347751  0.991612318982928  1.0000
  C   C33       1.0  0.9383111204230568  0.4258475897277967  0.11011671376654575  1.0000
  C   C34       1.0  0.7131487932076891  0.2802087543753038  0.11102055391143417  1.0000
  C   C35       1.0  0.6593580557181978  0.32999221838445814  0.017278053463564147  1.0000
  C   C36       1.0  0.5861722921028655  0.2825720788993986  0.017841586381484698  1.0000
  C   C37       1.0  0.565713377235842  0.18505366363050646  0.11158389997823615  1.0000
  C   C38       1.0  0.6187632184474375  0.1338808170199508  0.2061540049128252  1.0000
  C   C39       1.0  0.6920509854254925  0.18193844285024996  0.20514374982544514  1.0000
  O   O2        1.0  0.6010983528437988  0.03566559375348266  0.3021653379995497  1.0000
  C   C40       1.0  0.5290976534642862  0.9778766064943624  0.31477533375907774  1.0000
  H   H21       1.0  0.9300015720341942  0.42028141542207886  0.5566372295342124  1.0000
  H   H22       1.0  0.7994780347606085  0.33776335677023095  0.31911183476651894  1.0000
  H   H23       1.0  0.8001277458141651  0.3348105412389686  0.9022305790485965  1.0000
  H   H24       1.0  0.9950962847456197  0.4625712916077538  0.10988928502966466  1.0000
  H   H25       1.0  0.9299258950160796  0.4206297768740601  0.6636622558720737  1.0000
  H   H26       1.0  0.6736311519186138  0.4067691387335157  0.9446150211549242  1.0000
  H   H27       1.0  0.5450902727605244  0.3218201846918911  0.9455219913831554  1.0000
  H   H28       1.0  0.5086463785914666  0.1501969695519323  0.10969200745659613  1.0000
  H   H29       1.0  0.7328021688739456  0.1409470232553014  0.27727436754192625  1.0000
  H   H30       1.0  0.5136222667547838  0.9297371538863997  0.22519114976642762  1.0000
  H   H31       1.0  0.5310419163253992  0.9033547396452096  0.39856740051868833  1.0000
  H   H32       1.0  0.48629541847987073  0.0530260441741055  0.332975254926251  1.0000
  Zn  Zn1       1.0  0.8195995558381304  0.4040189013053186  0.6063210612974619  1.0000
  Zn  Zn2       1.0  0.9842306796743394  0.40061012453297695  0.6142023165659265  1.0000
  C   C41       1.0  0.9019022243848018  0.3972115803176002  0.8474474823357439  1.0000
  C   C42       1.0  0.9019298085817472  0.40741904709278765  0.3730761084412164  1.0000
  C   C43       1.0  0.9018711585409972  0.6395254042516663  0.6049988052429731  1.0000
  C   C44       1.0  0.9019608185335102  0.16510366390848086  0.6155248526604331  1.0000
  O   O3        1.0  0.9644016752142193  0.40787107914872145  0.4244498032483226  1.0000
  O   O4        1.0  0.9643815716458486  0.3941713856483282  0.8020551044544264  1.0000
  O   O5        1.0  0.964355643279123  0.5898428807938634  0.6062760415156911  1.0000
  O   O6        1.0  0.964427547408245  0.2121995944282662  0.6202287661243793  1.0000
  O   O7        1.0  0.8394026319237022  0.592429432574689  0.6002946090426922  1.0000
  O   O8        1.0  0.8394285600019469  0.39675949784405473  0.796073602158665  1.0000
  O   O9        1.0  0.8394486637325166  0.41045914561685204  0.41846673964782366  1.0000
  O   O10       1.0  0.8394745359187196  0.21478765163597746  0.6142457998902424  1.0000
