data_image0
_chemical_formula_structural       NC8NC6H8C16H10C13NH9Zn2C4O8
_chemical_formula_sum              "N3 C47 H27 Zn2 O8"
_cell_length_a       17.457602349358154
_cell_length_b       10.29914801576943
_cell_length_c       10.298528502251457
_cell_angle_alpha    85.51780360307934
_cell_angle_beta     92.8736263554175
_cell_angle_gamma    91.70309287404056

_space_group_name_H-M_alt    "P 1"
_space_group_IT_number       1

loop_
  _space_group_symop_operation_xyz
  'x, y, z'

loop_
  _atom_site_type_symbol
  _atom_site_label
  _atom_site_symmetry_multiplicity
  _atom_site_fract_x
  _atom_site_fract_y
  _atom_site_fract_z
  _atom_site_occupancy
  N   N1        1.0  0.7226724121038052  0.45341683245891007  0.6257423769022825  1.0000
  C   C1        1.0  0.6615882041904377  0.4074912463471032  0.6151440550348286  1.0000
  C   C2        1.0  0.585596867058573  0.35036552889567285  0.6019692834505663  1.0000
  C   C3        1.0  0.5270718478557584  0.39050572254974547  0.6768599184776631  1.0000
  C   C4        1.0  0.4525188793275415  0.33549824305456677  0.6642987978285548  1.0000
  C   C5        1.0  0.3904031585692402  0.37788029576311355  0.7436108728232951  1.0000
  C   C6        1.0  0.3158607364475325  0.3963689608368679  0.6878328854397322  1.0000
  C   C7        1.0  0.2573356849649052  0.4363251771227581  0.7628315625902391  1.0000
  C   C8        1.0  0.1813552577191702  0.4554204893694307  0.7048375911943121  1.0000
  N   N2        1.0  0.12027990980268902  0.4707667401226199  0.6582105918597776  1.0000
  C   C9        1.0  0.27286091317640687  0.4580357202155856  0.8941167089440099  1.0000
  C   C10       1.0  0.3466186759163918  0.4399359452127236  0.9502821841336628  1.0000
  C   C11       1.0  0.4051321351717274  0.40015964527200376  0.8757412119081855  1.0000
  C   C12       1.0  0.4377795198082258  0.23967357267541423  0.5754142201346462  1.0000
  C   C13       1.0  0.49629284933673407  0.19981194881269237  0.5009235246359078  1.0000
  C   C14       1.0  0.5700610525638744  0.2549316292486956  0.5140346177829949  1.0000
  H   H1        1.0  0.5394247524634207  0.46568416089712916  0.7434682725519048  1.0000
  H   H2        1.0  0.3035165109452129  0.38143159128768445  0.5858017979765588  1.0000
  H   H3        1.0  0.22800268130891932  0.4889014164792822  0.9529472835707531  1.0000
  H   H4        1.0  0.35844942421148307  0.4564312334858336  0.0519393294644116  1.0000
  H   H5        1.0  0.4616142823089928  0.3851511032233117  0.9218595213212111  1.0000
  H   H6        1.0  0.3812886754230948  0.19433771724293125  0.564779536454795  1.0000
  H   H7        1.0  0.484453948754679  0.12575046906224263  0.4331162448273371  1.0000
  H   H8        1.0  0.6149191891275622  0.22319598937809482  0.4557155863914937  1.0000
  C   C15       1.0  0.9214251905114617  0.08068811594519687  0.6421378925799808  1.0000
  C   C16       1.0  0.9039116034902188  0.08956824510099715  0.5072171931118248  1.0000
  C   C17       1.0  0.8950882267679514  0.976943415044093  0.4386495144893867  1.0000
  C   C18       1.0  0.9040140301580942  0.8543210375013062  0.5068209166110234  1.0000
  C   C19       1.0  0.921534453389115  0.8434857355833312  0.6418269377382242  1.0000
  C   C20       1.0  0.930133528176677  0.9571810861442581  0.708654260479262  1.0000
  C   C21       1.0  0.8765611532196858  0.9873831346659034  0.2959197013943349  1.0000
  C   C22       1.0  0.9128619220761214  0.9080111194033917  0.21365570805718703  1.0000
  C   C23       1.0  0.8953980759967441  0.9179606305550904  0.07932171492608298  1.0000
  C   C24       1.0  0.8414541521683387  0.007175257409977931  0.025432593612484622  1.0000
  C   C25       1.0  0.805013526368539  0.08652192340307763  0.10640106602218236  1.0000
  C   C26       1.0  0.8224226709692706  0.07681128387075908  0.2407515414672745  1.0000
  C   C27       1.0  0.8235034191724889  0.017295823751401818  0.8871256079147827  1.0000
  C   C28       1.0  0.8084698737867428  0.025771701973683614  0.7712955028267419  1.0000
  C   C29       1.0  0.7908657696782613  0.035696840080554404  0.6356596328879593  1.0000
  C   C30       1.0  0.7758347473802428  0.04417144490697544  0.5198482438949301  1.0000
  H   H9        1.0  0.9281222098495667  0.4047453111829413  0.694045046761439  1.0000
  H   H10       1.0  0.8981253951288976  0.18438879309312006  0.4548281685795921  1.0000
  H   H11       1.0  0.8962475320407588  0.7671064221505245  0.45476482664892903  1.0000
  H   H12       1.0  0.9436399633623332  0.9496156256552823  0.8127227317142256  1.0000
  H   H13       1.0  0.9541282155780877  0.6157073148444165  0.8967831875024492  1.0000
  H   H14       1.0  0.9554798937151232  0.8394538791847428  0.25298999372073383  1.0000
  H   H15       1.0  0.9241033726770068  0.8563121778834328  0.017482935486711426  1.0000
  H   H16       1.0  0.7630058220429254  0.15567061224334156  0.06574655133959872  1.0000
  H   H17       1.0  0.7928230383945006  0.1380311782299486  0.30171440331684507  1.0000
  H   H18       1.0  0.762636299700919  0.05161286641111129  0.4181560837802243  1.0000
  C   C31       1.0  0.9214907499297513  0.4622138937975291  0.2605663658578665  1.0000
  C   C32       1.0  0.8417336436289389  0.4785972612694196  0.2515550580558268  1.0000
  C   C33       1.0  0.8013279693367719  0.4867589464302773  0.12984316857628175  1.0000
  C   C34       1.0  0.8417107034636088  0.47833137851630636  0.016293592255729905  1.0000
  C   C35       1.0  0.9214689033764529  0.46195993941186786  0.023398407436006075  1.0000
  C   C36       1.0  0.9608482094679912  0.4540032698681946  0.1459598707953942  1.0000
  C   C37       1.0  0.7170086652803757  0.5040737375763187  0.12132407781913379  1.0000
  C   C38       1.0  0.6831475474931422  0.5905346508888216  0.19943818309977424  1.0000
  C   C39       1.0  0.6037778663465846  0.6067860214562031  0.1912997107312695  1.0000
  C   C40       1.0  0.5572132173817318  0.5368898685227261  0.10517669784083994  1.0000
  C   C41       1.0  0.5903171526658699  0.4506322693282634  0.0271046699688271  1.0000
  C   C42       1.0  0.6696786307714494  0.4342861682291441  0.03500590183058705  1.0000
  C   C43       1.0  0.47550205498031367  0.5536713707642564  0.09691877564842577  1.0000
  N   N3        1.0  0.4098117903315218  0.5671626899612074  0.09027999802607578  1.0000
  H   H19       1.0  0.07213673280702837  0.4304445603050402  0.4849766772356745  1.0000
  H   H20       1.0  0.8107501538838825  0.4832536072186171  0.3395380819419507  1.0000
  H   H21       1.0  0.8110162808958584  0.48634000953880685  0.9220792329404963  1.0000
  H   H22       1.0  0.022318553664879337  0.44138100509007594  0.15217017891560558  1.0000
  H   H23       1.0  0.07225688529699736  0.43183972324407516  0.8294416848997122  1.0000
  H   H24       1.0  0.7181508706297481  0.646834944782682  0.2655765696851693  1.0000
  H   H25       1.0  0.5787764553250152  0.674091145836812  0.2519364810902911  1.0000
  H   H26       1.0  0.5547837680725966  0.3957591295827798  0.9603506621900384  1.0000
  H   H27       1.0  0.6939266002154832  0.36581788376394964  0.9748548602995992  1.0000
  Zn  Zn1       1.0  0.8374133464635773  0.4584201555145755  0.6351195032019676  1.0000
  Zn  Zn2       1.0  0.005538959362992202  0.46575276473315586  0.6488441037426447  1.0000
  C   C44       1.0  0.9214705777326694  0.45683374145553857  0.879208811326817  1.0000
  C   C45       1.0  0.9214835642514679  0.46734089759113306  0.4047550723041047  1.0000
  C   C46       1.0  0.9215100060076403  0.6993023098862978  0.6367095596272889  1.0000
  C   C47       1.0  0.9214440783814591  0.22487076618987567  0.6472543892037417  1.0000
  O   O1        1.0  0.9852839457618344  0.47183858762445197  0.45835453605644316  1.0000
  O   O2        1.0  0.9852736461214341  0.4579003524664078  0.8360256283264411  1.0000
  O   O3        1.0  0.9853046248212513  0.6536967499463093  0.6402056960931288  1.0000
  O   O4        1.0  0.9852529096962545  0.27604219696591636  0.654174366215992  1.0000
  O   O5        1.0  0.8576993387572952  0.6481307207809719  0.6297892360382551  1.0000
  O   O6        1.0  0.8576683602794958  0.45233588377072453  0.825609098381094  1.0000
  O   O7        1.0  0.8576786600091643  0.4662740741906921  0.4479364445401033  1.0000
  O   O8        1.0  0.8576476239363271  0.27047767420994684  0.6437563720830508  1.0000
