data_image0
_chemical_formula_structural       NC9NC5H8C12SCH12C12OCH12Zn2C4O8
_chemical_formula_sum              "N2 C44 H32 S1 O9 Zn2"
_cell_length_a       17.807436237873137
_cell_length_b       10.299776766347529
_cell_length_c       10.299794127170987
_cell_angle_alpha    85.57877721711455
_cell_angle_beta     89.38603407784058
_cell_angle_gamma    88.3716268350294

_space_group_name_H-M_alt    "P 1"
_space_group_IT_number       1

loop_
  _space_group_symop_operation_xyz
  'x, y, z'

loop_
  _atom_site_type_symbol
  _atom_site_label
  _atom_site_symmetry_multiplicity
  _atom_site_fract_x
  _atom_site_fract_y
  _atom_site_fract_z
  _atom_site_occupancy
  N   N1        1.0  0.7072500549317399  0.38732694026891634  0.5572230223930714  1.0000
  C   C1        1.0  0.6466698080899064  0.3521340657966503  0.5461988065475039  1.0000
  C   C2        1.0  0.5713146393503864  0.3083580055902069  0.5324858790334432  1.0000
  C   C3        1.0  0.5532435515685092  0.23691223750470014  0.42748602371375233  1.0000
  C   C4        1.0  0.48007759707399456  0.19429753609864475  0.4140890276436897  1.0000
  C   C5        1.0  0.4239340842340774  0.2227510646067672  0.5056594283119051  1.0000
  C   C6        1.0  0.3461775085951564  0.17757755272891673  0.4915039642613339  1.0000
  C   C7        1.0  0.2839842135383287  0.25934113005200254  0.5174435553051757  1.0000
  C   C8        1.0  0.2106759910172208  0.2165233951381451  0.5040602352726469  1.0000
  C   C9        1.0  0.1474320813893698  0.30097842421641796  0.5303637728735204  1.0000
  N   N2        1.0  0.0965969674765449  0.36887442498102896  0.5515110905196161  1.0000
  C   C10       1.0  0.1989775683696817  0.09168409619374329  0.46471196984490293  1.0000
  C   C11       1.0  0.2603134967431074  0.009906664142537602  0.4387639891617665  1.0000
  C   C12       1.0  0.3335023742255738  0.052329799490276274  0.45194477089254015  1.0000
  C   C13       1.0  0.4426964698609012  0.29469126223928677  0.6108785146661333  1.0000
  C   C14       1.0  0.515915341544068  0.3371155239648891  0.6241198625287727  1.0000
  H   H1        1.0  0.5956474672967079  0.2144059676065444  0.3557758868194443  1.0000
  H   H2        1.0  0.4671805931677089  0.14059100612108066  0.3311709886570473  1.0000
  H   H3        1.0  0.2924616169603081  0.3568142302892079  0.5463214787509023  1.0000
  H   H4        1.0  0.1425195836437764  0.057645028569761836  0.4541168002442928  1.0000
  H   H5        1.0  0.2511376767382552  0.9132533076027225  0.4086857245979656  1.0000
  H   H6        1.0  0.3801567115634309  0.9865793527988483  0.43289575524393764  1.0000
  H   H7        1.0  0.4010094477938357  0.316658865484452  0.6838830818645121  1.0000
  H   H8        1.0  0.5293405379419812  0.3920423293776656  0.705996346806314  1.0000
  C   C15       1.0  0.901997935726878  0.9967320319843039  0.5543643919992878  1.0000
  C   C16       1.0  0.9065033124682967  0.9849965822121345  0.6908051265978326  1.0000
  C   C17       1.0  0.9087138909706381  0.8619149450120209  0.7599471522817747  1.0000
  C   C18       1.0  0.9063596578357731  0.7497156185464968  0.6908224236173734  1.0000
  C   C19       1.0  0.9018562876079002  0.7594590254937205  0.5543809102390775  1.0000
  C   C20       1.0  0.8997002126522178  0.8834051288515044  0.4869156620959607  1.0000
  C   C21       1.0  0.913471791987059  0.8505644618075474  0.9042861762153156  1.0000
  C   C22       1.0  0.8704701576846267  0.7591636383079046  0.978955887050883  1.0000
  C   C23       1.0  0.8749704625285335  0.7487148908494429  0.11479213829151169  1.0000
  C   C24       1.0  0.9222849690236526  0.8293978089092527  0.1777680072323945  1.0000
  C   C25       1.0  0.9654657944365833  0.9202167538796937  0.10446866136527666  1.0000
  C   C26       1.0  0.9610756515912627  0.9310101661068331  0.9686203795358235  1.0000
  S   S1        1.0  0.9281423251417737  0.8155261643553356  0.3520633907049785  1.0000
  C   C27       1.0  0.8526480572301657  0.9351716184030572  0.372698628640719  1.0000
  H   H9        1.0  0.9003107388808761  0.3286558522538623  0.502373844958127  1.0000
  H   H10       1.0  0.9072676887140748  0.07180689175770372  0.7437495038487587  1.0000
  H   H11       1.0  0.9090829127909026  0.6545882252165643  0.7435419370416214  1.0000
  H   H12       1.0  0.8962250197181075  0.8916900167334058  0.3816574292563686  1.0000
  H   H13       1.0  0.9001027915431407  0.43571971511850527  0.5023960013588402  1.0000
  H   H14       1.0  0.832654583820214  0.6969780189332919  0.9323989677232192  1.0000
  H   H15       1.0  0.8413781415454799  0.6782609358108627  0.17100356570944963  1.0000
  H   H16       1.0  0.0024816888005279036  0.9824966124139023  0.15262616463515033  1.0000
  H   H17       1.0  0.9956160710484073  0.001050649414838345  0.9138080126891843  1.0000
  H   H18       1.0  0.8676907549854357  0.03077412518087308  0.3236028173384906  1.0000
  H   H19       1.0  0.8439357590173289  0.9462946624588553  0.47810027098798  1.0000
  H   H20       1.0  0.799786434708218  0.9021321072041184  0.3313542231600136  1.0000
  C   C28       1.0  0.9019524602405316  0.37798085569111395  0.17302083357154574  1.0000
  C   C29       1.0  0.8283445857991512  0.33234730632221776  0.17690641188882505  1.0000
  C   C30       1.0  0.7910262152993134  0.3093279937739766  0.06172870260002816  1.0000
  C   C31       1.0  0.8282934686257687  0.33257619298019203  0.9416022744432935  1.0000
  C   C32       1.0  0.9019017636227643  0.37821022983945185  0.9357244281309325  1.0000
  C   C33       1.0  0.9383198470958635  0.40065411328121514  0.05195942611668336  1.0000
  C   C34       1.0  0.7131554060021444  0.261043086559378  0.06689408953030118  1.0000
  C   C35       1.0  0.6593641550003039  0.3122589371276574  0.9765358313373493  1.0000
  C   C36       1.0  0.5861777043076198  0.26679805724998684  0.981659849327162  1.0000
  C   C37       1.0  0.5657186058499771  0.1698349626035316  0.07664484380872238  1.0000
  C   C38       1.0  0.6187689537098088  0.11724964617140454  0.16787652716364265  1.0000
  C   C39       1.0  0.6920574086653298  0.163345230025584  0.1622996490857067  1.0000
  O   O1        1.0  0.6011039309987725  0.0195151704522194  0.2649554753575356  1.0000
  C   C40       1.0  0.5291025567882611  0.9636547237130442  0.28204785551954403  1.0000
  H   H21       1.0  0.9300102207142168  0.3953104107480194  0.4989976720927294  1.0000
  H   H22       1.0  0.7994854578622117  0.31628641843834804  0.2696064831454481  1.0000
  H   H23       1.0  0.8001351753548834  0.3133165143205232  0.8526834524868225  1.0000
  H   H24       1.0  0.9951055445318695  0.4358576230954845  0.04819346976168326  1.0000
  H   H25       1.0  0.929934542945642  0.3956607622439887  0.6060275659804719  1.0000
  H   H26       1.0  0.6736373784021625  0.3886476497561433  0.9030091871652588  1.0000
  H   H27       1.0  0.5450952926530417  0.30714001996117  0.9119253966728689  1.0000
  H   H28       1.0  0.5086510712399844  0.13650582038496806  0.07830982413873366  1.0000
  H   H29       1.0  0.7328089814739664  0.12126894849331249  0.23186515597266832  1.0000
  H   H30       1.0  0.5136270286295306  0.9159330072975939  0.19341344129212423  1.0000
  H   H31       1.0  0.5310468455291644  0.889087654619968  0.3656898154156025  1.0000
  H   H32       1.0  0.486299909616653  0.0399407254876174  0.3029542542026511  1.0000
  Zn  Zn1       1.0  0.8196071624872068  0.3819984799293379  0.5555821926193805  1.0000
  Zn  Zn2       1.0  0.9842398429802295  0.37419230236874323  0.5531625961973468  1.0000
  C   C41       1.0  0.9019106097539681  0.37299326406819655  0.7915570448621563  1.0000
  C   C42       1.0  0.9019381931843784  0.383199071642766  0.31718784502882724  1.0000
  C   C43       1.0  0.9018795192295873  0.6152860221085961  0.5492028873776269  1.0000
  C   C44       1.0  0.9019692278163463  0.1409047559860377  0.5595420725407725  1.0000
  O   O2        1.0  0.9644106503390616  0.38198228314797955  0.3646533867009356  1.0000
  O   O3        1.0  0.9643905479594072  0.36828436458331293  0.7422547116409199  1.0000
  O   O4        1.0  0.9643645996548393  0.5639388712517563  0.5465520271837769  1.0000
  O   O5        1.0  0.9644365424703973  0.18632778840418696  0.5603559746136242  1.0000
  O   O6        1.0  0.8394104068159852  0.5698629965591708  0.548388815021962  1.0000
  O   O7        1.0  0.8394363548319118  0.37421005017233333  0.744091430270547  1.0000
  O   O8        1.0  0.8394564573737717  0.3879079230092035  0.36648854399820796  1.0000
  O   O9        1.0  0.8394823494972854  0.1922534190060372  0.5621912292742097  1.0000
