data_image0
_chemical_formula_structural       NC8NC6H8C16H10C13NH13Zn2C4O8
_chemical_formula_sum              "N3 C47 H31 Zn2 O8"
_cell_length_a       17.457602349358154
_cell_length_b       10.29914801576943
_cell_length_c       10.299780419254978
_cell_angle_alpha    85.54946318164076
_cell_angle_beta     92.86230706440833
_cell_angle_gamma    91.70309287404056

_space_group_name_H-M_alt    "P 1"
_space_group_IT_number       1

loop_
  _space_group_symop_operation_xyz
  'x, y, z'

loop_
  _atom_site_type_symbol
  _atom_site_label
  _atom_site_symmetry_multiplicity
  _atom_site_fract_x
  _atom_site_fract_y
  _atom_site_fract_z
  _atom_site_occupancy
  N   N1        1.0  0.722821237215642  0.45266177412479225  0.6259808320547491  1.0000
  C   C1        1.0  0.6617381770466351  0.4067303649772467  0.6153843491616002  1.0000
  C   C2        1.0  0.5857482666755331  0.34959740891136915  0.6022118636058915  1.0000
  C   C3        1.0  0.5272151371977992  0.3897787497253149  0.6770895039386216  1.0000
  C   C4        1.0  0.4526635289750694  0.3347643687739079  0.6645305628400493  1.0000
  C   C5        1.0  0.3905392191223851  0.37718999791398744  0.743828875951561  1.0000
  C   C6        1.0  0.316002837473054  0.39564801688942164  0.6880605669196129  1.0000
  C   C7        1.0  0.2574696640150946  0.4356454396967666  0.7630462306287575  1.0000
  C   C8        1.0  0.1814955172215353  0.45470888831707446  0.7050623220922678  1.0000
  N   N2        1.0  0.12042521877196191  0.47002952079909655  0.6584434132700567  1.0000
  C   C9        1.0  0.2729806747128927  0.45742811478452317  0.8943085969600173  1.0000
  C   C10       1.0  0.3467323550175425  0.4393591987773975  0.9504643265628712  1.0000
  C   C11       1.0  0.4052538866810944  0.3995419437920291  0.8759362883598061  1.0000
  C   C12       1.0  0.4379337952034982  0.23889086254328595  0.5756614080080333  1.0000
  C   C13       1.0  0.4964551916955087  0.19898831125945682  0.5011836378079104  1.0000
  C   C14       1.0  0.5702219750579375  0.2541151953230649  0.5142924559756461  1.0000
  H   H1        1.0  0.53956082845945  0.46499378469913877  0.7436863004235437  1.0000
  H   H2        1.0  0.3036696614186306  0.3806545884022099  0.5860471834430199  1.0000
  H   H3        1.0  0.2281160717933543  0.4883261343294778  0.9531289635636018  1.0000
  H   H4        1.0  0.3585520943607687  0.4559103405335183  0.052103832791837834  1.0000
  H   H5        1.0  0.46173103943998367  0.3845587405250126  0.9220465955261514  1.0000
  H   H6        1.0  0.3814441025005273  0.1935491640967939  0.5650285696118289  1.0000
  H   H7        1.0  0.4846236342970252  0.12488957615682783  0.43338812362099066  1.0000
  H   H8        1.0  0.6150864272761453  0.2223475132283934  0.4559835438465658  1.0000
  C   C15       1.0  0.9215722400723295  0.07994206579887941  0.642373502854511  1.0000
  C   C16       1.0  0.904073264276704  0.08874806547788694  0.5074762142340898  1.0000
  C   C17       1.0  0.8952573130853324  0.9760855622829007  0.4389204331743688  1.0000
  C   C18       1.0  0.9041757338593092  0.8535006401520069  0.5070800064934478  1.0000
  C   C19       1.0  0.9216815366248109  0.8427395145891018  0.6420626019682742  1.0000
  C   C20       1.0  0.9302733743531684  0.9564715820844188  0.708878329125511  1.0000
  C   C21       1.0  0.876745696449977  0.986446861866799  0.2962153859301815  1.0000
  C   C22       1.0  0.9130553740785403  0.9070296483003278  0.21396566668018013  1.0000
  C   C23       1.0  0.8956060756874675  0.9169053523292833  0.07965498259410175  1.0000
  C   C24       1.0  0.8416679877768489  0.006090370885492025  0.025775211884366156  1.0000
  C   C25       1.0  0.8052185935032499  0.08548152338451764  0.10672963500002397  1.0000
  C   C26       1.0  0.8226131886307261  0.07584470003082022  0.24105679854015172  1.0000
  C   C27       1.0  0.8237322327241943  0.016134947222958607  0.8874922246079273  1.0000
  C   C28       1.0  0.8087112311497786  0.02454718491327701  0.771682217851454  1.0000
  C   C29       1.0  0.7911218157162393  0.03439780060725983  0.636069882853648  1.0000
  C   C30       1.0  0.7761033352026936  0.04280877518490156  0.5202785889446515  1.0000
  H   H9        1.0  0.9282636381296088  0.4040277803831467  0.6942716503343462  1.0000
  H   H10       1.0  0.8982927293803168  0.183539829369471  0.4550962800155085  1.0000
  H   H11       1.0  0.896414873151787  0.7662574236249198  0.4550329490756597  1.0000
  H   H12       1.0  0.9437685394526268  0.9489632999331904  0.8129287428560019  1.0000
  H   H13       1.0  0.9542476883485064  0.6151011744566064  0.8969746128427978  1.0000
  H   H14       1.0  0.9556690860144377  0.8384940195173427  0.2532931272310792  1.0000
  H   H15       1.0  0.9243180691930643  0.8552229235784662  0.017826933148387125  1.0000
  H   H16       1.0  0.7632152918548291  0.15460787541571874  0.06608217451043452  1.0000
  H   H17       1.0  0.7930069540880423  0.13709808921378763  0.30200908238144164  1.0000
  H   H18       1.0  0.762915900267158  0.05019432396785439  0.41860407400734  1.0000
  C   C31       1.0  0.9216791217464929  0.46125819681609737  0.26086818474936346  1.0000
  C   C32       1.0  0.9772397303237357  0.5627227033638702  0.2567013617344147  1.0000
  C   C33       1.0  0.005333588932782796  0.6142282821365703  0.13744121078537397  1.0000
  C   C34       1.0  0.9771343853578476  0.5628903490776864  0.021392512698483968  1.0000
  C   C35       1.0  0.9215746878476455  0.4614233627666351  0.02356785780204751  1.0000
  C   C36       1.0  0.8941560652609704  0.41117880717791344  0.14378504453513208  1.0000
  C   C37       1.0  0.06411452856227973  0.72156655525353  0.13412485860017132  1.0000
  C   C38       1.0  0.05894324023475139  0.8259272102546722  0.037832494246500925  1.0000
  C   C39       1.0  0.11429405782659097  0.9268699674889294  0.03479880913029976  1.0000
  C   C40       1.0  0.17544959502690172  0.9258378890392986  0.12846790918271833  1.0000
  C   C41       1.0  0.18135630974456807  0.8212304970764084  0.22376366221289867  1.0000
  C   C42       1.0  0.12602135159499528  0.7202637315197558  0.2269714232097062  1.0000
  C   C43       1.0  0.23604785040955978  0.03271149376137661  0.1229163421531152  1.0000
  N   N3        1.0  0.294856457369143  0.002625610363455433  0.03485361419569344  1.0000
  H   H19       1.0  0.9005391011323163  0.4225499638521637  0.5899153229033207  1.0000
  H   H20       1.0  0.9980419389703893  0.6031405766082063  0.3462530819309062  1.0000
  H   H21       1.0  0.9993803286531164  0.6010202171011776  0.9293857153608749  1.0000
  H   H22       1.0  0.851293841125408  0.33290252510599716  0.1462310159809055  1.0000
  H   H23       1.0  0.9003893421582456  0.4227821506471936  0.6969402565919571  1.0000
  H   H24       1.0  0.0116285477321727  0.8302074122798098  0.9656650963939479  1.0000
  H   H25       1.0  0.1093641186001646  0.006061453827100216  0.9595237441652027  1.0000
  H   H26       1.0  0.22895597975016035  0.817615057714006  0.29542752928933713  1.0000
  H   H27       1.0  0.1322882916744057  0.6401134024228381  0.30089018727400085  1.0000
  H   H28       1.0  0.20955228345096866  0.1265887000995738  0.0874327144897249  1.0000
  H   H29       1.0  0.26250703618860727  0.045178554043071806  0.22192855696104608  1.0000
  H   H30       1.0  0.3335825276374955  0.0820152535227443  0.028043330720218362  1.0000
  H   H31       1.0  0.3256241932185977  0.9236594014058337  0.07817180681635749  1.0000
  Zn  Zn1       1.0  0.8375611560803229  0.457670249254744  0.6353563312766262  1.0000
  Zn  Zn2       1.0  0.005685282675295111  0.46501039918028186  0.6490785503848413  1.0000
  C   C44       1.0  0.9215919537186535  0.4562179451786328  0.8794032860958023  1.0000
  C   C45       1.0  0.9216563211645685  0.4664644222073542  0.40503187220396497  1.0000
  C   C46       1.0  0.9216576434293613  0.6985532772511314  0.6369461118023334  1.0000
  C   C47       1.0  0.9215905738517624  0.22412752720017948  0.6474891116862298  1.0000
  O   O1        1.0  0.9854508981255891  0.4709915613928042  0.4586220356125492  1.0000
  O   O2        1.0  0.9853996986265307  0.4572608300542633  0.8362275960518513  1.0000
  O   O3        1.0  0.9854518836291724  0.6529496381933206  0.6404416416339149  1.0000
  O   O4        1.0  0.9853986557682386  0.27530276001903053  0.6544078879744335  1.0000
  O   O5        1.0  0.8578477256148677  0.6473778859125752  0.6300269889974828  1.0000
  O   O6        1.0  0.8577955408418125  0.4516906382047725  0.825812873537072  1.0000
  O   O7        1.0  0.8578467405992491  0.4654213239472631  0.4482057517977347  1.0000
  O   O8        1.0  0.8577944982240955  0.2697325133047854  0.6439917015261198  1.0000
