data_image0
_chemical_formula_structural       NC10NC3NH7C12OCH12C13NH9Zn2C4O8
_chemical_formula_sum              "N4 C43 H28 O9 Zn2"
_cell_length_a       19.210446455230148
_cell_length_b       10.29979075500242
_cell_length_c       10.298528502251457
_cell_angle_alpha    85.53676387981383
_cell_angle_beta     89.98780616926321
_cell_angle_gamma    89.92936594805748

_space_group_name_H-M_alt    "P 1"
_space_group_IT_number       1

loop_
  _space_group_symop_operation_xyz
  'x, y, z'

loop_
  _atom_site_type_symbol
  _atom_site_label
  _atom_site_symmetry_multiplicity
  _atom_site_fract_x
  _atom_site_fract_y
  _atom_site_fract_z
  _atom_site_occupancy
  N   N1        1.0  0.6552690413840766  0.4206690838348306  0.567088147723281  1.0000
  C   C1        1.0  0.595039944786485  0.42287647510772297  0.567319235832104  1.0000
  C   C2        1.0  0.5202348267247767  0.4256132361474043  0.5676055250812402  1.0000
  C   C3        1.0  0.4845950456306214  0.5418361534189315  0.5827145006401897  1.0000
  C   C4        1.0  0.4119295286151545  0.5419877064893166  0.5826618908516246  1.0000
  C   C5        1.0  0.3750678957049755  0.4263221587237134  0.5676919904123996  1.0000
  C   C6        1.0  0.2977461056024258  0.4249657623044838  0.5675414343252929  1.0000
  C   C7        1.0  0.2599664089400366  0.5285569779883432  0.5041678582509739  1.0000
  C   C8        1.0  0.1871884039158478  0.5271548124761056  0.5040588267605479  1.0000
  C   C9        1.0  0.1511886205555518  0.42241895438280563  0.5672723580844155  1.0000
  C   C10       1.0  0.0762594260682675  0.4211169460587909  0.5671355647791934  1.0000
  N   N2        1.0  0.0160218355173736  0.4200700871459029  0.5670256178436686  1.0000
  C   C11       1.0  0.1882446284976865  0.3189534377635568  0.6306209176544744  1.0000
  C   C12       1.0  0.2610245506229452  0.3200813225041632  0.6307802120212  1.0000
  C   C13       1.0  0.4133170831832371  0.31191936000050613  0.552871141583821  1.0000
  N   N3        1.0  0.484086419152743  0.3143642292641715  0.5530366267156543  1.0000
  H   H1        1.0  0.5126736141518676  0.6312637537531844  0.5947608103889865  1.0000
  H   H2        1.0  0.3846381290141253  0.6319966611275589  0.596103069103662  1.0000
  H   H3        1.0  0.2866734023791274  0.6098270619093142  0.4531678279494693  1.0000
  H   H4        1.0  0.1590219093554405  0.60759673029648  0.4543893835607493  1.0000
  H   H5        1.0  0.1608980327427295  0.23754817703367892  0.680190902687805  1.0000
  H   H6        1.0  0.2885461398321154  0.23975807290341233  0.6818875502629398  1.0000
  H   H7        1.0  0.3870745050554727  0.22104751751646323  0.5393837452049031  1.0000
  C   C14       1.0  0.8357113180611305  0.03900172277501057  0.5670958285388554  1.0000
  C   C15       1.0  0.8155580975363084  0.027823336035547985  0.698554104394461  1.0000
  C   C16       1.0  0.8052910690046996  0.905022980429523  0.7651318665990283  1.0000
  C   C17       1.0  0.8154330408952044  0.7925412733538005  0.6984883326170999  1.0000
  C   C18       1.0  0.8355862305437902  0.8017274457007243  0.5670291241335081  1.0000
  C   C19       1.0  0.8456141429462452  0.9253987447911423  0.5020696258353639  1.0000
  C   C20       1.0  0.7839743441332372  0.8942509764398052  0.9042085968778546  1.0000
  C   C21       1.0  0.733182837548897  0.8034533895129501  0.9492886870762192  1.0000
  C   C22       1.0  0.7131827900653858  0.7935886820508565  0.08004782541068  1.0000
  C   C23       1.0  0.7435238879434356  0.8738531808612039  0.16740184377426437  1.0000
  C   C24       1.0  0.7945006609423647  0.9652588932852733  0.12419366520754604  1.0000
  C   C25       1.0  0.8142849257992602  0.9747629548449185  0.9929077976088656  1.0000
  O   O1        1.0  0.8266744679243085  0.047876183023952024  0.2080671819935711  1.0000
  C   C26       1.0  0.8117473557355986  0.04883083421887546  0.34342307994455556  1.0000
  H   H8        1.0  0.8434210213368668  0.3707125872179864  0.5170258718882434  1.0000
  H   H9        1.0  0.8068761203833443  0.11484628834087296  0.748990782524503  1.0000
  H   H10       1.0  0.8084923558344443  0.6976345383103904  0.7498639414929993  1.0000
  H   H11       1.0  0.8611620368329441  0.9332540005134538  0.4006551200082289  1.0000
  H   H12       1.0  0.8432308799279202  0.4777763957388981  0.5169215388765311  1.0000
  H   H13       1.0  0.7082869700754941  0.7412891011656403  0.8830750560721674  1.0000
  H   H14       1.0  0.6738683251677821  0.7236720118798298  0.11373772020508266  1.0000
  H   H15       1.0  0.7270249432818289  0.864095504322556  0.2680840912755459  1.0000
  H   H16       1.0  0.8541610000729561  0.04425194784702291  0.9607308554198266  1.0000
  H   H17       1.0  0.8237705345183043  0.95226393389775  0.3940500122316023  1.0000
  H   H18       1.0  0.8445943013825059  0.12340039130517977  0.38563706771226214  1.0000
  H   H19       1.0  0.7561779947542576  0.07382865595767396  0.3578700330861154  1.0000
  C   C27       1.0  0.8356586379362172  0.4204910560728419  0.18564561201560448  1.0000
  C   C28       1.0  0.7632884719723837  0.4404730839068045  0.1831663243832531  1.0000
  C   C29       1.0  0.7266251293843795  0.4504578952211702  0.06476356972495045  1.0000
  C   C30       1.0  0.7632677360297367  0.44020825996889723  0.9479066475142046  1.0000
  C   C31       1.0  0.8356388907446612  0.4202381100917094  0.948479356994226  1.0000
  C   C32       1.0  0.8713709269691372  0.41050462489208983  0.06781574203929464  1.0000
  C   C33       1.0  0.6501153087886498  0.47157719472270365  0.06315013626614308  1.0000
  C   C34       1.0  0.619366965069665  0.5595589521142352  0.1440638277418509  1.0000
  C   C35       1.0  0.5473483571422815  0.5793915069250919  0.14242562844222073  1.0000
  C   C36       1.0  0.5051197914648402  0.5116033365343868  0.06008982671144758  1.0000
  C   C37       1.0  0.535181067332363  0.4238590533294764  0.9792802409299615  1.0000
  C   C38       1.0  0.607192260312594  0.4039321465722103  0.9806818395308774  1.0000
  C   C39       1.0  0.43097655104478777  0.532071666918579  0.05852395867374649  1.0000
  N   N4        1.0  0.3713703853150682  0.5485269473223744  0.05726514137608918  1.0000
  H   H20       1.0  0.9723523397948486  0.3819246109185157  0.39771790773633975  1.0000
  H   H21       1.0  0.73517511195948  0.4465275624953069  0.273686295201949  1.0000
  H   H22       1.0  0.7354156673976502  0.44960168141716683  0.8562066935921466  1.0000
  H   H23       1.0  0.9271480120114104  0.395108802567091  0.06899169746117328  1.0000
  H   H24       1.0  0.9724609465908545  0.3833142279322388  0.7421735464618391  1.0000
  H   H25       1.0  0.6511096864997461  0.6142743150474035  0.2073565605282761  1.0000
  H   H26       1.0  0.5246442487565609  0.6478192447385382  0.2051306287686414  1.0000
  H   H27       1.0  0.502956990100912  0.3705946453481994  0.9154157361014357  1.0000
  H   H28       1.0  0.6292130967952129  0.3343753598149646  0.9185238364959232  1.0000
  Zn  Zn1       1.0  0.7593745046161423  0.42049275979888723  0.567077603264015  1.0000
  Zn  Zn2       1.0  0.911916357805773  0.42023582513669  0.5670468003428972  1.0000
  C   C40       1.0  0.8356419169596775  0.41511228646806986  0.8042879218605048  1.0000
  C   C41       1.0  0.8356506109424514  0.4256179342346069  0.3298366087493205  1.0000
  C   C42       1.0  0.8356064084892776  0.6575577944722077  0.5618659486294815  1.0000
  C   C43       1.0  0.8356860676151194  0.18317086599688914  0.5722586513745547  1.0000
  O   O2        1.0  0.8935367562462724  0.42723539028916657  0.3782167354012933  1.0000
  O   O3        1.0  0.8935315088189468  0.41329884335411626  0.7558840426966944  1.0000
  O   O4        1.0  0.8935020548758398  0.6090766580760374  0.5601265841765335  1.0000
  O   O5        1.0  0.8935661581381755  0.2314575849774041  0.5739740965442368  1.0000
  O   O6        1.0  0.7777246522286917  0.6092710000472688  0.5601503070663545  1.0000
  O   O7        1.0  0.7777541059144826  0.4134947456480227  0.7559076961959839  1.0000
  O   O8        1.0  0.7777593534359555  0.4274312478448943  0.37823882730743175  1.0000
  O   O9        1.0  0.7777887553240145  0.23165343321206744  0.5739962858312724  1.0000
