data_image0
_chemical_formula_structural       NC12NC2H8C12OCH12C13F3H9Zn2C4O8
_chemical_formula_sum              "N2 C44 H29 O9 F3 Zn2"
_cell_length_a       17.80743265337812
_cell_length_b       10.29979075500242
_cell_length_c       10.2985328690268
_cell_angle_alpha    85.57397699723032
_cell_angle_beta     91.53993439614001
_cell_angle_gamma    89.41792083348325

_space_group_name_H-M_alt    "P 1"
_space_group_IT_number       1

loop_
  _space_group_symop_operation_xyz
  'x, y, z'

loop_
  _atom_site_type_symbol
  _atom_site_label
  _atom_site_symmetry_multiplicity
  _atom_site_fract_x
  _atom_site_fract_y
  _atom_site_fract_z
  _atom_site_occupancy
  N   N1        1.0  0.7070835026737721  0.4062010378162906  0.6011430902605512  1.0000
  C   C1        1.0  0.6562540668964892  0.4357360816986724  0.5324379558519097  1.0000
  C   C2        1.0  0.5930172349376869  0.4724755336764399  0.4469774173398642  1.0000
  C   C3        1.0  0.6047262606170534  0.5264524320258812  0.3203459088291134  1.0000
  C   C4        1.0  0.5433972019865502  0.5616891219216877  0.23728160982802016  1.0000
  C   C5        1.0  0.4702047257906591  0.5432121497332012  0.28018885723067943  1.0000
  C   C6        1.0  0.45751897777294587  0.48911661044986987  0.4072885459249522  1.0000
  C   C7        1.0  0.5197053508664771  0.45388316873846657  0.4903363319766674  1.0000
  C   C8        1.0  0.3797586752632738  0.46952650076542635  0.45305634465152567  1.0000
  C   C9        1.0  0.3609762951473753  0.49675701874774414  0.5801067026964193  1.0000
  C   C10       1.0  0.2877538681992346  0.47832163401448513  0.6230545125981697  1.0000
  C   C11       1.0  0.23237095332206972  0.4324017504660034  0.5397900032176262  1.0000
  C   C12       1.0  0.15701211381023894  0.4134140264203432  0.5841388670910108  1.0000
  N   N2        1.0  0.0964289434658001  0.398149173278582  0.6197923027417032  1.0000
  C   C13       1.0  0.25046190691798764  0.40500250857704234  0.4132826605538602  1.0000
  C   C14       1.0  0.32363145897115414  0.4234525897918433  0.37007894661307983  1.0000
  H   H1        1.0  0.6611869565815935  0.5412642356476993  0.28590571346477045  1.0000
  H   H2        1.0  0.5525811358918427  0.6037522165755802  0.13949345297228377  1.0000
  H   H3        1.0  0.42355563647207845  0.5728248838154488  0.21459185731453267  1.0000
  H   H4        1.0  0.5112200447780398  0.4104347203988259  0.588000134414248  1.0000
  H   H5        1.0  0.40265032277428686  0.5339591594509943  0.6456812518010668  1.0000
  H   H6        1.0  0.27431310430466727  0.5002013277436872  0.7210679590195492  1.0000
  H   H7        1.0  0.2080707965033306  0.3690677952937762  0.3481210012221212  1.0000
  H   H8        1.0  0.3365441295027999  0.4000374523810608  0.27236896430688184  1.0000
  C   C15       1.0  0.9018273348337681  0.020805901486928624  0.6105100365559182  1.0000
  C   C16       1.0  0.8800879110838967  0.010129252416318346  0.740916836370012  1.0000
  C   C17       1.0  0.8690127604085899  0.8875842507504197  0.8069589440878768  1.0000
  C   C18       1.0  0.8799529371039806  0.7748497305733028  0.7408445811769073  1.0000
  C   C19       1.0  0.9016923274516147  0.7835341652834548  0.610436847177021  1.0000
  C   C20       1.0  0.9125095467856408  0.9069561015198823  0.5460005249559521  1.0000
  C   C21       1.0  0.8460182586109928  0.8773429700388344  0.9449234921809404  1.0000
  C   C22       1.0  0.7912049106921883  0.7876239734985155  0.9873669922183721  1.0000
  C   C23       1.0  0.7696307411508014  0.7782573851537586  0.11708263212017045  1.0000
  C   C24       1.0  0.8023840049498053  0.8579518047546741  0.20600630418453603  1.0000
  C   C25       1.0  0.8573974613577671  0.9482763152633968  0.16544423756061977  1.0000
  C   C26       1.0  0.878738701194504  0.9572863734459514  0.035190700757520066  1.0000
  O   O1        1.0  0.8921283976531689  0.030283402833634288  0.2509826309469052  1.0000
  C   C27       1.0  0.876029624225203  0.03163435658051128  0.38555794051428083  1.0000
  H   H9        1.0  0.910143865727238  0.35232496686818093  0.5608423163891756  1.0000
  H   H10       1.0  0.8707220764882739  0.0973643283213812  0.7909008304702321  1.0000
  H   H11       1.0  0.8724664858512584  0.6801197554411442  0.7918577801978135  1.0000
  H   H12       1.0  0.9292811719040708  0.9144242767613956  0.4453972162572446  1.0000
  H   H13       1.0  0.9099386452107752  0.45939263577470196  0.5607281259207304  1.0000
  H   H14       1.0  0.7643302434564742  0.7259310025373661  0.9198651528240771  1.0000
  H   H15       1.0  0.7272031237493463  0.7091748011003046  0.14873176707593105  1.0000
  H   H16       1.0  0.7845858884813927  0.8486003809336361  0.30582805931189005  1.0000
  H   H17       1.0  0.9217725680338853  0.02593066071943828  0.005083577343041434  1.0000
  H   H18       1.0  0.8890100178743907  0.934851952954073  0.4368061247346522  1.0000
  H   H19       1.0  0.9114835310281537  0.10555274478716292  0.4294736714320725  1.0000
  H   H20       1.0  0.8160571487765982  0.057789577036912565  0.3971219187242665  1.0000
  C   C28       1.0  0.9017382488537435  0.40204854932328793  0.22907495967673674  1.0000
  C   C29       1.0  0.9770774041274493  0.35959928222376947  0.2349002990365312  1.0000
  C   C30       1.0  0.015252297459104724  0.33820858709686785  0.12068117535661305  1.0000
  C   C31       1.0  0.9771217105264343  0.3598539818138602  0.9996017223925753  1.0000
  C   C32       1.0  0.9017813866724883  0.4022915682885302  0.9918719788584123  1.0000
  C   C33       1.0  0.8645707927909725  0.42311267241033224  0.10712903665079487  1.0000
  C   C34       1.0  0.09490372315943851  0.2933417763485038  0.12777438317317857  1.0000
  C   C35       1.0  0.14676831364337062  0.34686945452338347  0.03871219798855008  1.0000
  C   C36       1.0  0.22173096564994688  0.30474589120097106  0.04540933389200097  1.0000
  C   C37       1.0  0.24619341430926034  0.20684426527551514  0.14006107631123177  1.0000
  C   C38       1.0  0.1947633739426331  0.15512663902387147  0.23072124382546844  1.0000
  C   C39       1.0  0.1198056064402504  0.1972831561856634  0.2241352599749642  1.0000
  C   C40       1.0  0.3276532953359903  0.1648732345258357  0.15024995417674258  1.0000
  F   F1        1.0  0.3661671706140508  0.2433910310398022  0.23157247063916153  1.0000
  F   F2        1.0  0.3596457584130006  0.17538474344734856  0.028924168279766294  1.0000
  F   F3        1.0  0.3346334236754984  0.03660823001029967  0.20048158397507354  1.0000
  H   H21       1.0  0.7595183120451405  0.48307744203829595  0.42533594357470594  1.0000
  H   H22       1.0  0.006500269731548158  0.3448313117141475  0.32838986062323894  1.0000
  H   H23       1.0  0.005977059866437262  0.3418757804482673  0.9113546998113597  1.0000
  H   H24       1.0  0.8065051719100909  0.4558239178172918  0.10190619704167458  1.0000
  H   H25       1.0  0.7592779670982233  0.48174279374141404  0.769990277008691  1.0000
  H   H26       1.0  0.1296352000957699  0.42298775813568623  0.9651556328684041  1.0000
  H   H27       1.0  0.2606719624671756  0.34916669973606207  0.976785323223166  1.0000
  H   H28       1.0  0.21249659875086802  0.08188744995267672  0.3067491788617638  1.0000
  H   H29       1.0  0.08113502943123163  0.15381077853962166  0.2937918170493894  1.0000
  Zn  Zn1       1.0  0.8194401909379133  0.40387397874366937  0.6065323379832444  1.0000
  Zn  Zn2       1.0  0.9840722551823229  0.4004656422606234  0.6144136499078479  1.0000
  C   C41       1.0  0.9017724745876842  0.3970719688108617  0.8476874169902775  1.0000
  C   C42       1.0  0.9017417690266891  0.4072692536356559  0.37325878428369785  1.0000
  C   C43       1.0  0.9017136684066228  0.6393607434176283  0.605274960182461  1.0000
  C   C44       1.0  0.90180051931048  0.16497891991048075  0.6156713077958043  1.0000
  O   O2        1.0  0.9642199618254672  0.4077222580172495  0.424639110302212  1.0000
  O   O3        1.0  0.964246209376052  0.3940311360599955  0.8022884505803043  1.0000
  O   O4        1.0  0.9641978804975349  0.5896824035812083  0.6065386361505738  1.0000
  O   O5        1.0  0.9642682345190606  0.21207100091827558  0.6203888246594704  1.0000
  O   O6        1.0  0.8392441554203312  0.5922686212505273  0.6005571605352849  1.0000
  O   O7        1.0  0.8392924840152746  0.39661891401223226  0.7963069055643885  1.0000
  O   O8        1.0  0.8392662364343525  0.41030999021501735  0.4186560037711937  1.0000
  O   O9        1.0  0.8393145091320254  0.2146587238583142  0.6144058155045875  1.0000
