data_image0
_chemical_formula_structural       NC9NC5H8C12BrH9C12OCH12Zn2C4O8
_chemical_formula_sum              "N2 C43 H29 Br1 O9 Zn2"
_cell_length_a       17.807436237873137
_cell_length_b       10.299144633409057
_cell_length_c       10.299794127170987
_cell_angle_alpha    85.56673362329126
_cell_angle_beta     89.38603407784058
_cell_angle_gamma    88.36447201994044

_space_group_name_H-M_alt    "P 1"
_space_group_IT_number       1

loop_
  _space_group_symop_operation_xyz
  'x, y, z'

loop_
  _atom_site_type_symbol
  _atom_site_label
  _atom_site_symmetry_multiplicity
  _atom_site_fract_x
  _atom_site_fract_y
  _atom_site_fract_z
  _atom_site_occupancy
  N   N1        1.0  0.7071512450715642  0.38743942281481347  0.5569319943674362  1.0000
  C   C1        1.0  0.6465735047787675  0.3522436949530523  0.5459151611455868  1.0000
  C   C2        1.0  0.5712214539102138  0.3084640854443079  0.5322114168024152  1.0000
  C   C3        1.0  0.5531554547243626  0.23701252463492684  0.4272265490968352  1.0000
  C   C4        1.0  0.4799925353851274  0.19439436808793253  0.4138384925723497  1.0000
  C   C5        1.0  0.4238469959939398  0.22285020356871899  0.5054029243705149  1.0000
  C   C6        1.0  0.3460936377569612  0.1776730290851225  0.4912569366427848  1.0000
  C   C7        1.0  0.2838945192367462  0.25944323568575767  0.5171793756428031  1.0000
  C   C8        1.0  0.2105893463316136  0.21662202916928597  0.5038050377474277  1.0000
  C   C9        1.0  0.1473394215465763  0.3010839057442871  0.5300908587022435  1.0000
  N   N2        1.0  0.0964994718635035  0.36898541142255636  0.5512239333905491  1.0000
  C   C10       1.0  0.1988998151380751  0.09177260842751567  0.4644829606201044  1.0000
  C   C11       1.0  0.260241567961666  0.009988545975438301  0.4385521348871826  1.0000
  C   C12       1.0  0.3334274239327998  0.05241512093220524  0.4517240172583581  1.0000
  C   C13       1.0  0.4426042578098848  0.294796234012775  0.6106069193911337  1.0000
  C   C14       1.0  0.5158201079014948  0.33722393543873075  0.6238393676578877  1.0000
  H   H1        1.0  0.5955609734210592  0.21450442995959507  0.35552113347990066  1.0000
  H   H2        1.0  0.46709935662961455  0.14068348365933936  0.33093171993174986  1.0000
  H   H3        1.0  0.2923649803128908  0.3569242389068614  0.5460368515623621  1.0000
  H   H4        1.0  0.1424442547833939  0.05773078096309914  0.45389493160211924  1.0000
  H   H5        1.0  0.2510726319178817  0.9133273529154073  0.4084941458869191  1.0000
  H   H6        1.0  0.3800864442276842  0.9866593432856696  0.4326887944815947  1.0000
  H   H7        1.0  0.4009156711398824  0.31676561836077055  0.6836068783115246  1.0000
  H   H8        1.0  0.5292413922367175  0.3921551942407775  0.7057043296047731  1.0000
  C   C15       1.0  0.9019269452848602  0.9968128456362849  0.5541553014475682  1.0000
  C   C16       1.0  0.8698966941997871  0.007235550508458477  0.42966999078308366  1.0000
  C   C17       1.0  0.8535555592655968  0.8953883494296269  0.36647883442061757  1.0000
  C   C18       1.0  0.869676890850711  0.7719803288382955  0.4294519802903889  1.0000
  C   C19       1.0  0.9017309591686924  0.7596017176246492  0.5540117978658183  1.0000
  C   C20       1.0  0.9176577492820357  0.8725391318806103  0.6155977623507123  1.0000
  C   C21       1.0  0.8196725869163763  0.9074594345622663  0.23478749313473268  1.0000
  C   C22       1.0  0.8448230853772275  0.0015481293104164795  0.13895580067946134  1.0000
  C   C23       1.0  0.8128657883856634  0.012705663600408368  0.015055959298898136  1.0000
  C   C24       1.0  0.7554972755302463  0.930325494001342  0.9853636219560369  1.0000
  C   C25       1.0  0.7300555357588652  0.8365699949581424  0.0797590917610509  1.0000
  C   C26       1.0  0.7618819169699763  0.8250013647607274  0.20376112654914458  1.0000
  Br  Br1       1.0  0.7119336702526143  0.9458466405146289  0.8160469398090551  1.0000
  H   H9        1.0  0.9142783848960843  0.32027973947436705  0.6020136904825291  1.0000
  H   H10       1.0  0.8566325263028873  0.1025705502706864  0.38230566642788544  1.0000
  H   H11       1.0  0.8581428796951099  0.6854445921631626  0.3804582771335865  1.0000
  H   H12       1.0  0.9423658368906322  0.8637840985760452  0.7116146062709461  1.0000
  H   H13       1.0  0.962663557662703  0.5289507456732202  0.7887715518701517  1.0000
  H   H14       1.0  0.8898360950304932  0.06530301988575582  0.1592970237756639  1.0000
  H   H15       1.0  0.8328713397755326  0.08520637313907509  0.9421079368600407  1.0000
  H   H16       1.0  0.6854926301655853  0.7728192207876092  0.057262765821297856  1.0000
  H   H17       1.0  0.7406547332105571  0.7527726469866899  0.2758672399212101  1.0000
  C   C27       1.0  0.9018543160383802  0.37809258046942484  0.17273176613102037  1.0000
  C   C28       1.0  0.8282496917642832  0.33245533119558  0.1766269172760091  1.0000
  C   C29       1.0  0.7909329607734812  0.30943415227337523  0.061454036888668684  1.0000
  C   C30       1.0  0.8281985582888611  0.33268423641136735  0.9413227318155295  1.0000
  C   C31       1.0  0.9018036030838529  0.37832197321510086  0.9354353125731949  1.0000
  C   C32       1.0  0.9382200880318169  0.40076767637583255  0.0516656023687585  1.0000
  C   C33       1.0  0.7130655904817782  0.2611453301854083  0.06662955283814176  1.0000
  C   C34       1.0  0.6592706917233154  0.31236533326388227  0.9762605507841431  1.0000
  C   C35       1.0  0.5860874788998414  0.26690076748106595  0.9813941053797337  1.0000
  C   C36       1.0  0.5656352864638049  0.1699298112012586  0.07639944040048197  1.0000
  C   C37       1.0  0.6186893796179959  0.11734023122454285  0.16764215489764722  1.0000
  C   C38       1.0  0.6919745514986605  0.1634395524447867  0.16205560706821287  1.0000
  O   O1        1.0  0.6010313178687918  0.019597831329497106  0.2647416054480356  1.0000
  C   C39       1.0  0.5290339222178915  0.9637328555027062  0.28184570379632956  1.0000
  H   H18       1.0  0.9299108422457493  0.3954235405826403  0.49870496932584585  1.0000
  H   H19       1.0  0.7993917077351278  0.3163931411171761  0.26933035772294756  1.0000
  H   H20       1.0  0.8000416367538662  0.3134229962036412  0.852407950079205  1.0000
  H   H21       1.0  0.9950032781613031  0.43597404044189636  0.04789226115900003  1.0000
  H   H22       1.0  0.929835139524021  0.3957739204846238  0.6057347897182201  1.0000
  H   H23       1.0  0.6735384744768346  0.3887602393833356  0.9027178820863471  1.0000
  H   H24       1.0  0.5450021939616998  0.30724600106268385  0.9116511899461077  1.0000
  H   H25       1.0  0.5085701256618791  0.13659796670202806  0.07807141238774018  1.0000
  H   H26       1.0  0.7327291211145919  0.12135985942591332  0.23162994055313368  1.0000
  H   H27       1.0  0.5135617929523774  0.9160072698766167  0.19322130044414432  1.0000
  H   H28       1.0  0.5309835218638574  0.8891597406149956  0.36550330608083015  1.0000
  H   H29       1.0  0.4862258417133393  0.04002504244059368  0.30273609950001257  1.0000
  Zn  Zn1       1.0  0.8195087321370123  0.3821105304510546  0.5552922823773387  1.0000
  Zn  Zn2       1.0  0.9841419686109585  0.3743037199764008  0.5528743235047371  1.0000
  C   C40       1.0  0.901812820784038  0.3731045844594896  0.7912690236991164  1.0000
  C   C41       1.0  0.9018396773242036  0.38331121950679536  0.3168976829313457  1.0000
  C   C42       1.0  0.9017644733947839  0.615416987260966  0.5488640389863753  1.0000
  C   C43       1.0  0.9018879689319833  0.14099725896270088  0.559302737998254  1.0000
  O   O2        1.0  0.9643122211424539  0.3820943323564838  0.3643634798565911  1.0000
  O   O3        1.0  0.9642930943723538  0.36839530318356095  0.741967678292418  1.0000
  O   O4        1.0  0.964253210928285  0.5640656732482863  0.546223950197233  1.0000
  O   O5        1.0  0.9643520484124413  0.18642397421737633  0.5601071114048202  1.0000
  O   O6        1.0  0.8392985961542857  0.5699902788755724  0.5480594952955549  1.0000
  O   O7        1.0  0.8393384791985855  0.3743214692189578  0.7438031538548717  1.0000
  O   O8        1.0  0.8393576061341477  0.38802045266037655  0.3661973940962835  1.0000
  O   O9        1.0  0.8393974333969729  0.1923500852611444  0.5619411230097677  1.0000
