data_image0
_chemical_formula_structural       NC12NC2H8C12NH11C12OCH12Zn2C4O8
_chemical_formula_sum              "N3 C43 H31 O9 Zn2"
_cell_length_a       17.80743265337812
_cell_length_b       10.299770795358612
_cell_length_c       10.299794127170987
_cell_angle_alpha    85.57261220462476
_cell_angle_beta     91.52773436804358
_cell_angle_gamma    89.45311437677636

_space_group_name_H-M_alt    "P 1"
_space_group_IT_number       1

loop_
  _space_group_symop_operation_xyz
  'x, y, z'

loop_
  _atom_site_type_symbol
  _atom_site_label
  _atom_site_symmetry_multiplicity
  _atom_site_fract_x
  _atom_site_fract_y
  _atom_site_fract_z
  _atom_site_occupancy
  N   N1        1.0  0.7077555956675383  0.40622108342667973  0.6013418083957374  1.0000
  C   C1        1.0  0.656945115223191  0.4357573214685371  0.5326458274697183  1.0000
  C   C2        1.0  0.5937318618725145  0.47249825882201724  0.44719667476197644  1.0000
  C   C3        1.0  0.6054756610168712  0.5264773605825619  0.3205820301257185  1.0000
  C   C4        1.0  0.5441693518371278  0.5617154967115363  0.23752879042851038  1.0000
  C   C5        1.0  0.47096502642909094  0.543237778924412  0.28043032087223385  1.0000
  C   C6        1.0  0.4582444051530558  0.4891400276544635  0.4075130845848791  1.0000
  C   C7        1.0  0.5204080319826848  0.45390514001731974  0.4905498134736197  1.0000
  C   C8        1.0  0.3804715056635833  0.4695491220342578  0.4532747870341294  1.0000
  C   C9        1.0  0.3616831727534996  0.49677699776163897  0.5803094742882  1.0000
  C   C10       1.0  0.2884489063876404  0.4783408664117452  0.6232515627326605  1.0000
  C   C11       1.0  0.23305991146219604  0.4324228633721299  0.5399968926657983  1.0000
  C   C12       1.0  0.1576888637484273  0.41343436809335654  0.5843398491880025  1.0000
  N   N2        1.0  0.0970958788390779  0.39816889493338326  0.619988535734282  1.0000
  C   C13       1.0  0.2511566910437554  0.4050262539568703  0.41350514944066963  1.0000
  C   C14       1.0  0.3243381192301695  0.42347708674155604  0.37030718958833764  1.0000
  H   H1        1.0  0.6619458611747638  0.5412897627721165  0.286146423278717  1.0000
  H   H2        1.0  0.553380274081457  0.6037802908781842  0.13975366213912288  1.0000
  H   H3        1.0  0.4243345375922147  0.5728516456469603  0.2148420820415573  1.0000
  H   H4        1.0  0.5118952603136975  0.41045500195573625  0.5882005818339235  1.0000
  H   H5        1.0  0.40336235779796625  0.5339776519745509  0.6458762904210209  1.0000
  H   H6        1.0  0.2750038604355178  0.5002185171369533  0.7212529332574629  1.0000
  H   H7        1.0  0.20876082302009463  0.3690930123257177  0.3483511902443024  1.0000
  H   H8        1.0  0.33725448856995316  0.40006399451035435  0.27260922118914666  1.0000
  C   C15       1.0  0.9023612530789569  0.02082780652901617  0.6107016546683137  1.0000
  C   C16       1.0  0.8805651984982333  0.030416304080419954  0.4782535050514716  1.0000
  C   C17       1.0  0.8695898754439577  0.9181372784948336  0.41110919018511694  1.0000
  C   C18       1.0  0.8807027090826021  0.7951318271371909  0.4781915412031881  1.0000
  C   C19       1.0  0.9024974041064289  0.7835520660475526  0.6106401762283868  1.0000
  C   C20       1.0  0.9132049908334492  0.8969571269257169  0.6761534305951087  1.0000
  C   C21       1.0  0.8465312436568218  0.9293347507487348  0.27098675107480763  1.0000
  C   C22       1.0  0.791831315450558  0.0216310158490578  0.22318195410865393  1.0000
  C   C23       1.0  0.7701607438237166  0.03204018492404481  0.09129919635094885  1.0000
  C   C24       1.0  0.8027799825860162  0.9505804204478056  0.005121552016449149  1.0000
  C   C25       1.0  0.8572996948468607  0.8584857096671054  0.05202720064547606  1.0000
  C   C26       1.0  0.8790304497095539  0.8478192615724094  0.18388286914408614  1.0000
  N   N3        1.0  0.7805817866954126  0.9613597038124568  0.8702291585562199  1.0000
  H   H9        1.0  0.910634607583675  0.3446270690500213  0.6611861413650679  1.0000
  H   H10       1.0  0.8730688792443813  0.1254619753393984  0.4265446385081251  1.0000
  H   H11       1.0  0.8713205352996912  0.708282522467768  0.42733241470681516  1.0000
  H   H12       1.0  0.9300190885926555  0.8887920110790791  0.7783312839239176  1.0000
  H   H13       1.0  0.9108348565046321  0.45168651975457197  0.6610961128244561  1.0000
  H   H14       1.0  0.7651028165546733  0.08461380799905904  0.2881019852194351  1.0000
  H   H15       1.0  0.7278076898894418  0.10338787514402648  0.05636074613108866  1.0000
  H   H16       1.0  0.8830991507489578  0.7951763798784244  0.9863734339166692  1.0000
  H   H17       1.0  0.9219595242163625  0.7769695187207816  0.21740943132935087  1.0000
  H   H18       1.0  0.8045780244156364  0.9010492178869784  0.8052418800116166  1.0000
  H   H19       1.0  0.7399872056972732  0.029730714525692647  0.8343518068077107  1.0000
  C   C27       1.0  0.9024546505035558  0.40207593196670044  0.22932072982581264  1.0000
  C   C28       1.0  0.8288301332960035  0.3544760863935805  0.2286056519811912  1.0000
  C   C29       1.0  0.7915033674946019  0.33045988378143454  0.11109545084654093  1.0000
  C   C30       1.0  0.8287790994822567  0.3547036079052228  0.9932982960035477  1.0000
  C   C31       1.0  0.902404037423113  0.402303952203368  0.992021132118218  1.0000
  C   C32       1.0  0.9388303063438471  0.4257206762075225  0.11053235357043478  1.0000
  C   C33       1.0  0.7136149484726226  0.2800948040478819  0.11139373946046405  1.0000
  C   C34       1.0  0.659842338357886  0.3298738368718841  0.017665751075009783  1.0000
  C   C35       1.0  0.5866393079119612  0.28245791821440625  0.01821546084828518  1.0000
  C   C36       1.0  0.566144884208937  0.18494818297938442  0.11192934746918648  1.0000
  C   C37       1.0  0.6191760921376498  0.13377989122178335  0.20648453533123368  1.0000
  C   C38       1.0  0.6924813580706404  0.18183323948236563  0.20548828921810847  1.0000
  O   O1        1.0  0.6014754639732054  0.035573410011491724  0.30246723832002087  1.0000
  C   C39       1.0  0.529453722212461  0.9777895665025581  0.31506038837773387  1.0000
  H   H20       1.0  0.9305187311750168  0.4201549973423977  0.557051246777869  1.0000
  H   H21       1.0  0.7999651470615223  0.3376442835550262  0.31950179769331655  1.0000
  H   H22       1.0  0.8006137829228483  0.33469173085144344  0.902619681218833  1.0000
  H   H23       1.0  0.9956288426629075  0.46244110934100435  0.11031562992739308  1.0000
  H   H24       1.0  0.9304431810038124  0.42050332778701316  0.6640763746643721  1.0000
  H   H25       1.0  0.6741433909095796  0.40664392337045996  0.9450250995203491  1.0000
  H   H26       1.0  0.5455715797632174  0.3217025305653092  0.9459073068167969  1.0000
  H   H27       1.0  0.5090651933911895  0.15009459146645798  0.11002729409333245  1.0000
  H   H28       1.0  0.733217615542376  0.14084546849993318  0.27760695778537925  1.0000
  H   H29       1.0  0.5139608067528953  0.9296543987476464  0.22546217155802317  1.0000
  H   H30       1.0  0.5313708498423347  0.9032743327834309  0.39883073173973416  1.0000
  H   H31       1.0  0.4866788509731468  0.0529323151927128  0.3332822158817166  1.0000
  Zn  Zn1       1.0  0.8201107934004989  0.4038939307386329  0.6067303379585862  1.0000
  Zn  Zn2       1.0  0.9847406760178569  0.40048545737870556  0.6146105995561144  1.0000
  C   C40       1.0  0.9024109832353917  0.3970872156649523  0.8478547746378238  1.0000
  C   C41       1.0  0.9024422842202147  0.4072937738819242  0.37348637625731285  1.0000
  C   C42       1.0  0.9024681497711948  0.639379471445011  0.6054767329137873  1.0000
  C   C43       1.0  0.9023850612246089  0.16499995899041253  0.6158644846532677  1.0000
  O   O2        1.0  0.9649143154485951  0.4077457657028567  0.42486020283342163  1.0000
  O   O3        1.0  0.9648892234873303  0.39404729160090524  0.8024615105286055  1.0000
  O   O4        1.0  0.9649345438894854  0.5897013701877243  0.6067394865486304  1.0000
  O   O5        1.0  0.9648689388775361  0.21209169754018942  0.620582126753757  1.0000
  O   O6        1.0  0.8399824743607212  0.592287691741705  0.6007588080649662  1.0000
  O   O7        1.0  0.83993715423827  0.3966351734308955  0.7964807626770449  1.0000
  O   O8        1.0  0.8399622463450833  0.41033360180932155  0.418877893663794  1.0000
  O   O9        1.0  0.8399168697628298  0.2146795243870585  0.6145999149477923  1.0000
