data_image0
_chemical_formula_structural       NC10NC5H10C12NCOCH13C12NCOH11Zn2C4O8
_chemical_formula_sum              "N4 C46 H34 O10 Zn2"
_cell_length_a       19.4436361288709
_cell_length_b       10.299155265289647
_cell_length_c       10.299148425239203
_cell_angle_alpha    85.52041506248938
_cell_angle_beta     89.68967150439464
_cell_angle_gamma    89.39615277754326

_space_group_name_H-M_alt    "P 1"
_space_group_IT_number       1

loop_
  _space_group_symop_operation_xyz
  'x, y, z'

loop_
  _atom_site_type_symbol
  _atom_site_label
  _atom_site_symmetry_multiplicity
  _atom_site_fract_x
  _atom_site_fract_y
  _atom_site_fract_z
  _atom_site_occupancy
  N   N1        1.0  0.6475542895433318  0.41001468869078295  0.5616107197954583  1.0000
  C   C1        1.0  0.5887152363318143  0.4199087877469072  0.5759931341765456  1.0000
  C   C2        1.0  0.5153820599722653  0.432248023808562  0.5939835092850003  1.0000
  C   C3        1.0  0.47321204811125334  0.4003049174911659  0.4993112026260522  1.0000
  C   C4        1.0  0.39730482220692553  0.4107408172231948  0.5046368999633533  1.0000
  C   C5        1.0  0.3575622822908768  0.3859275518778811  0.611723945045084  1.0000
  C   C6        1.0  0.2814419415996209  0.38985215066272416  0.5987625519676543  1.0000
  C   C7        1.0  0.2408598274833914  0.4474620918960628  0.6925249055712548  1.0000
  C   C8        1.0  0.1691965055357644  0.4511063711907022  0.6819792461106631  1.0000
  C   C9        1.0  0.1371206010779366  0.39674449851194304  0.5779578865783475  1.0000
  C   C10       1.0  0.0633280340085888  0.40045011774641903  0.5672569171760649  1.0000
  N   N2        1.0  0.0040038151376864  0.4034292410758715  0.5586540472247075  1.0000
  C   C11       1.0  0.17697793968156714  0.3384271870562936  0.4845789848445379  1.0000
  C   C12       1.0  0.248657721599623  0.3347288292075401  0.4948728624381553  1.0000
  C   C13       1.0  0.385693104664591  0.3453859828487382  0.7428391699463222  1.0000
  C   C14       1.0  0.44434409490879556  0.38848299360355854  0.7900737327856717  1.0000
  C   C15       1.0  0.4885372195099966  0.4863925454800757  0.7156746887433982  1.0000
  H   H1        1.0  0.4953241824527888  0.37123928696084363  0.4090053643651157  1.0000
  H   H2        1.0  0.3726091119801603  0.43329244168181846  0.41146558143732714  1.0000
  H   H3        1.0  0.2647149854910028  0.4907081694583204  0.7733677720919085  1.0000
  H   H4        1.0  0.1388366058963824  0.49638103059225  0.754893514534692  1.0000
  H   H5        1.0  0.152650832462346  0.29537658280629375  0.40407057429867055  1.0000
  H   H6        1.0  0.2783524118544395  0.28721020202543346  0.4226555760993671  1.0000
  H   H7        1.0  0.354735786013304  0.2811260458802449  0.8071079801334049  1.0000
  H   H8        1.0  0.4594933118737911  0.3543551150621871  0.8880245741514583  1.0000
  H   H9        1.0  0.45841153595163253  0.5771284723883521  0.6903967516169964  1.0000
  H   H10       1.0  0.5318120655673021  0.5119429645654323  0.7787575892203751  1.0000
  C   C16       1.0  0.8258591450415046  0.025322952794645914  0.5602504569361912  1.0000
  C   C17       1.0  0.8141284946438324  0.03530761104986713  0.4254135729009263  1.0000
  C   C18       1.0  0.8081142114510689  0.9232336494857247  0.35693125289910443  1.0000
  C   C19       1.0  0.8139640822368022  0.8000510337708754  0.42510713130179  1.0000
  C   C20       1.0  0.8257055606174226  0.7881109006303866  0.5600255215303978  1.0000
  C   C21       1.0  0.8315838670314757  0.9012657943272167  0.626766544956493  1.0000
  C   C22       1.0  0.795705448837696  0.9347698659217657  0.2142901040141445  1.0000
  C   C23       1.0  0.8305974813484515  0.028277075468405855  0.13257765950028277  1.0000
  C   C24       1.0  0.8189256775547105  0.03900243340626508  0.9983427864859111  1.0000
  C   C25       1.0  0.7725561487811624  0.955544819992852  0.942973126201522  1.0000
  C   C26       1.0  0.7368239909931742  0.863869451679462  0.024624375264668652  1.0000
  C   C27       1.0  0.7485208503291457  0.8528876301881616  0.1588217024962406  1.0000
  N   N3        1.0  0.758671401489775  0.9661114969886887  0.8055180646464009  1.0000
  C   C28       1.0  0.808905219502806  0.0021693122434556233  0.7068771137990271  1.0000
  O   O1        1.0  0.8719987010462036  0.0035239628620613583  0.734214049176348  1.0000
  C   C29       1.0  0.7869820738068689  0.029090734194952006  0.5685098300139839  1.0000
  H   H11       1.0  0.8303926047181155  0.3489582214508504  0.6121086183496125  1.0000
  H   H12       1.0  0.8086938447768311  0.13047915423260203  0.3736455583233229  1.0000
  H   H13       1.0  0.8102713745189929  0.7133466274362077  0.3725058022254568  1.0000
  H   H14       1.0  0.8406342782900063  0.892849511101937  0.7307685866895179  1.0000
  H   H15       1.0  0.8482788516814485  0.5582836632942753  0.8145426822602937  1.0000
  H   H16       1.0  0.8673189981156515  0.0926268556997083  0.1723680605833806  1.0000
  H   H17       1.0  0.8453196287284425  0.11400038383864275  0.9385394501296651  1.0000
  H   H18       1.0  0.7000365858356348  0.8002253748319015  0.9839674269469034  1.0000
  H   H19       1.0  0.7199167209437337  0.7815464425232529  0.21947637449179513  1.0000
  H   H20       1.0  0.7102322745674704  0.938153454625838  0.7748443349511831  1.0000
  H   H21       1.0  0.737334249664138  0.0834558901050082  0.5644677047015003  1.0000
  H   H22       1.0  0.780623710854229  0.9356213026293656  0.523335485983448  1.0000
  H   H23       1.0  0.8261441176442654  0.0884863254806263  0.5127860110355442  1.0000
  C   C30       1.0  0.8258340419412942  0.4068718056750593  0.17874130914118735  1.0000
  C   C31       1.0  0.8956096123120177  0.4411442631011593  0.17418256850990543  1.0000
  C   C32       1.0  0.9308780788835361  0.4583089142860457  0.054740023895955  1.0000
  C   C33       1.0  0.8954646875833587  0.44080676467585267  0.9389267164917001  1.0000
  C   C34       1.0  0.8257306316156614  0.4065620160718122  0.9415346481771469  1.0000
  C   C35       1.0  0.7913244200777968  0.3897863334085334  0.061944305799693566  1.0000
  C   C36       1.0  0.004650703715392668  0.4945415624145335  0.05101043746892597  1.0000
  C   C37       1.0  0.05087907395112068  0.4363122480121997  0.9670459617260669  1.0000
  C   C38       1.0  0.12026576906998354  0.4705463359087627  0.9636857750873538  1.0000
  C   C39       1.0  0.14504901245238422  0.5623683348854946  0.04496182843952079  1.0000
  C   C40       1.0  0.09875201260146782  0.6224452709753507  0.12735792927101364  1.0000
  C   C41       1.0  0.029334213484153215  0.5883184342701224  0.13081518351551535  1.0000
  N   N4        1.0  0.21647143318065032  0.5972584789576074  0.037823267666442284  1.0000
  C   C42       1.0  0.25602629669798715  0.6332034791949708  0.14621439639441935  1.0000
  O   O2        1.0  0.23275703668285574  0.6194697766907951  0.2607717828232292  1.0000
  H   H24       1.0  0.6942456726154398  0.34141826475519044  0.3946978952076672  1.0000
  H   H25       1.0  0.9228955219960899  0.45283648272397925  0.26387902905145455  1.0000
  H   H26       1.0  0.9221475362964836  0.4557066294076779  0.8464679294993722  1.0000
  H   H27       1.0  0.7375376047243494  0.3633689523267536  0.06467095863753536  1.0000
  H   H28       1.0  0.7989110654419397  0.3933542285047531  0.6150645848696885  1.0000
  H   H29       1.0  0.03355327992259727  0.3631170688964178  0.9050386286672776  1.0000
  H   H30       1.0  0.15502753064207875  0.42436275946042556  0.8984560297393118  1.0000
  H   H31       1.0  0.11568706678351082  0.6978123687816995  0.18696125282487253  1.0000
  H   H32       1.0  0.9946530725172473  0.6371669740374861  0.19415089538742314  1.0000
  H   H33       1.0  0.2429261536050784  0.587829739172091  0.9504234118831034  1.0000
  H   H34       1.0  0.30766224584399904  0.6692920411606793  0.12995123819046817  1.0000
  Zn  Zn1       1.0  0.7504179238439749  0.40811079606866074  0.5607650016691632  1.0000
  Zn  Zn2       1.0  0.901140173040506  0.4053225208412816  0.5595104504367716  1.0000
  C   C43       1.0  0.8257496919084271  0.40144651351035954  0.7973519419286943  1.0000
  C   C44       1.0  0.825810050511042  0.41198841164856215  0.32292362347010406  1.0000
  C   C45       1.0  0.825731733639437  0.6439298813882939  0.5548925328272083  1.0000
  C   C46       1.0  0.8258279576539106  0.1695034842684915  0.5653831027034684  1.0000
  O   O3        1.0  0.8830003079834046  0.4126417892488583  0.37083643129681176  1.0000
  O   O4        1.0  0.8829541343487711  0.3986759198809613  0.7484865851605893  1.0000
  O   O5        1.0  0.8829388615758299  0.5944843197788381  0.5526989028904803  1.0000
  O   O6        1.0  0.8830155293363817  0.2168333996329348  0.5666240166105159  1.0000
  O   O7        1.0  0.7685425161139934  0.5965999182299255  0.5536514359167037  1.0000
  O   O8        1.0  0.7685577885789502  0.40079307878710413  0.7494390484762201  1.0000
  O   O9        1.0  0.7686039624801161  0.41475890352879996  0.3717873331110122  1.0000
  O   O10       1.0  0.7686191838189516  0.21895050458384202  0.5675750158024062  1.0000
