data_image0
_chemical_formula_structural       NC10NC3NCH9C12SCH12C12NH11Zn2C4O8
_chemical_formula_sum              "N4 C43 H32 S1 Zn2 O8"
_cell_length_a       19.437513618241372
_cell_length_b       10.299776766347529
_cell_length_c       10.299774167527174
_cell_angle_alpha    85.57893362728709
_cell_angle_beta     90.34073838346127
_cell_angle_gamma    89.50378728869872

_space_group_name_H-M_alt    "P 1"
_space_group_IT_number       1

loop_
  _space_group_symop_operation_xyz
  'x, y, z'

loop_
  _atom_site_type_symbol
  _atom_site_label
  _atom_site_symmetry_multiplicity
  _atom_site_fract_x
  _atom_site_fract_y
  _atom_site_fract_z
  _atom_site_occupancy
  N   N1        1.0  0.6476922882299505  0.4100490007081419  0.5758415408050144  1.0000
  C   C1        1.0  0.5887561390000552  0.4270580814758109  0.5728674690780258  1.0000
  C   C2        1.0  0.5153121512417004  0.44830937623564693  0.5691758810713561  1.0000
  C   C3        1.0  0.47356708894064  0.3471182379292208  0.5575063520128671  1.0000
  C   C4        1.0  0.3976755750474866  0.3571811660414361  0.55028639445224  1.0000
  C   C5        1.0  0.35808631793050394  0.4380437212662067  0.6160345876333733  1.0000
  C   C6        1.0  0.2819057119763469  0.42943363783186306  0.6075899440999257  1.0000
  C   C7        1.0  0.24879029747178363  0.30809191825180826  0.6122202139301467  1.0000
  C   C8        1.0  0.1770568242153327  0.3017186051972842  0.6050517959141251  1.0000
  C   C9        1.0  0.1374682126491358  0.41621441710473284  0.593615273478223  1.0000
  C   C10       1.0  0.063620326167252  0.40950289077739166  0.5862787355743964  1.0000
  N   N2        1.0  0.0042517233575036  0.404107413771442  0.580380617547755  1.0000
  C   C11       1.0  0.1698670710112514  0.5372457396961638  0.5897302136929117  1.0000
  C   C12       1.0  0.2415849052870555  0.5438730540667427  0.5969606773956386  1.0000
  C   C13       1.0  0.3867532924532666  0.5303473776568783  0.7059603563041046  1.0000
  N   N3        1.0  0.44372821268891754  0.5935543477237233  0.6855637888954116  1.0000
  C   C14       1.0  0.4875718672807112  0.5842682951478757  0.5724602722343433  1.0000
  H   H1        1.0  0.4959669125065779  0.2520608721715647  0.5453755758649674  1.0000
  H   H2        1.0  0.3729735635482464  0.28765719590145844  0.4919634597438578  1.0000
  H   H3        1.0  0.2782553159051759  0.21818399022654922  0.6232310069247697  1.0000
  H   H4        1.0  0.1524787414990263  0.2074947612574254  0.6089287715762981  1.0000
  H   H5        1.0  0.1397168500244487  0.6264992799654421  0.5810313959848388  1.0000
  H   H6        1.0  0.2656813984050885  0.6385096873803648  0.5930682865412151  1.0000
  H   H7        1.0  0.3567457002537704  0.5507511981166142  0.7903254240244797  1.0000
  H   H8        1.0  0.5303128172231264  0.6545808399864288  0.5782308953380855  1.0000
  H   H9        1.0  0.45790123304217456  0.6123566371606983  0.48182172118426436  1.0000
  C   C15       1.0  0.8260401743674787  0.025711906674785734  0.5781103710876547  1.0000
  C   C16       1.0  0.8301660744003209  0.01412160273978258  0.7146699612581535  1.0000
  C   C17       1.0  0.8321904601904281  0.8911111878763529  0.7838703076138267  1.0000
  C   C18       1.0  0.8300345171196354  0.7788360230758762  0.7146834760625131  1.0000
  C   C19       1.0  0.8259104546293917  0.7884343486589749  0.5781231599398895  1.0000
  C   C20       1.0  0.8239359816734674  0.9123109856457942  0.5106010290188245  1.0000
  C   C21       1.0  0.8365476148715733  0.8799139865549837  0.9283348493504522  1.0000
  C   C22       1.0  0.797167169698168  0.7871315992249643  0.0018725099387292277  1.0000
  C   C23       1.0  0.8012884252665041  0.7768278329680344  0.1378274821748695  1.0000
  C   C24       1.0  0.8446184763656044  0.8590312782681205  0.20204919060599247  1.0000
  C   C25       1.0  0.884163021982711  0.9512375487709672  0.12988661521886313  1.0000
  C   C26       1.0  0.8801426515206888  0.9618895195924917  0.9939225127994127  1.0000
  S   S1        1.0  0.8499824835471709  0.8453483266197757  0.37649909067393617  1.0000
  C   C27       1.0  0.7808456844000834  0.9625679845233495  0.3951466954348378  1.0000
  H   H10       1.0  0.8244950864031745  0.3575813695183716  0.5260753128551505  1.0000
  H   H11       1.0  0.8308660532933769  0.10095661939209033  0.7676345546409231  1.0000
  H   H12       1.0  0.8325284148778739  0.6837962807683314  0.7674747800327433  1.0000
  H   H13       1.0  0.8207534956292051  0.9204839161910924  0.40525111768303756  1.0000
  H   H14       1.0  0.8243046505948918  0.46463855048441133  0.5260919943033613  1.0000
  H   H15       1.0  0.7625361238684183  0.7237307263555507  0.9543198742556973  1.0000
  H   H16       1.0  0.7705249315590231  0.7052946122969003  0.19315456292377398  1.0000
  H   H17       1.0  0.9180617296099557  0.014706969143176485  0.17901878304664565  1.0000
  H   H18       1.0  0.9117744022369323  0.033039737568629546  0.9400194572630611  1.0000
  H   H19       1.0  0.7946216412666324  0.05865372253878398  0.3464468549034616  1.0000
  H   H20       1.0  0.7728670051940238  0.9734113663794521  0.5003191352847106  1.0000
  H   H21       1.0  0.7324356363108888  0.9278297603603176  0.3524104391178793  1.0000
  C   C28       1.0  0.8259987311306319  0.4069582214836056  0.1967649593870313  1.0000
  C   C29       1.0  0.7586255232764356  0.35877950724553975  0.19872711036755808  1.0000
  C   C30       1.0  0.7244628767527133  0.3344831897028704  0.08257322378676801  1.0000
  C   C31       1.0  0.7585782174203234  0.35901159443125574  0.9634218014838232  1.0000
  C   C32       1.0  0.8259518632950579  0.40718807489378284  0.9594685116755035  1.0000
  C   C33       1.0  0.8592847353874252  0.4308921098282308  0.07665447678488313  1.0000
  C   C34       1.0  0.6531859274841283  0.28351346908645825  0.08570241446179239  1.0000
  C   C35       1.0  0.633866929376047  0.1853824511890847  0.18075335665667325  1.0000
  C   C36       1.0  0.5667778597971359  0.13746532710037274  0.18356480673137332  1.0000
  C   C37       1.0  0.5179465520475766  0.1868042678534878  0.09163948571520675  1.0000
  C   C38       1.0  0.5368116088604301  0.2845526931052893  0.996742122021621  1.0000
  C   C39       1.0  0.6038800021155789  0.33257142264498807  0.9936641305423852  1.0000
  N   N4        1.0  0.4493300140159077  0.1377365566921438  0.09465166859373197  1.0000
  H   H22       1.0  0.8516827179192701  0.4252626566865485  0.5234750387386367  1.0000
  H   H23       1.0  0.7322143252554876  0.34171664123499834  0.29067624056881614  1.0000
  H   H24       1.0  0.7328154682104694  0.3387655457290111  0.8737630278344004  1.0000
  H   H25       1.0  0.9112602128516305  0.4680588804066672  0.07437278240792766  1.0000
  H   H26       1.0  0.8516139401781291  0.425600749587415  0.6305043919654252  1.0000
  H   H27       1.0  0.6708829340128227  0.14449781574060117  0.2518736399375685  1.0000
  H   H28       1.0  0.5529119562986529  0.061650451410665275  0.25720520035674643  1.0000
  H   H29       1.0  0.49950867230163293  0.32377681525067836  0.9253481014158775  1.0000
  H   H30       1.0  0.6169414593786966  0.4092661901501058  0.9203455302879062  1.0000
  H   H31       1.0  0.4125702108944369  0.17390520454240388  0.026519836336013514  1.0000
  H   H32       1.0  0.4347823876702056  0.06487828426798314  0.1650363043977625  1.0000
  Zn  Zn1       1.0  0.7505876447409279  0.4083309001348594  0.5771589288623726  1.0000
  Zn  Zn2       1.0  0.9013563742157538  0.40581484808624446  0.5790738987053248  1.0000
  C   C40       1.0  0.825960076164914  0.4019709843401589  0.8153011327703963  1.0000
  C   C41       1.0  0.8259855888950409  0.41217637505213034  0.34093184319686776  1.0000
  C   C42       1.0  0.8259317326354118  0.6442620775489738  0.5729457398308035  1.0000
  C   C43       1.0  0.8260138812388728  0.16988372243119065  0.5832873046924221  1.0000
  O   O1        1.0  0.8831971263023398  0.41296714071688756  0.3900422873648164  1.0000
  O   O2        1.0  0.8831785160676966  0.39926961355977153  0.7676437325582117  1.0000
  O   O3        1.0  0.8831548569278808  0.5949227487934077  0.5719400282807887  1.0000
  O   O4        1.0  0.883220733999403  0.2173140156026261  0.5857458936186484  1.0000
  O   O5        1.0  0.768723233507311  0.5968317334784949  0.570486933288733  1.0000
  O   O6        1.0  0.7687468923828297  0.4011801585169994  0.7661905683498798  1.0000
  O   O7        1.0  0.7687655027668486  0.4148776399472418  0.3885875618257144  1.0000
  O   O8        1.0  0.7687891104566968  0.21922450557362216  0.5842912654428214  1.0000
