data_image0
_chemical_formula_structural       NC9NC5H8C12NCOCH13C12NCOH11Zn2C4O8
_chemical_formula_sum              "N4 C45 H32 O10 Zn2"
_cell_length_a       17.807436237873137
_cell_length_b       10.299155265289647
_cell_length_c       10.299148425239203
_cell_angle_alpha    85.52041506248938
_cell_angle_beta     89.37684199315078
_cell_angle_gamma    88.36808077728016

_space_group_name_H-M_alt    "P 1"
_space_group_IT_number       1

loop_
  _space_group_symop_operation_xyz
  'x, y, z'

loop_
  _atom_site_type_symbol
  _atom_site_label
  _atom_site_symmetry_multiplicity
  _atom_site_fract_x
  _atom_site_fract_y
  _atom_site_fract_z
  _atom_site_occupancy
  N   N1        1.0  0.7073202521729665  0.38846046353825914  0.5566146155380038  1.0000
  C   C1        1.0  0.6467421093815324  0.35327228552237133  0.545600174210692  1.0000
  C   C2        1.0  0.57138955785039  0.3095020672024382  0.5318994051188908  1.0000
  C   C3        1.0  0.55332948098892  0.23812386550077935  0.4269095754922574  1.0000
  C   C4        1.0  0.4801660781739998  0.195514884620003  0.41352440959908754  1.0000
  C   C5        1.0  0.4240141216654996  0.22390655738153287  0.5050967298055178  1.0000
  C   C6        1.0  0.3462602471735192  0.17873907723833593  0.4909538117390333  1.0000
  C   C7        1.0  0.2840620371007638  0.2604915135751109  0.516870732514805  1.0000
  C   C8        1.0  0.2107563720942447  0.21767947200195414  0.503499308232843  1.0000
  C   C9        1.0  0.1475074256243102  0.30212333748117515  0.5297793710996015  1.0000
  N   N2        1.0  0.0966682623497333  0.3700103627166531  0.5509078168133499  1.0000
  C   C10       1.0  0.1990654328772605  0.09285700285719822  0.464185687067741  1.0000
  C   C11       1.0  0.2604062774252732  0.01109071648566995  0.43826038001948464  1.0000
  C   C12       1.0  0.3335926274232336  0.053508266591858034  0.45142936621705076  1.0000
  C   C13       1.0  0.4427654615626251  0.2957790774492566  0.6103056607899546  1.0000
  C   C14       1.0  0.5159818007822125  0.338197711489056  0.6235352199617592  1.0000
  H   H1        1.0  0.5957400167436188  0.2156660163695745  0.35519800589685824  1.0000
  H   H2        1.0  0.46727767664652553  0.1418619465651807  0.33061343306649627  1.0000
  H   H3        1.0  0.2925337480261564  0.3579527690551678  0.5457213869013968  1.0000
  H   H4        1.0  0.1426094777044774  0.058822430222457145  0.45359997956018616  1.0000
  H   H5        1.0  0.2512362197686678  0.9144501187978681  0.4082089836859897  1.0000
  H   H6        1.0  0.3802507695095464  0.9877655073386231  0.43239879606909093  1.0000
  H   H7        1.0  0.4010717323200419  0.3176973040796309  0.6833119841694302  1.0000
  H   H8        1.0  0.5293984379887503  0.39307176221982654  0.7054041336715444  1.0000
  C   C15       1.0  0.902081737644051  0.9978337457212921  0.5538786693390318  1.0000
  C   C16       1.0  0.8892684079643327  0.008208865570143553  0.4191322913097353  1.0000
  C   C17       1.0  0.8826990370664187  0.8963350929571993  0.35069637357309835  1.0000
  C   C18       1.0  0.8890888211295624  0.7729577608547593  0.4188271182089165  1.0000
  C   C19       1.0  0.9019139781599029  0.7606268057048637  0.5536549188899398  1.0000
  C   C20       1.0  0.908334822315024  0.8735860365174999  0.6203505891585068  1.0000
  C   C21       1.0  0.8691450088674321  0.908284342350557  0.2081509625632847  1.0000
  C   C22       1.0  0.907257398257578  0.0006301500859351439  0.12616931400739406  1.0000
  C   C23       1.0  0.8945083464236006  0.01174401087362309  0.9920244929771833  1.0000
  C   C24       1.0  0.8438591463258336  0.9298298344809206  0.9370125895694965  1.0000
  C   C25       1.0  0.8048290923745147  0.8393438320424617  0.018939524530390495  1.0000
  C   C26       1.0  0.8176055122496511  0.8279726737128821  0.1530466064656668  1.0000
  N   N3        1.0  0.8286929075809276  0.9408586734516485  0.7996646536194043  1.0000
  C   C27       1.0  0.8835630511323594  0.9752444265469828  0.7006361315736056  1.0000
  O   O1        1.0  0.9524797396577624  0.9744989735467828  0.7274862790215653  1.0000
  C   C28       1.0  0.859616510753466  0.002895573289145581  0.5624379924044143  1.0000
  H   H9        1.0  0.9070336125577938  0.3213181155074445  0.6057018535504528  1.0000
  H   H10       1.0  0.8833321675958067  0.10356130426812693  0.3674062069266766  1.0000
  H   H11       1.0  0.8850552952980772  0.6863762684670106  0.36625427964380175  1.0000
  H   H12       1.0  0.9182205404347624  0.8648685050337509  0.7242828038531648  1.0000
  H   H13       1.0  0.9265706690128668  0.5300482031073613  0.8079979189086628  1.0000
  H   H14       1.0  0.9473681239826242  0.06375763304714988  0.16567639594764394  1.0000
  H   H15       1.0  0.9233383248539974  0.08586342312711714  0.932017518201798  1.0000
  H   H16       1.0  0.7646463970963011  0.7769242455987895  0.9785664037070858  1.0000
  H   H17       1.0  0.7863613674161021  0.7575835913077498  0.21392196916609496  1.0000
  H   H18       1.0  0.7757830959666997  0.9145129559003765  0.7693646484630428  1.0000
  H   H19       1.0  0.8053864453218237  0.05891328620822045  0.5587789171459243  1.0000
  H   H20       1.0  0.8526713032863978  0.9096377835718107  0.5173127053328566  1.0000
  H   H21       1.0  0.9023930117665485  0.06098763292668585  0.5064120247766559  1.0000
  C   C29       1.0  0.9020543176555524  0.37938343417315123  0.17236971522308764  1.0000
  C   C30       1.0  0.978269817772057  0.4113333707261717  0.16727263204690224  1.0000
  C   C31       1.0  0.016793384169420777  0.4273240902708202  0.04755797907256154  1.0000
  C   C32       1.0  0.978111517229112  0.41100069620564383  0.9320178981728677  1.0000
  C   C33       1.0  0.901941363083581  0.37907708664337614  0.9351638521053074  1.0000
  C   C34       1.0  0.8643596334676114  0.36344663495471674  0.05583896549383871  1.0000
  C   C35       1.0  0.09737484651496309  0.4611011732190671  0.043259211449518276  1.0000
  C   C36       1.0  0.14786985986085566  0.40133312034092494  0.958938067916669  1.0000
  C   C37       1.0  0.22366059352047518  0.43325763130574324  0.9550425390394874  1.0000
  C   C38       1.0  0.2507312040344847  0.5242547054591826  0.03612738113759395  1.0000
  C   C39       1.0  0.2001612269094848  0.5858726644019285  0.1188806792601822  1.0000
  C   C40       1.0  0.12433651851078342  0.5540564399433157  0.12287351572120842  1.0000
  N   N4        1.0  0.32874555040835785  0.5567675122760656  0.028437771802193312  1.0000
  C   C41       1.0  0.37195112635702543  0.591395905631354  0.13652372114179556  1.0000
  O   O2        1.0  0.34653423216366264  0.578436734124189  0.2512606379218161  1.0000
  H   H22       1.0  0.758321012081697  0.3183098894724461  0.3893415508568032  1.0000
  H   H23       1.0  0.00807407794013848  0.42211736280680867  0.2567585724023569  1.0000
  H   H24       1.0  0.007257056970298104  0.4250124066341765  0.8393532438174334  1.0000
  H   H25       1.0  0.8056085690183109  0.33881957963725684  0.05898060212766709  1.0000
  H   H26       1.0  0.8726464875565505  0.36676200410064674  0.6089007109832276  1.0000
  H   H27       1.0  0.1289449832918277  0.3287146404632879  0.8970644093230296  1.0000
  H   H28       1.0  0.26163068862785277  0.38591698919090955  0.889544594734553  1.0000
  H   H29       1.0  0.2186593003344215  0.6606760689755944  0.178353343041316  1.0000
  H   H30       1.0  0.08645448487981522  0.604059361872944  0.18647680453428683  1.0000
  H   H31       1.0  0.3576419067817638  0.5464582115714367  0.9408338087440264  1.0000
  H   H32       1.0  0.4283528106033061  0.6257657346787115  0.11986217381506115  1.0000
  Zn  Zn1       1.0  0.8196776759872209  0.38313269438636155  0.5549752690633749  1.0000
  Zn  Zn2       1.0  0.9843108210860663  0.37532754050164563  0.5525578437939123  1.0000
  C   C42       1.0  0.9019621825442858  0.3739609496488756  0.7909809988001348  1.0000
  C   C43       1.0  0.9020281119384878  0.384500838715512  0.3165522146541473  1.0000
  C   C44       1.0  0.9019425668185378  0.6164449152783487  0.5485217282528756  1.0000
  C   C45       1.0  0.9020476718194335  0.14201531528566513  0.55901155572774  1.0000
  O   O3        1.0  0.9644967388789653  0.3832506049800555  0.36402377995732205  1.0000
  O   O4        1.0  0.9644463036530391  0.3692862725287276  0.7416742900665858  1.0000
  O   O5        1.0  0.9644296212809468  0.5650951807898286  0.5458867256311772  1.0000
  O   O6        1.0  0.9645133650852927  0.1874417087124507  0.5598112478330484  1.0000
  O   O7        1.0  0.8394750758067827  0.5710185288404892  0.5477218658423557  1.0000
  O   O8        1.0  0.8394917578424654  0.37521118104469453  0.7435093605695473  1.0000
  O   O9        1.0  0.839542193359524  0.3891754688609492  0.3658572889567966  1.0000
  O   O10       1.0  0.8395588195504043  0.1933665632647814  0.5616448542103223  1.0000
