data_image0
_chemical_formula_structural       NC9NC5H8C12NH11C13OH12Zn2C4O8
_chemical_formula_sum              "N3 C43 H31 O9 Zn2"
_cell_length_a       17.807436237873137
_cell_length_b       10.299770795358612
_cell_length_c       10.299153481560891
_cell_angle_alpha    85.5776922204699
_cell_angle_beta     89.40949667369763
_cell_angle_gamma    88.40764042794568

_space_group_name_H-M_alt    "P 1"
_space_group_IT_number       1

loop_
  _space_group_symop_operation_xyz
  'x, y, z'

loop_
  _atom_site_type_symbol
  _atom_site_label
  _atom_site_symmetry_multiplicity
  _atom_site_fract_x
  _atom_site_fract_y
  _atom_site_fract_z
  _atom_site_occupancy
  N   N1        1.0  0.7074153714097142  0.38720295827789664  0.556990881387259  1.0000
  C   C1        1.0  0.6468197083634165  0.3520095204069764  0.5459700820675895  1.0000
  C   C2        1.0  0.5714453635592442  0.3082327593933245  0.5322614043346139  1.0000
  C   C3        1.0  0.5533235097255353  0.23677941389994972  0.4272641959583108  1.0000
  C   C4        1.0  0.48013887661886323  0.19416402655139464  0.413871334439712  1.0000
  C   C5        1.0  0.4240273060585695  0.22262444716268903  0.5054432638218582  1.0000
  C   C6        1.0  0.3462509410755569  0.17745021173353903  0.49129218496875104  1.0000
  C   C7        1.0  0.2840935395412801  0.25921512346708564  0.5172238553782513  1.0000
  C   C8        1.0  0.2107665676796502  0.21639670537798095  0.5038446936193433  1.0000
  C   C9        1.0  0.147559617649172  0.3008530746416953  0.5301400244252972  1.0000
  N   N2        1.0  0.0967542169533525  0.3687501529078072  0.5512807444327712  1.0000
  C   C10       1.0  0.1990134022274719  0.09155538903653437  0.464508535024033  1.0000
  C   C11       1.0  0.2603134300549995  0.009776622037721117  0.4385684761100279  1.0000
  C   C12       1.0  0.3335208654242608  0.05220042809730541  0.4517451337774645  1.0000
  C   C13       1.0  0.4428406894857944  0.29457223512935493  0.6106596585740693  1.0000
  C   C14       1.0  0.5160781337384621  0.33699717227369486  0.6238968853898721  1.0000
  H   H1        1.0  0.5957023294336679  0.21426774857088682  0.35555288728162804  1.0000
  H   H2        1.0  0.4672027714368647  0.14045148996532286  0.3309550781306043  1.0000
  H   H3        1.0  0.2926132508033543  0.35668965521237816  0.5460922301807698  1.0000
  H   H4        1.0  0.1425405226545093  0.057515781750272055  0.4539166734477753  1.0000
  H   H5        1.0  0.2510953179251756  0.913121733645284  0.4084996049649239  1.0000
  H   H6        1.0  0.3801467654888479  0.986449049312044  0.4327025815154615  1.0000
  H   H7        1.0  0.401178872272862  0.31654533912014227  0.6836655258059896  1.0000
  H   H8        1.0  0.5295426304314615  0.3919298929571122  0.7057713946114308  1.0000
  C   C15       1.0  0.9020203117288743  0.9966111022409838  0.5541763733424045  1.0000
  C   C16       1.0  0.8801933730159875  0.006771614341114063  0.42308494387872964  1.0000
  C   C17       1.0  0.8692023922014195  0.8947805894923169  0.3566237770628191  1.0000
  C   C18       1.0  0.8803308669332943  0.7714834586821804  0.42301437393231023  1.0000
  C   C19       1.0  0.90215644622409  0.7593317194050971  0.5541063738855874  1.0000
  C   C20       1.0  0.912879310372135  0.8724558056852716  0.6189531455402293  1.0000
  C   C21       1.0  0.8461110867937752  0.9065832111525797  0.21793664855382233  1.0000
  C   C22       1.0  0.7914007148873318  0.0003371796873106181  0.17355148462405356  1.0000
  C   C23       1.0  0.7696993904786406  0.011315054792017776  0.04301762595700387  1.0000
  C   C24       1.0  0.8022978315271122  0.92897708658504  0.9547947963005612  1.0000
  C   C25       1.0  0.8568277783099403  0.8354294172084289  0.998292039812652  1.0000
  C   C26       1.0  0.8785892786670031  0.8241926530501772  0.12879504265512942  1.0000
  N   N3        1.0  0.7800681815565556  0.940338938231645  0.8212841547071328  1.0000
  H   H9        1.0  0.9103054386761056  0.32019325560169976  0.6041458865885085  1.0000
  H   H10       1.0  0.8726849811236593  0.10201353925168855  0.3718423746606363  1.0000
  H   H11       1.0  0.8709368490769315  0.6848808584874193  0.37273957093991994  1.0000
  H   H12       1.0  0.9297172338737615  0.8638494217899745  0.7200843864577384  1.0000
  H   H13       1.0  0.9105056633742846  0.42724734921574986  0.6040433254824702  1.0000
  H   H14       1.0  0.7646879158645346  0.06403913645536274  0.24014706343293657  1.0000
  H   H15       1.0  0.727338739370868  0.08379157710218954  0.010727036562715231  1.0000
  H   H16       1.0  0.882611375386848  0.771425687043516  0.9310208097063586  1.0000
  H   H17       1.0  0.9215256089839349  0.7521985785369978  0.15963763395410524  1.0000
  H   H18       1.0  0.8040487445921073  0.8793822806755679  0.7547922595889895  1.0000
  H   H19       1.0  0.7394657557220592  0.009791726541695578  0.7879446021723835  1.0000
  C   C27       1.0  0.9020238351154969  0.37782703390832784  0.1727698068000043  1.0000
  C   C28       1.0  0.8243488311753803  0.35712830484672153  0.17458265290186836  1.0000
  C   C29       1.0  0.7851022646815421  0.3467899205947296  0.05833223299007173  1.0000
  C   C30       1.0  0.8245261333525254  0.35743719960560383  0.9392720566893247  1.0000
  C   C31       1.0  0.9021529446362875  0.3781157786253946  0.9355129720107525  1.0000
  C   C32       1.0  0.9404485277211826  0.3881863461075532  0.052801978228730784  1.0000
  C   C33       1.0  0.7029806318996982  0.32491935059964794  0.061221929947457676  1.0000
  C   C34       1.0  0.6554788845767279  0.3924072762723161  0.9692451564553868  1.0000
  C   C35       1.0  0.5781975881636188  0.37186972125681295  0.9720424826978848  1.0000
  C   C36       1.0  0.5471171322855696  0.2826308112099083  0.06596640192373648  1.0000
  C   C37       1.0  0.5941150952734529  0.21626303909203703  0.15886899660189369  1.0000
  C   C38       1.0  0.6713999502922395  0.23677077814552305  0.15624977046994437  1.0000
  C   C39       1.0  0.46386056266741593  0.2632901589163683  0.07110593233895113  1.0000
  O   O1        1.0  0.4301334678437097  0.35247645618806045  0.15109995119514785  1.0000
  H   H20       1.0  0.04854386044222747  0.4177310648249204  0.37657766401233395  1.0000
  H   H21       1.0  0.7940596890244042  0.3508001808748862  0.2665031502936426  1.0000
  H   H22       1.0  0.794717546048639  0.34779774585636103  0.8495310996603322  1.0000
  H   H23       1.0  0.00032400424332656996  0.40414001770291885  0.05061831008322648  1.0000
  H   H24       1.0  0.9320010230007335  0.386155873466548  0.6065851817631565  1.0000
  H   H25       1.0  0.6779484529552846  0.46259832201708084  0.8963515990052984  1.0000
  H   H26       1.0  0.5425630247190659  0.42583877892066235  0.9010796119199207  1.0000
  H   H27       1.0  0.5709531876592961  0.14831119662550174  0.23321239187132803  1.0000
  H   H28       1.0  0.7065829765484853  0.18262262150398612  0.2277424948905198  1.0000
  H   H29       1.0  0.4519190222172412  0.1620690203256563  0.11010902565035363  1.0000
  H   H30       1.0  0.4400839364815891  0.277782296123708  0.9713225916609054  1.0000
  H   H31       1.0  0.3755182461701095  0.335711410791268  0.15119928784063297  1.0000
  Zn  Zn1       1.0  0.8197701515113855  0.38187441484073537  0.5553505703708017  1.0000
  Zn  Zn2       1.0  0.9843994185719745  0.37406811431317655  0.5529317331069779  1.0000
  C   C40       1.0  0.9021259264081429  0.37288765004454305  0.7913386934316089  1.0000
  C   C41       1.0  0.9020454417357471  0.3830564325170973  0.31694371094960605  1.0000
  C   C42       1.0  0.9021259755598215  0.6151595043132057  0.5489444927192799  1.0000
  C   C43       1.0  0.902045336140825  0.14078302065061798  0.5593379818695303  1.0000
  O   O2        1.0  0.9645286409804558  0.38184335040636586  0.36441185461096626  1.0000
  O   O3        1.0  0.9645925313623368  0.3681749508256267  0.7420343344962859  1.0000
  O   O4        1.0  0.964591729075816  0.5638125775398048  0.5462993146924482  1.0000
  O   O5        1.0  0.9645293870753372  0.18620573560922038  0.5601467778639861  1.0000
  O   O6        1.0  0.8396401268281329  0.5697367962100102  0.5481355264323926  1.0000
  O   O7        1.0  0.8396409293780069  0.3741007297589667  0.7438704768472342  1.0000
  O   O8        1.0  0.8395770387737469  0.38776908349070993  0.36624643555368896  1.0000
  O   O9        1.0  0.8395777848803775  0.1921314594418504  0.5619814561761263  1.0000
