data_image0
_chemical_formula_structural       NC11NC3H8C13OH12C12NH11Zn2C4O8
_chemical_formula_sum              "N3 C43 H31 O9 Zn2"
_cell_length_a       17.807433833752565
_cell_length_b       10.299150109392551
_cell_length_c       10.299774167527174
_cell_angle_alpha    85.55710761189597
_cell_angle_beta     88.5175958409119
_cell_angle_gamma    90.66566965777596

_space_group_name_H-M_alt    "P 1"
_space_group_IT_number       1

loop_
  _space_group_symop_operation_xyz
  'x, y, z'

loop_
  _atom_site_type_symbol
  _atom_site_label
  _atom_site_symmetry_multiplicity
  _atom_site_fract_x
  _atom_site_fract_y
  _atom_site_fract_z
  _atom_site_occupancy
  N   N1        1.0  0.707242388517037  0.4381478456493586  0.5342342615505733  1.0000
  C   C1        1.0  0.6564249828430835  0.40343829684134924  0.600805265622856  1.0000
  C   C2        1.0  0.5932030045869024  0.3602624782890229  0.6836110998317484  1.0000
  C   C3        1.0  0.6049338522443402  0.29674396750407595  0.8063453134065279  1.0000
  C   C4        1.0  0.5436191056206557  0.25524737040329804  0.886866755215473  1.0000
  C   C5        1.0  0.4704191797344608  0.27695618243426523  0.845294855245663  1.0000
  C   C6        1.0  0.4577115403194986  0.34062911962355424  0.7221004139346507  1.0000
  C   C7        1.0  0.379943331303952  0.36366732455273487  0.6777475429709034  1.0000
  C   C8        1.0  0.3611713985828722  0.3467554482772799  0.5481791336610167  1.0000
  C   C9        1.0  0.28794154025201435  0.36842551642268595  0.5065631774768142  1.0000
  C   C10       1.0  0.2325405357104952  0.4073257685082685  0.5936952872053374  1.0000
  C   C11       1.0  0.1571739233847554  0.4296539463564715  0.5507178774936541  1.0000
  N   N2        1.0  0.0965845406192351  0.4476041425266044  0.5161671679843343  1.0000
  C   C12       1.0  0.2506209008193923  0.4244480797015566  0.7227325161153584  1.0000
  C   C13       1.0  0.32379798711462426  0.4027431547348155  0.7646039012907808  1.0000
  C   C14       1.0  0.5198835985955245  0.3821211563262199  0.641595388723597  1.0000
  H   H1        1.0  0.6614006772188096  0.2793381138572648  0.839715190779371  1.0000
  H   H2        1.0  0.5528201403673776  0.205819579116576  0.981615213200898  1.0000
  H   H3        1.0  0.4237821511425603  0.24241644749648095  0.9087426667812906  1.0000
  H   H4        1.0  0.4028601332859272  0.3150909623045077  0.47947669476910537  1.0000
  H   H5        1.0  0.2745092071622764  0.35451413267080456  0.40653817542370074  1.0000
  H   H6        1.0  0.20821564321511613  0.45488929844189685  0.7909206279704752  1.0000
  H   H7        1.0  0.3367016132769463  0.4182000045635279  0.8644456310746509  1.0000
  H   H8        1.0  0.5113807733396182  0.43291146753748144  0.547080771272386  1.0000
  C   C15       1.0  0.9019878514379606  0.061478196161444565  0.5253413583214099  1.0000
  C   C16       1.0  0.9005948451981118  0.04967964213639764  0.6622101689496991  1.0000
  C   C17       1.0  0.8998232111728318  0.9265612615540569  0.7313449118632118  1.0000
  C   C18       1.0  0.9004500249899597  0.814420675196481  0.6618535116655655  1.0000
  C   C19       1.0  0.9018462579860019  0.8242639263252305  0.525070946130384  1.0000
  C   C20       1.0  0.9026090779566489  0.9482531843527018  0.45761412029743953  1.0000
  C   C21       1.0  0.8983430243250683  0.9150612946267724  0.8760467803418073  1.0000
  C   C22       1.0  0.8521432163011919  0.8210785775303403  0.946208798626033  1.0000
  C   C23       1.0  0.8507254724029639  0.8103379249320737  0.08237426723019392  1.0000
  C   C24       1.0  0.8959746520628749  0.8924334062590407  0.1508164211830445  1.0000
  C   C25       1.0  0.9414556690912045  0.9873524853709552  0.08133029867146568  1.0000
  C   C26       1.0  0.9428908518383871  0.9982693584701221  0.945163732130555  1.0000
  C   C27       1.0  0.892871563769295  0.8832077196791801  0.29703968415748394  1.0000
  O   O1        1.0  0.8367183812062325  0.9650308934942369  0.33988415960347584  1.0000
  H   H9        1.0  0.9041291373849035  0.29102950134714467  0.2670177133607663  1.0000
  H   H10       1.0  0.8990652940001866  0.13642983072490766  0.7152871824298548  1.0000
  H   H11       1.0  0.9008751081726757  0.7193223127208275  0.7146647674735687  1.0000
  H   H12       1.0  0.9036839084429101  0.9565617354183964  0.3521097332878531  1.0000
  H   H13       1.0  0.9023327330383483  0.5005732898136204  0.4724619206349716  1.0000
  H   H14       1.0  0.816218853020919  0.7571838605325838  0.8957696478363821  1.0000
  H   H15       1.0  0.8141769732036713  0.7381337188894039  0.13444342034036172  1.0000
  H   H16       1.0  0.9759961668547601  0.052766755462672066  0.13257983672328288  1.0000
  H   H17       1.0  0.9794644680626642  0.07091981734740305  0.8939000180685404  1.0000
  H   H18       1.0  0.9481293641271938  0.9123894434941757  0.3346435653066746  1.0000
  H   H19       1.0  0.8806602611432267  0.7808996679665474  0.33541710983846185  1.0000
  H   H20       1.0  0.8369901473160362  0.955385375180261  0.4364935961566401  1.0000
  C   C28       1.0  0.901942636294534  0.44275717648932544  0.14385290449816002  1.0000
  C   C29       1.0  0.828375013403688  0.39166451083315823  0.15010542722786835  1.0000
  C   C30       1.0  0.7910713911545815  0.3658906403753046  0.03612699024532651  1.0000
  C   C31       1.0  0.8283233581881111  0.3918945760305874  0.9148030292098608  1.0000
  C   C32       1.0  0.9018914593716414  0.4429850266258084  0.906559340732096  1.0000
  C   C33       1.0  0.938289016221946  0.4681307260886982  0.021622696427236576  1.0000
  C   C34       1.0  0.7132411097770749  0.31183812808898614  0.043795145364197374  1.0000
  C   C35       1.0  0.6921458794069548  0.21286392617643668  0.14010855069487693  1.0000
  C   C36       1.0  0.6188885189861278  0.16204514518195823  0.14719225608505937  1.0000
  C   C37       1.0  0.5655675806549938  0.2092797031384681  0.058344351842941844  1.0000
  C   C38       1.0  0.5861671335372883  0.30785167379914746  0.9622134544571841  1.0000
  C   C39       1.0  0.6594019166273515  0.35877117649403933  0.9548644798730983  1.0000
  N   N3        1.0  0.4906423135530797  0.15724426542831993  0.0657260825405166  1.0000
  H   H21       1.0  0.9299880554478888  0.4621724614375895  0.4689274338624978  1.0000
  H   H22       1.0  0.7995355220748706  0.3734595017472391  0.24373574363548345  1.0000
  H   H23       1.0  0.8001919348633799  0.3705341006540377  0.8267855415405672  1.0000
  H   H24       1.0  0.9950432134382415  0.5075454824024341  0.01603116863696563  1.0000
  H   H25       1.0  0.9299129541954361  0.4625076146399516  0.5759610189288638  1.0000
  H   H26       1.0  0.7325651959131788  0.1735741787680365  0.20889736512971258  1.0000
  H   H27       1.0  0.6037477525010461  0.08562460109986736  0.2217408192837289  1.0000
  H   H28       1.0  0.5454345039204468  0.3454683663166731  0.8931697307820277  1.0000
  H   H29       1.0  0.6736642747766134  0.4360369508833839  0.8806883817317477  1.0000
  H   H30       1.0  0.4505027537003861  0.1918286634157913  0.9999112759703479  1.0000
  H   H31       1.0  0.4747571457320458  0.08375115075213113  0.1370609845392532  1.0000
  Zn  Zn1       1.0  0.8195981233021126  0.44087325599365434  0.529027974061191  1.0000
  Zn  Zn2       1.0  0.9842287923349161  0.44486811494570433  0.5213840448173848  1.0000
  C   C40       1.0  0.9019004268208135  0.4377678192585879  0.7623934344615393  1.0000
  C   C41       1.0  0.9019282862652552  0.44797523408661943  0.2880186278257848  1.0000
  C   C42       1.0  0.9018695017780485  0.6800795855767097  0.519947262008928  1.0000
  C   C43       1.0  0.9019591554160927  0.20566190600492318  0.530464872675743  1.0000
  O   O2        1.0  0.964399952234145  0.45123682386499064  0.33350113224218947  1.0000
  O   O3        1.0  0.9643796295603976  0.437537255081502  0.7111089911342754  1.0000
  O   O4        1.0  0.964353814893835  0.6332070508004732  0.5153320301582731  1.0000
  O   O5        1.0  0.9644257107282191  0.255567036044688  0.5292779984525884  1.0000
  O   O6        1.0  0.8394011487284422  0.6301743335328331  0.521134023027654  1.0000
  O   O7        1.0  0.8394269631065647  0.4345060982155988  0.7169109142079757  1.0000
  O   O8        1.0  0.839447285943417  0.44820562127453223  0.3393014939931198  1.0000
  O   O9        1.0  0.839473044429612  0.25253582419372345  0.5350784575707892  1.0000
