data_image0
_chemical_formula_structural       NC12NC2H8C16H10C15H12Zn2C4O8
_chemical_formula_sum              "N2 C49 H30 Zn2 O8"
_cell_length_a       17.80743265337812
_cell_length_b       10.29914801576943
_cell_length_c       10.299157797200024
_cell_angle_alpha    85.52082761248347
_cell_angle_beta     91.55653286904399
_cell_angle_gamma    89.44985071264975

_space_group_name_H-M_alt    "P 1"
_space_group_IT_number       1

loop_
  _space_group_symop_operation_xyz
  'x, y, z'

loop_
  _atom_site_type_symbol
  _atom_site_label
  _atom_site_symmetry_multiplicity
  _atom_site_fract_x
  _atom_site_fract_y
  _atom_site_fract_z
  _atom_site_occupancy
  N   N1        1.0  0.7072894328733357  0.40715789196644336  0.600705784256413  1.0000
  C   C1        1.0  0.6564575709922511  0.43673670325266434  0.531991694114577  1.0000
  C   C2        1.0  0.5932177217654548  0.4735305964999723  0.44652001529877094  1.0000
  C   C3        1.0  0.6049221300543943  0.5275881256983281  0.31987214592996116  1.0000
  C   C4        1.0  0.5435899888277355  0.5628776917764065  0.23679716870688905  1.0000
  C   C5        1.0  0.47039901762823394  0.5443733836667843  0.27971001920359884  1.0000
  C   C6        1.0  0.45771792974318404  0.49019692203660536  0.40682610361054405  1.0000
  C   C7        1.0  0.5199073836282946  0.45491061434773217  0.48988456695151394  1.0000
  C   C8        1.0  0.37995927021756837  0.47057766368686127  0.45259984138083875  1.0000
  C   C9        1.0  0.3612073409352611  0.4977339313200715  0.5796408328105462  1.0000
  C   C10       1.0  0.28798643914026756  0.4792711896468729  0.6225942323957891  1.0000
  C   C11       1.0  0.2325746618894916  0.43339767432973764  0.5393447548861237  1.0000
  C   C12       1.0  0.1572174128494659  0.4143817049066716  0.5836993752483399  1.0000
  N   N2        1.0  0.0966355211256698  0.39909414442218005  0.6193574387293064  1.0000
  C   C13       1.0  0.2506352043541439  0.40607234215647603  0.4128468291213734  1.0000
  C   C14       1.0  0.3238031919818238  0.4245499355458142  0.36963752233299774  1.0000
  H   H1        1.0  0.6613816119702518  0.5424218693840857  0.28542745918211  1.0000
  H   H2        1.0  0.5527704778413397  0.6050030827725439  0.13899625696280848  1.0000
  H   H3        1.0  0.4237480604672927  0.5740280206437938  0.2141040208284004  1.0000
  H   H4        1.0  0.511425061604394  0.411399831368761  0.587561563857053  1.0000
  H   H5        1.0  0.4029044283191264  0.5348996397461185  0.6452032147683309  1.0000
  H   H6        1.0  0.2745694434692591  0.5010936739533987  0.7206001764804231  1.0000
  H   H7        1.0  0.2082215071365677  0.3701739161401052  0.3476969330321198  1.0000
  H   H8        1.0  0.3366916592989359  0.4011916994886504  0.2719355269955013  1.0000
  C   C15       1.0  0.9019126137873799  0.02172564032422586  0.6101947621264483  1.0000
  C   C16       1.0  0.8847286962727907  0.03171880351523404  0.4758897082327478  1.0000
  C   C17       1.0  0.8760712552557276  0.9196546936501813  0.40763222439605706  1.0000
  C   C18       1.0  0.8848288910024563  0.7964650298734077  0.4754898938723522  1.0000
  C   C19       1.0  0.9020195244169453  0.7845162610195855  0.6098800273884184  1.0000
  C   C20       1.0  0.9104568825036677  0.8976651457694136  0.6764050407622939  1.0000
  C   C21       1.0  0.8578929283524416  0.9312718569447666  0.2655536834910335  1.0000
  C   C22       1.0  0.8934175975959127  0.8495755638945289  0.18203276962521042  1.0000
  C   C23       1.0  0.8762825368934785  0.8606349576261001  0.04831266278919455  1.0000
  C   C24       1.0  0.8234467610685777  0.9532951195066302  0.9963006745991296  1.0000
  C   C25       1.0  0.7877848115845609  0.03497494115344457  0.07853099538669106  1.0000
  C   C26       1.0  0.8048663127540814  0.02415791635722253  0.2122694842693651  1.0000
  C   C27       1.0  0.8058339214871743  0.964556500759501  0.8586247022143279  1.0000
  C   C28       1.0  0.7910833583230948  0.9739877991968855  0.743323063947205  1.0000
  C   C29       1.0  0.773810623006943  0.9850317230838176  0.6083060224245775  1.0000
  C   C30       1.0  0.7590625352519905  0.9944615877421372  0.49302301159788087  1.0000
  H   H9        1.0  0.9084836515422667  0.3453572375766649  0.6618664829882643  1.0000
  H   H10       1.0  0.8790494022634061  0.12690670727908282  0.42370449635249896  1.0000
  H   H11       1.0  0.8772105800611084  0.7097443666993319  0.4237064041759575  1.0000
  H   H12       1.0  0.9237090819820907  0.8892413170301914  0.779998726696344  1.0000
  H   H13       1.0  0.9340007432148318  0.5546666061149967  0.8636903221919305  1.0000
  H   H14       1.0  0.9351592548841078  0.7782960512786106  0.21988421244053113  1.0000
  H   H15       1.0  0.904374946505885  0.7971487058942215  0.9854797874859025  1.0000
  H   H16       1.0  0.7466403903629529  0.10680683098500743  0.039338189620508945  1.0000
  H   H17       1.0  0.7758979437133983  0.08727273411058856  0.2742575620323102  1.0000
  H   H18       1.0  0.7461125267676482  0.002741804262878622  0.3917948100744364  1.0000
  C   C31       1.0  0.9018789837627493  0.40322902029956387  0.22864113761514027  1.0000
  C   C32       1.0  0.8236259556741043  0.3868688226768815  0.2250751296925504  1.0000
  C   C33       1.0  0.78411020515938  0.37846139508678855  0.10613248746647619  1.0000
  C   C34       1.0  0.8238491434228374  0.38665545076726326  0.9898186144070165  1.0000
  C   C35       1.0  0.9020531354061145  0.4030128689339858  0.9914335916206194  1.0000
  C   C36       1.0  0.9406113936307482  0.4111983744733807  0.11135331073309462  1.0000
  C   C37       1.0  0.7013792308900518  0.36117035890822113  0.10340871473461788  1.0000
  C   C38       1.0  0.6675629079787175  0.274884337553406  0.020718180631996708  1.0000
  C   C39       1.0  0.5897096081005477  0.25870580454079195  0.0181872170926356  1.0000
  C   C40       1.0  0.5442858837678525  0.3278328492800582  0.09881268399972032  1.0000
  C   C41       1.0  0.5777002679948985  0.4149728138583284  0.18050689330953973  1.0000
  C   C42       1.0  0.6555528109840473  0.4311555612586362  0.18318576955669252  1.0000
  C   C43       1.0  0.4604161945599736  0.3127532877148125  0.0937390027640499  1.0000
  C   C44       1.0  0.4266421952068688  0.40722815278138746  0.9946708296496451  1.0000
  C   C45       1.0  0.39888500818104317  0.48491445664033006  0.9132100852648346  1.0000
  H   H19       1.0  0.0496371302643841  0.43331202722000994  0.44272964285780625  1.0000
  H   H20       1.0  0.7934068015851901  0.37886910081428327  0.3151688327291029  1.0000
  H   H21       1.0  0.793522352521569  0.3820450716968049  0.8977357025000243  1.0000
  H   H22       1.0  0.0009324989514944981  0.42381156460898484  0.11331472690632882  1.0000
  H   H23       1.0  0.9321360909815896  0.4092629761051061  0.6645825664981282  1.0000
  H   H24       1.0  0.7014134830761765  0.21881297374946884  0.9589909181596381  1.0000
  H   H25       1.0  0.5648272092865525  0.1920597582175465  0.9534642593507527  1.0000
  H   H26       1.0  0.5434109221275725  0.47074406026536897  0.2418682668725689  1.0000
  H   H27       1.0  0.6798227466926179  0.4999216984227084  0.24623726262653367  1.0000
  H   H28       1.0  0.4454083748418339  0.21281543210348497  0.0696168391932055  1.0000
  H   H29       1.0  0.43650393426641926  0.32869477537302005  0.18980832663392921  1.0000
  H   H30       1.0  0.374537629310531  0.5531199228652781  0.8416959862349547  1.0000
  Zn  Zn1       1.0  0.8196463081669016  0.4048273989247233  0.6060957377391476  1.0000
  Zn  Zn2       1.0  0.9842786442722279  0.4014140401310784  0.6139780834284074  1.0000
  C   C46       1.0  0.9020178363752647  0.397879676898643  0.8472515659847217  1.0000
  C   C47       1.0  0.901908914102664  0.40836336360174164  0.37282246805716523  1.0000
  C   C48       1.0  0.9019942735350027  0.6403341538200633  0.6047637693438701  1.0000
  C   C49       1.0  0.9019324205625067  0.1659073273944207  0.6153103318958189  1.0000
  O   O1        1.0  0.9643960717672796  0.40878547803562193  0.4242023511142432  1.0000
  O   O2        1.0  0.9644828122589318  0.39486592242291163  0.8018538274522136  1.0000
  O   O3        1.0  0.9644629430544247  0.5906509958716408  0.6060431751412085  1.0000
  O   O4        1.0  0.9644158847729882  0.21300041507021938  0.6200129033500577  1.0000
  O   O5        1.0  0.8395090114852036  0.5932410251518103  0.6000609151208074  1.0000
  O   O6        1.0  0.8395288808891923  0.3974575121552093  0.7958714975373207  1.0000
  O   O7        1.0  0.8394421400846019  0.4113770229496243  0.4182184597078429  1.0000
  O   O8        1.0  0.8394619531081711  0.2155919506671231  0.6140291093221579  1.0000
