data_image0
_chemical_formula_structural       NC8NC6H8C12OCH12C13OH12Zn2C4O8
_chemical_formula_sum              "N2 C44 H32 O10 Zn2"
_cell_length_a       17.457602349358154
_cell_length_b       10.29979075500242
_cell_length_c       10.299153481560891
_cell_angle_alpha    85.5777986716743
_cell_angle_beta     92.89209155736368
_cell_angle_gamma    91.67079993281202

_space_group_name_H-M_alt    "P 1"
_space_group_IT_number       1

loop_
  _space_group_symop_operation_xyz
  'x, y, z'

loop_
  _atom_site_type_symbol
  _atom_site_label
  _atom_site_symmetry_multiplicity
  _atom_site_fract_x
  _atom_site_fract_y
  _atom_site_fract_z
  _atom_site_occupancy
  N   N1        1.0  0.7219250483935399  0.45226936682567676  0.6263235694308744  1.0000
  C   C1        1.0  0.6608535857432968  0.4063407688573475  0.6157122764949812  1.0000
  C   C2        1.0  0.5848781037881994  0.349211311008212  0.6025213696938012  1.0000
  C   C3        1.0  0.5263551501585211  0.3894018427129078  0.6774167894872491  1.0000
  C   C4        1.0  0.4518174740700365  0.33439085247156886  0.6648401194269398  1.0000
  C   C5        1.0  0.38970398228759534  0.3768262281939212  0.7441572225843749  1.0000
  C   C6        1.0  0.3151443472608007  0.39527245837432834  0.6883904519841537  1.0000
  C   C7        1.0  0.2566214426914424  0.4352791100453932  0.7633938469131298  1.0000
  C   C8        1.0  0.1806231601233213  0.454330314583582  0.70541149886301  1.0000
  N   N2        1.0  0.11953345862548842  0.46964110350273036  0.6587938427341287  1.0000
  C   C9        1.0  0.2721660543175068  0.45708286821366095  0.8946725177232338  1.0000
  C   C10       1.0  0.3459409819484592  0.4390257700421403  0.9508268562394446  1.0000
  C   C11       1.0  0.4044523281032388  0.3991993490470829  0.8762811754981814  1.0000
  C   C12       1.0  0.4370912724273441  0.23851136092367198  0.5759351438024736  1.0000
  C   C13       1.0  0.4956025266128616  0.1985996612711316  0.5014397087037779  1.0000
  C   C14       1.0  0.5693555117154073  0.2537232407733936  0.5145663306271753  1.0000
  H   H1        1.0  0.5386971030064601  0.46462101872178163  0.7440414586179864  1.0000
  H   H2        1.0  0.3027844305215078  0.38026244697035394  0.5863649883646118  1.0000
  H   H3        1.0  0.22730966100265174  0.48798817579443043  0.9535066474196343  1.0000
  H   H4        1.0  0.3577868415422309  0.4555932691725608  0.05247889096970293  1.0000
  H   H5        1.0  0.46094861706304513  0.38422586455388474  0.9223902956558399  1.0000
  H   H6        1.0  0.3806129749426925  0.19317240694972648  0.5652876728337777  1.0000
  H   H7        1.0  0.4837739747036238  0.12449645822112054  0.43361657474568305  1.0000
  H   H8        1.0  0.6142121944794466  0.2219484503169884  0.4562434273452938  1.0000
  C   C15       1.0  0.9208018730880442  0.07959065027849221  0.6426035880896743  1.0000
  C   C16       1.0  0.8986161881049511  0.06750390035371057  0.7722313155739045  1.0000
  C   C17       1.0  0.8873136443758182  0.9442404944455777  0.837876546888833  1.0000
  C   C18       1.0  0.8984783420525417  0.832215560229354  0.7721542727178627  1.0000
  C   C19       1.0  0.9206639928173262  0.842310093545571  0.6425256099143333  1.0000
  C   C20       1.0  0.9317033171871413  0.9664337078330894  0.5784769173728128  1.0000
  C   C21       1.0  0.8638471207622092  0.9325077058766753  0.9750170429927216  1.0000
  C   C22       1.0  0.8078756660805372  0.8392127356809377  0.015512239066020728  1.0000
  C   C23       1.0  0.7858586620974534  0.8284467870554457  0.14445471202235916  1.0000
  C   C24       1.0  0.819317078294865  0.9102862110216249  0.2345361781923886  1.0000
  C   C25       1.0  0.875493103444832  0.004199896387604429  0.1959294142383553  1.0000
  C   C26       1.0  0.8972721737880546  0.014594067122588594  0.06644080526491625  1.0000
  O   O1        1.0  0.9109707636994006  0.08848087670908367  0.28269600058342437  1.0000
  C   C27       1.0  0.8945458868634092  0.08879033385261503  0.4166922530378603  1.0000
  H   H9        1.0  0.9292891488588113  0.41164917296999826  0.5932338938175405  1.0000
  H   H10       1.0  0.8890573817115981  0.15413102766451092  0.821880014761944  1.0000
  H   H11       1.0  0.8908389125169764  0.7370004242823278  0.8228988391510845  1.0000
  H   H12       1.0  0.9488192262631256  0.9749897540613282  0.47847465058541094  1.0000
  H   H13       1.0  0.9290795610162987  0.5187034338533945  0.5931124242132555  1.0000
  H   H14       1.0  0.7804230358107657  0.7757601408031789  0.9470601020923455  1.0000
  H   H15       1.0  0.7425344876342903  0.7565961768134921  0.17459585295845959  1.0000
  H   H16       1.0  0.8011528087848974  0.8997798355831563  0.33372049371918855  1.0000
  H   H17       1.0  0.9412156378249736  0.08604607626614258  0.03786311198166403  1.0000
  H   H18       1.0  0.9078075780764915  0.992859163497649  0.4683983845577737  1.0000
  H   H19       1.0  0.9307570731746132  0.16502683060686163  0.46186417353281917  1.0000
  H   H20       1.0  0.833302293387327  0.11103049825887679  0.4261265021499163  1.0000
  C   C28       1.0  0.9206670571777485  0.46080007715063465  0.26118670515979736  1.0000
  C   C29       1.0  0.8413510858572054  0.43295462543994057  0.2553830629807541  1.0000
  C   C30       1.0  0.8012753501827358  0.4190052405006153  0.13528428440443707  1.0000
  C   C31       1.0  0.8415320387316372  0.4332798287324833  0.020089844965521797  1.0000
  C   C32       1.0  0.920798801927844  0.46110069642179474  0.023942523200516597  1.0000
  C   C33       1.0  0.9599034688820695  0.4746947667568999  0.14498663900236775  1.0000
  C   C34       1.0  0.7174188054861417  0.3895788221447207  0.13012147475863522  1.0000
  C   C35       1.0  0.6688844331237526  0.45269477079301956  0.033484635673301844  1.0000
  C   C36       1.0  0.5899704663950417  0.4250467163672522  0.028704077386344062  1.0000
  C   C37       1.0  0.5582627969063282  0.3329496056148491  0.1195826404012239  1.0000
  C   C38       1.0  0.6062822864964899  0.2709074358555126  0.21709586658982127  1.0000
  C   C39       1.0  0.6851998981802849  0.29852600229059645  0.22205487478983899  1.0000
  C   C40       1.0  0.473246310233727  0.30594863094113545  0.11655829780509408  1.0000
  O   O2        1.0  0.4387710490011916  0.39203000662945775  0.19324243208030767  1.0000
  H   H21       1.0  0.0702821623581622  0.5141851088316682  0.4793616834773675  1.0000
  H   H22       1.0  0.8104214202809691  0.4238396265026563  0.34433348413580966  1.0000
  H   H23       1.0  0.8110943290292043  0.42089777652583726  0.9274260291055252  1.0000
  H   H24       1.0  0.02104387944267283  0.49615746191290633  0.14867411145757714  1.0000
  H   H25       1.0  0.9512774215070224  0.47188705205326986  0.6979415091387295  1.0000
  H   H26       1.0  0.691805383787158  0.524952046720758  0.9627925551265788  1.0000
  H   H27       1.0  0.5535600415522822  0.4757359718189942  0.954245254321334  1.0000
  H   H28       1.0  0.5826534901822152  0.20082561903230833  0.28916982925961454  1.0000
  H   H29       1.0  0.721149267969583  0.247616103875252  0.2969992772799308  1.0000
  H   H30       1.0  0.46108808854759276  0.2036305312021638  0.15439319522462625  1.0000
  H   H31       1.0  0.4489598150505277  0.318252754946434  0.01444293739075353  1.0000
  H   H32       1.0  0.38300282534050667  0.37023996290534766  0.1879864887650975  1.0000
  Zn  Zn1       1.0  0.8366662487290755  0.4572789950716385  0.6357012879110502  1.0000
  Zn  Zn2       1.0  0.004792247801473248  0.4646208317443856  0.6494267581203368  1.0000
  C   C41       1.0  0.9207731085556445  0.455870175473706  0.8797657413458273  1.0000
  C   C42       1.0  0.9206872236313325  0.4660313701667762  0.40536258186929763  1.0000
  C   C43       1.0  0.9206851932921275  0.6981376942771049  0.6373647695591622  1.0000
  C   C44       1.0  0.9207750818192632  0.22376228859996283  0.6477636183721109  1.0000
  O   O3        1.0  0.9844969331537295  0.4705675629672419  0.4589580681483485  1.0000
  O   O4        1.0  0.9845671422709591  0.4569052869702297  0.8365871956151099  1.0000
  O   O5        1.0  0.9844952897228897  0.6525393352679931  0.6408466255149274  1.0000
  O   O6        1.0  0.9845687283132876  0.27493352141594873  0.6546985361870421  1.0000
  O   O7        1.0  0.8568897108441076  0.6469663028960779  0.6304295051536843  1.0000
  O   O8        1.0  0.8569615630946101  0.45133381485773083  0.8261700058470582  1.0000
  O   O9        1.0  0.8568913537669293  0.4649960449861077  0.4485393169515466  1.0000
  O   O10       1.0  0.856963148941845  0.2693619941843466  0.6442798823610685  1.0000
