data_image0
_chemical_formula_structural       NC9NC5H8C12NH11C12IH9Zn2C4O8
_chemical_formula_sum              "N3 C42 H28 I1 Zn2 O8"
_cell_length_a       17.807436237873137
_cell_length_b       10.299770795358612
_cell_length_c       10.29977335064465
_cell_angle_alpha    85.53972113204546
_cell_angle_beta     89.4010069247268
_cell_angle_gamma    88.40764042794568

_space_group_name_H-M_alt    "P 1"
_space_group_IT_number       1

loop_
  _space_group_symop_operation_xyz
  'x, y, z'

loop_
  _atom_site_type_symbol
  _atom_site_label
  _atom_site_symmetry_multiplicity
  _atom_site_fract_x
  _atom_site_fract_y
  _atom_site_fract_z
  _atom_site_occupancy
  N   N1        1.0  0.7075241525262252  0.38815701229102806  0.5570018938465284  1.0000
  C   C1        1.0  0.646929320281923  0.35297086088675833  0.5459811786331215  1.0000
  C   C2        1.0  0.5715560089052254  0.3092031634464665  0.5322726055192037  1.0000
  C   C3        1.0  0.5534420702769095  0.23781923747839273  0.42727619843893283  1.0000
  C   C4        1.0  0.4802584467899345  0.19521270489943987  0.413883439129211  1.0000
  C   C5        1.0  0.4241399730877334  0.2236125821880408  0.5054546696716  1.0000
  C   C6        1.0  0.3463646748825656  0.1784477028283682  0.49130369881377645  1.0000
  C   C7        1.0  0.2842053184915774  0.2601954696846567  0.5172351713233045  1.0000
  C   C8        1.0  0.2108793552168894  0.21738589730747626  0.5038561116687232  1.0000
  C   C9        1.0  0.1476704229151925  0.30182488125771045  0.5301512417993968  1.0000
  N   N2        1.0  0.0968634285280397  0.3697079822117577  0.5512918004694856  1.0000
  C   C10       1.0  0.1991291551175949  0.09257058829993037  0.46452025327099244  1.0000
  C   C11       1.0  0.2604311384342006  0.010808971724484806  0.438580392320977  1.0000
  C   C12       1.0  0.3336375804822733  0.05322406595892204  0.4517569494295164  1.0000
  C   C13       1.0  0.4429454247862196  0.295490805713037  0.6106702614550377  1.0000
  C   C14       1.0  0.5161818711516988  0.33790699098657884  0.6239073872497041  1.0000
  H   H1        1.0  0.5958262959357902  0.21535498450518187  0.35556543703382015  1.0000
  H   H2        1.0  0.4673285922426837  0.14155498888661655  0.3309678156032807  1.0000
  H   H3        1.0  0.2927228535137357  0.3576509149332123  0.5461033258141168  1.0000
  H   H4        1.0  0.1426570740111932  0.05853798388559217  0.45392847252751856  1.0000
  H   H5        1.0  0.2512152930436046  0.9141739635440411  0.4085117506492797  1.0000
  H   H6        1.0  0.3802649160680012  0.9874852772697117  0.4327145424925347  1.0000
  H   H7        1.0  0.4012781040323554  0.3174156414429268  0.6836755715358431  1.0000
  H   H8        1.0  0.5296401957419636  0.39278557985399587  0.7057812716382756  1.0000
  C   C15       1.0  0.9021293050168288  0.9975670170827549  0.5541874072808555  1.0000
  C   C16       1.0  0.8803122486199151  0.00781420105678654  0.4230969782537055  1.0000
  C   C17       1.0  0.869326277974609  0.8958671174014997  0.3566363186424153  1.0000
  C   C18       1.0  0.880449747857131  0.7725260920555903  0.42302640884584686  1.0000
  C   C19       1.0  0.9022654447889473  0.7602876805274229  0.5541174083582456  1.0000
  C   C20       1.0  0.9129834204687688  0.873368892980996  0.6189636851286748  1.0000
  C   C21       1.0  0.8462454274840475  0.9077614328770106  0.21795024853723266  1.0000
  C   C22       1.0  0.7915384015493147  0.0015447469253802026  0.17356542333699987  1.0000
  C   C23       1.0  0.7698469174241707  0.012608925262758586  0.04303256085132068  1.0000
  C   C24       1.0  0.8024520091429588  0.930329286101383  0.9548104044756673  1.0000
  C   C25       1.0  0.8569786768898797  0.836752858264969  0.9983073160344689  1.0000
  C   C26       1.0  0.878730339289459  0.8254298112745567  0.12880932293105518  1.0000
  N   N3        1.0  0.7802324238604705  0.9417794090982969  0.8213007817812072  1.0000
  H   H9        1.0  0.9104106650166636  0.3211161328042549  0.6041565391799382  1.0000
  H   H10       1.0  0.8728077196441968  0.10309000529506207  0.37185480009807925  1.0000
  H   H11       1.0  0.8710595199624056  0.6859567313441669  0.3727519895303255  1.0000
  H   H12       1.0  0.929813720200622  0.8646956455676477  0.7200941542536452  1.0000
  H   H13       1.0  0.9106108974464026  0.4281702942271863  0.6040539788566046  1.0000
  H   H14       1.0  0.7648205822246191  0.06520267363263788  0.24016049391548422  1.0000
  H   H15       1.0  0.7274887005396623  0.08510679668708443  0.010742217885690186  1.0000
  H   H16       1.0  0.8827673452025999  0.772793604871702  0.9310365993148699  1.0000
  H   H17       1.0  0.9216643445403366  0.7534153449997282  0.1596516788519058  1.0000
  H   H18       1.0  0.8042179993817345  0.8808667130519288  0.7548093941021912  1.0000
  H   H19       1.0  0.7396325113252333  0.011254240050684983  0.7879614836803772  1.0000
  C   C27       1.0  0.9021615807041942  0.3790351179573139  0.17278375147839786  1.0000
  C   C28       1.0  0.9702745370092353  0.44481101214343055  0.16544144438583186  1.0000
  C   C29       1.0  0.0048240087377153795  0.47803063437967097  0.04459048385546249  1.0000
  C   C30       1.0  0.970346762991455  0.44459343334118273  0.9301707908309957  1.0000
  C   C31       1.0  0.9022331778817463  0.37881957389589127  0.93552114876515  1.0000
  C   C32       1.0  0.8685222854843895  0.34640765192324796  0.057290174031341845  1.0000
  C   C33       1.0  0.0768815387914652  0.5476137361540465  0.037876957848109516  1.0000
  C   C34       1.0  0.08871768822922754  0.6500718998938877  0.1175048121046871  1.0000
  C   C35       1.0  0.15657753261757557  0.7154485186137849  0.11098364139255756  1.0000
  C   C36       1.0  0.21335553886543845  0.6793984858718787  0.02516455857374833  1.0000
  C   C37       1.0  0.2022442184637696  0.5777921725965232  0.9456687356102251  1.0000
  C   C38       1.0  0.13446054557555365  0.5121859727122744  0.951782867678248  1.0000
  I   I1        1.0  0.3156637129652573  0.7781892985362115  0.015636630405950536  1.0000
  H   H20       1.0  0.876185627609811  0.3540375545240695  0.5030303071851874  1.0000
  H   H21       1.0  0.9971431504212502  0.46878479864897993  0.2540220064818548  1.0000
  H   H22       1.0  0.996224314015587  0.471554904566571  0.8366759580956322  1.0000
  H   H23       1.0  0.8159758191024958  0.29566570004803183  0.06218607631640971  1.0000
  H   H24       1.0  0.876290478005368  0.35372044484681764  0.6101089576052514  1.0000
  H   H25       1.0  0.045160649388622076  0.6807137593294075  0.18353177412241561  1.0000
  H   H26       1.0  0.16490597289390152  0.794330759526402  0.17244029831764585  1.0000
  H   H27       1.0  0.24617062025785863  0.5493690374917821  0.8793450165805101  1.0000
  H   H28       1.0  0.1274375304085693  0.4327009874443104  0.8904680235413855  1.0000
  Zn  Zn1       1.0  0.8198790562825994  0.38282955335519664  0.555361595348258  1.0000
  Zn  Zn2       1.0  0.9845085056870249  0.3750248520562005  0.5529427765440174  1.0000
  C   C39       1.0  0.9022170412352887  0.3736867636157424  0.7913479174435971  1.0000
  C   C40       1.0  0.9021723187872585  0.3841691951366699  0.31695655535134426  1.0000
  C   C41       1.0  0.9022353632526402  0.6161188782437939  0.5489555665853181  1.0000
  C   C42       1.0  0.9021539403213709  0.14173552286438396  0.5593489764166824  1.0000
  O   O1        1.0  0.9646519396500989  0.3829247291820166  0.36442433675511876  1.0000
  O   O2        1.0  0.9646873629942793  0.36900666226533607  0.7420439347791081  1.0000
  O   O3        1.0  0.9647013161751498  0.5647737003454898  0.5463104087454103  1.0000
  O   O4        1.0  0.9646379302848676  0.18715770308273139  0.5601577662387356  1.0000
  O   O5        1.0  0.839749575504805  0.5706967049934428  0.5481466064721328  1.0000
  O   O6        1.0  0.8397356225925185  0.37493122722230154  0.7438800631173639  1.0000
  O   O7        1.0  0.8397001991436657  0.38884924932232035  0.3662589036970658  1.0000
  O   O8        1.0  0.8396861897828435  0.19308221390694458  0.5619924305493564  1.0000
