data_image0
_chemical_formula_structural       NC10NC5H10C16H10C12NH11Zn2C4O8
_chemical_formula_sum              "N3 C47 H31 Zn2 O8"
_cell_length_a       19.4436361288709
_cell_length_b       10.29914801576943
_cell_length_c       10.299774167527174
_cell_angle_alpha    85.55390253719857
_cell_angle_beta     89.69810155224394
_cell_angle_gamma    89.43179634642199

_space_group_name_H-M_alt    "P 1"
_space_group_IT_number       1

loop_
  _space_group_symop_operation_xyz
  'x, y, z'

loop_
  _atom_site_type_symbol
  _atom_site_label
  _atom_site_symmetry_multiplicity
  _atom_site_fract_x
  _atom_site_fract_y
  _atom_site_fract_z
  _atom_site_occupancy
  N   N1        1.0  0.6479123864103161  0.4090026744871309  0.5616014061179195  1.0000
  C   C1        1.0  0.58907766629195  0.41890699007675924  0.5759809012978554  1.0000
  C   C2        1.0  0.5157498978545638  0.43125900543337026  0.593967629528156  1.0000
  C   C3        1.0  0.47356230895289564  0.39924878349809134  0.4993103721212495  1.0000
  C   C4        1.0  0.39765892127360286  0.40968849383482797  0.5046341382430148  1.0000
  C   C5        1.0  0.357916161409334  0.38495089774221825  0.6117118123592693  1.0000
  C   C6        1.0  0.2817961512175793  0.38886634156078914  0.5987514378361345  1.0000
  C   C7        1.0  0.24124001231845602  0.44654285879952016  0.6924956257817028  1.0000
  C   C8        1.0  0.16957710807573292  0.4501796912548923  0.6819507383963688  1.0000
  C   C9        1.0  0.1374755367402759  0.3957439969457657  0.5779483329184598  1.0000
  C   C10       1.0  0.063683396057128  0.3994420596996815  0.5672481459991963  1.0000
  N   N2        1.0  0.0043595199893294  0.40241510811994785  0.558645905105889  1.0000
  C   C11       1.0  0.1773066953288663  0.33736037792562334  0.4845876409436509  1.0000
  C   C12       1.0  0.2489860229792234  0.3336692885469128  0.4948807826093078  1.0000
  C   C13       1.0  0.38604336311389825  0.34450193536336315  0.7428168393292693  1.0000
  C   C14       1.0  0.4447120812817017  0.3876325421992042  0.7900404837498021  1.0000
  C   C15       1.0  0.4889319667340732  0.48548985022898306  0.7156378219272297  1.0000
  H   H1        1.0  0.49565814009613934  0.37011913855320233  0.40901871271295054  1.0000
  H   H2        1.0  0.3729637199758056  0.4321742860038753  0.41147085206665235  1.0000
  H   H3        1.0  0.265115446961717  0.4898463127846273  0.7733236364538079  1.0000
  H   H4        1.0  0.13923756449957783  0.4955061253947639  0.7548508207518625  1.0000
  H   H5        1.0  0.1529594008226123  0.2942526346926937  0.40409402270696493  1.0000
  H   H6        1.0  0.2786596688654508  0.28609937066745217  0.4226778828044504  1.0000
  H   H7        1.0  0.3550696290596885  0.28028721118675937  0.8070862237226384  1.0000
  H   H8        1.0  0.45985732651625744  0.3535738307148939  0.8879841888900482  1.0000
  H   H9        1.0  0.4588343311808017  0.5762082600634197  0.6903514401783515  1.0000
  H   H10       1.0  0.5322199318988283  0.5110850077176694  0.7787101590743519  1.0000
  C   C16       1.0  0.8260902554675813  0.0243084139462435  0.5602896004369575  1.0000
  C   C17       1.0  0.8103944338062146  0.03415848568491198  0.4269518918413455  1.0000
  C   C18       1.0  0.8024868717333034  0.9220219384692181  0.3591818278140766  1.0000
  C   C19       1.0  0.8104862716781579  0.7989048556663608  0.42654655865459556  1.0000
  C   C20       1.0  0.8261882188434595  0.7870992532178598  0.5599689654627158  1.0000
  C   C21       1.0  0.8338947601071496  0.9003187354587586  0.6260189495662742  1.0000
  C   C22       1.0  0.7858827551084829  0.9334877289671835  0.2181266112810729  1.0000
  C   C23       1.0  0.8184287029111019  0.8518763624397043  0.13264298139833564  1.0000
  C   C24       1.0  0.802777452240614  0.862793190139884  0.9998874486721117  1.0000
  C   C25       1.0  0.7544195712551446  0.9552241384352024  0.9508127057440965  1.0000
  C   C26       1.0  0.7217482902748086  0.03681776333484299  0.035013492908289034  1.0000
  C   C27       1.0  0.7373505014214741  0.026143113735844548  0.16779037785798345  1.0000
  C   C28       1.0  0.7383319764160933  0.9663388457317066  0.8141282261504377  1.0000
  C   C29       1.0  0.724858789135157  0.9756473066067815  0.6996569523491898  1.0000
  C   C30       1.0  0.7090818459469881  0.986547389050833  0.5656122578315417  1.0000
  C   C31       1.0  0.6956109199038616  0.99585443633947  0.45115947219484953  1.0000
  H   H11       1.0  0.8320921684141758  0.3479949120574559  0.6115913813815848  1.0000
  H   H12       1.0  0.8052090644354695  0.12929454477551672  0.3750871889873466  1.0000
  H   H13       1.0  0.8035255946761964  0.7121252850334747  0.37519113445184327  1.0000
  H   H14       1.0  0.8459993384832272  0.8920052689989096  0.7288666190882769  1.0000
  H   H15       1.0  0.8553988807078939  0.5575181577159352  0.8119785252003533  1.0000
  H   H16       1.0  0.8566335809349266  0.780776043112495  0.16817425566735578  1.0000
  H   H17       1.0  0.8285134617180373  0.7993759739407487  0.9355021549541136  1.0000
  H   H18       1.0  0.6840905534708137  0.10847192430840691  0.9981078523166302  1.0000
  H   H19       1.0  0.7108127663864596  0.08918510606654162  0.2313795685545601  1.0000
  H   H20       1.0  0.6837823623504867  0.004026809066430825  0.35066027527821664  1.0000
  C   C32       1.0  0.8261626270927219  0.4055888773925991  0.1787770324704845  1.0000
  C   C33       1.0  0.7587959253351901  0.3575278053561597  0.1821770378733487  1.0000
  C   C34       1.0  0.7246366176676685  0.3332911520730746  0.06675217921160659  1.0000
  C   C35       1.0  0.7587487034231378  0.357759998909956  0.946872621376226  1.0000
  C   C36       1.0  0.8261158423986283  0.40581883617837944  0.9414814689200424  1.0000
  C   C37       1.0  0.8594454560900439  0.4294646558425652  0.05795611437284243  1.0000
  C   C38       1.0  0.6533665516414903  0.2824458901386424  0.07140253628421545  1.0000
  C   C39       1.0  0.6340242508178702  0.18434106999192545  0.16690293828071678  1.0000
  C   C40       1.0  0.5669416773300422  0.13654109718288887  0.17114615306254555  1.0000
  C   C41       1.0  0.5181402362244085  0.18597283414586374  0.08022583662119409  1.0000
  C   C42       1.0  0.53702862228248  0.2836958491045525  0.9848887265284372  1.0000
  C   C43       1.0  0.6040905561859661  0.33159747387044636  0.980379360311268  1.0000
  N   N3        1.0  0.4495303243884438  0.137024936208904  0.08470240857220346  1.0000
  H   H21       1.0  0.8518441150528299  0.4238484595213019  0.5049390009751062  1.0000
  H   H22       1.0  0.7323878222054776  0.3405112196650053  0.2746890224041669  1.0000
  H   H23       1.0  0.7329878978886359  0.3375587723146598  0.8577644704015128  1.0000
  H   H24       1.0  0.9114159140884157  0.466540670528671  0.054565178757052024  1.0000
  H   H25       1.0  0.8517754595552928  0.424186707129387  0.6119696513462052  1.0000
  H   H26       1.0  0.6710165754709344  0.14338578009185965  0.23726292497334023  1.0000
  H   H27       1.0  0.5530574418830713  0.06074454341902413  0.24511151172791434  1.0000
  H   H28       1.0  0.4997489590005591  0.3229909966523026  0.9142617675176998  1.0000
  H   H29       1.0  0.6171708574444441  0.4082754541685807  0.9067523218815716  1.0000
  H   H30       1.0  0.4127927140994151  0.17326335328788112  0.017327564379561622  1.0000
  H   H31       1.0  0.4349654599919993  0.06418648389995196  0.15542504056741824  1.0000
  Zn  Zn1       1.0  0.7507753298397377  0.4070981757411265  0.5607560256383208  1.0000
  Zn  Zn2       1.0  0.9014965660575455  0.40430900152643257  0.5595019707578384  1.0000
  C   C44       1.0  0.8261224954209083  0.4006012644853081  0.7973162166690659  1.0000
  C   C45       1.0  0.8261510465502481  0.41080752111792207  0.3229418928048291  1.0000
  C   C46       1.0  0.826166484562674  0.6429140635945982  0.5548546341159266  1.0000
  C   C47       1.0  0.8261070057731963  0.16849316254978453  0.5654035456774666  1.0000
  O   O1        1.0  0.8833450829409878  0.41149480233702707  0.3708490319856803  1.0000
  O   O2        1.0  0.883322389764555  0.3977960846582207  0.7484569054329879  1.0000
  O   O3        1.0  0.8833571404146715  0.593466749078416  0.5526674679132462  1.0000
  O   O4        1.0  0.8833102808670877  0.21582414813022432  0.5666383725590309  1.0000
  O   O5        1.0  0.7689615635964354  0.5955830300905545  0.5536196242582445  1.0000
  O   O6        1.0  0.7689268131478451  0.3999139260824267  0.7494089918796045  1.0000
  O   O7        1.0  0.7689495064599574  0.4136125980300023  0.37179955711853907  1.0000
  O   O8        1.0  0.7689147043760809  0.21794193456302713  0.5675889950593975  1.0000
