data_image0
_chemical_formula_structural       NC8NC6H8C16H10C12NCOH11Zn2C4O8
_chemical_formula_sum              "N3 C47 H29 O9 Zn2"
_cell_length_a       17.457602349358154
_cell_length_b       10.29914801576943
_cell_length_c       10.299148425239203
_cell_angle_alpha    85.5134079146002
_cell_angle_beta     92.86184502014838
_cell_angle_gamma    91.70309287404056

_space_group_name_H-M_alt    "P 1"
_space_group_IT_number       1

loop_
  _space_group_symop_operation_xyz
  'x, y, z'

loop_
  _atom_site_type_symbol
  _atom_site_label
  _atom_site_symmetry_multiplicity
  _atom_site_fract_x
  _atom_site_fract_y
  _atom_site_fract_z
  _atom_site_occupancy
  N   N1        1.0  0.7228410463263039  0.4535300041989707  0.6258305480729691  1.0000
  C   C1        1.0  0.6617581389258373  0.40760529087150044  0.6152329061846045  1.0000
  C   C2        1.0  0.5857684184612739  0.35048065837808706  0.6020589798821978  1.0000
  C   C3        1.0  0.5272342094793393  0.39061468469982064  0.6769448099914592  1.0000
  C   C4        1.0  0.4526827823177328  0.33560823962777864  0.6643844952528979  1.0000
  C   C5        1.0  0.3905573292284065  0.37798376089317864  0.7436914816540698  1.0000
  C   C6        1.0  0.3160217515857667  0.3964770193501401  0.687917072937537  1.0000
  C   C7        1.0  0.2574874970662434  0.43642705940629534  0.7629109382383195  1.0000
  C   C8        1.0  0.1815141862214742  0.4555271475250797  0.7049206876850242  1.0000
  N   N2        1.0  0.1204445598725128  0.4708772380667918  0.6582966798981063  1.0000
  C   C9        1.0  0.2729966153663217  0.4581267910121012  0.8941876614515867  1.0000
  C   C10       1.0  0.3467474860788726  0.4400223907159526  0.95034953311333  1.0000
  C   C11       1.0  0.4052700922064428  0.40025222931242554  0.875813343371628  1.0000
  C   C12       1.0  0.4379543297647673  0.2397908889986884  0.5755056203159827  1.0000
  C   C13       1.0  0.4964767999960867  0.1999353995328117  0.5010197040753086  1.0000
  C   C14       1.0  0.5702433943698638  0.2550540002547932  0.5141299560260928  1.0000
  H   H1        1.0  0.5395789406209698  0.4657876377704948  0.7435488905317884  1.0000
  H   H2        1.0  0.3036900462491102  0.3815480521816419  0.5858925316999597  1.0000
  H   H3        1.0  0.2281311644388527  0.4889876425084212  0.9530144615599647  1.0000
  H   H4        1.0  0.3585657600944867  0.45650930740295403  0.052000156210283754  1.0000
  H   H5        1.0  0.461746580197184  0.3852398893664275  0.9219286938741387  1.0000
  H   H6        1.0  0.38146479035447056  0.19445590934497958  0.5648716189481622  1.0000
  H   H7        1.0  0.4846462199994286  0.12587950379202306  0.43321677472267894  1.0000
  H   H8        1.0  0.6151086872224091  0.22332316302537847  0.4558146663327889  1.0000
  C   C15       1.0  0.9215918128513322  0.08079993749515735  0.642225011828679  1.0000
  C   C16       1.0  0.9040947818577739  0.08969117753007683  0.5073129687549445  1.0000
  C   C17       1.0  0.8952798190289272  0.9770719941025754  0.43874968937497294  1.0000
  C   C18       1.0  0.9041972571524706  0.854444002564224  0.506916717678898  1.0000
  C   C19       1.0  0.9217011138860436  0.8435975827407901  0.641914076937514  1.0000
  C   C20       1.0  0.930291988338077  0.9572874299926788  0.708737112095801  1.0000
  C   C21       1.0  0.8767702597593922  0.9875234676932451  0.2960290337002627  1.0000
  C   C22       1.0  0.9130811231747539  0.9081582269678462  0.2137703183491897  1.0000
  C   C23       1.0  0.8956337611287238  0.9181188006827034  0.07944494396994028  1.0000
  C   C24       1.0  0.8416964499979095  0.007337865370444785  0.025559280135371454  1.0000
  C   C25       1.0  0.8052458886116793  0.08667786351411166  0.10652255767848762  1.0000
  C   C26       1.0  0.8226385471565303  0.07695616006129669  0.24086441331423436  1.0000
  C   C27       1.0  0.8237626885586349  0.017469821455662782  0.8872611680932629  1.0000
  C   C28       1.0  0.8087433566066622  0.025955238424045568  0.7714384945637551  1.0000
  C   C29       1.0  0.7911558962839493  0.03589154630516944  0.6358113269041081  1.0000
  C   C30       1.0  0.7761390851230651  0.044375688336399044  0.5200073682688036  1.0000
  H   H9        1.0  0.9282824626976909  0.40485285811738403  0.69412883569239  1.0000
  H   H10       1.0  0.8983150021181834  0.18451603982031006  0.4549273054568399  1.0000
  H   H11       1.0  0.89643714680269  0.7672336740939971  0.4548639675901398  1.0000
  H   H12       1.0  0.9437856533520869  0.9497133993420558  0.8127989063884025  1.0000
  H   H13       1.0  0.9542635905662241  0.6157981660532701  0.8968539689310868  1.0000
  H   H14       1.0  0.9556942681301929  0.8395977475242676  0.2531020803592694  1.0000
  H   H15       1.0  0.924346646003744  0.8564754405076453  0.017610132052730876  1.0000
  H   H16       1.0  0.7632431729740378  0.15582990030172605  0.06587065135411319  1.0000
  H   H17       1.0  0.7930314338702572  0.1381710340567357  0.3018233638397507  1.0000
  H   H18       1.0  0.762953116019859  0.05182548431015199  0.41832173263441064  1.0000
  C   C31       1.0  0.9217041946533256  0.46235713821385094  0.2606779664029726  1.0000
  C   C32       1.0  0.9995488078774667  0.5013153840911271  0.26304998791727097  1.0000
  C   C33       1.0  0.038895760600527574  0.5208484900452046  0.14711065192378192  1.0000
  C   C34       1.0  0.9993870256612973  0.500968146221779  0.0277797653304257  1.0000
  C   C35       1.0  0.9215887303747118  0.4620403972646894  0.023461057790022277  1.0000
  C   C36       1.0  0.8832037335643392  0.4429541637841947  0.14045315723158747  1.0000
  C   C37       1.0  0.12119965774936237  0.5620353493101666  0.15070885275581358  1.0000
  C   C38       1.0  0.17274422776821075  0.5069083794401517  0.0713437208859804  1.0000
  C   C39       1.0  0.25015505127499926  0.5458021448283235  0.07487565550333586  1.0000
  C   C40       1.0  0.27783360375174326  0.6392905605452106  0.15860602190993256  1.0000
  C   C41       1.0  0.22621315979498258  0.6962605927430996  0.23639578736897815  1.0000
  C   C42       1.0  0.14876768041812127  0.6574719929748329  0.23295781944825578  1.0000
  N   N3        1.0  0.35751544337836094  0.6789770825125665  0.1585618216026663  1.0000
  C   C43       1.0  0.4016506192427449  0.717578829610954  0.2708803767503023  1.0000
  O   O1        1.0  0.3756895888577727  0.7022824160140393  0.3831266564835589  1.0000
  H   H19       1.0  0.7748982752369206  0.38806673989240936  0.4635640411644497  1.0000
  H   H20       1.0  0.02998950756183394  0.5148399479287435  0.3554568988459861  1.0000
  H   H21       1.0  0.029156213886006643  0.5176599486606934  0.937971201955583  1.0000
  H   H22       1.0  0.8231968605011839  0.4129247214357936  0.137837200431151  1.0000
  H   H23       1.0  0.891667661572415  0.44703153697105114  0.6943270275736033  1.0000
  H   H24       1.0  0.15339103068199877  0.43254798316068754  0.007621429918839295  1.0000
  H   H25       1.0  0.28891348605369704  0.5019513360240038  0.01310464293507585  1.0000
  H   H26       1.0  0.24513130051109666  0.7727667296828893  0.29767503756032787  1.0000
  H   H27       1.0  0.11010015538852325  0.703993248223814  0.292842562931511  1.0000
  H   H28       1.0  0.3870212119169041  0.6713243236408506  0.07379177659823477  1.0000
  H   H29       1.0  0.4592618409170286  0.757135293211374  0.2597451886465705  1.0000
  Zn  Zn1       1.0  0.8375808300252566  0.45853255503719903  0.6352070727444084  1.0000
  Zn  Zn2       1.0  0.005704758788231512  0.4658640340186979  0.6489307927266827  1.0000
  C   C44       1.0  0.9216081092606077  0.45692603993504854  0.8792807203121047  1.0000
  C   C45       1.0  0.9216793156764959  0.46747226789700314  0.40485742182754403  1.0000
  C   C46       1.0  0.9216772944545722  0.6994145784658947  0.6367970271530956  1.0000
  C   C47       1.0  0.921610072879493  0.22498216639028978  0.6473411801824787  1.0000
  O   O2        1.0  0.9854731200329546  0.4719655439511108  0.4584534466850292  1.0000
  O   O3        1.0  0.9854164766285214  0.4579962071320942  0.8361003079070926  1.0000
  O   O4        1.0  0.9854714842596443  0.6538087306149347  0.6402929393098689  1.0000
  O   O5        1.0  0.9854180550485943  0.2761530272980417  0.6542607132150382  1.0000
  O   O6        1.0  0.8578674763924494  0.6482435592573983  0.6298771475659888  1.0000
  O   O7        1.0  0.8578124689919203  0.4524325962499671  0.8256844462772228  1.0000
  O   O8        1.0  0.857869112677241  0.4664018884595049  0.4480360235843559  1.0000
  O   O9        1.0  0.8578140476736735  0.2705893624762068  0.6438433874915157  1.0000
