data_image0
_chemical_formula_structural       NC11NC3H8C12OCH12C13NH9Zn2C4O8
_chemical_formula_sum              "N3 C44 H29 O9 Zn2"
_cell_length_a       17.807433833752565
_cell_length_b       10.29979075500242
_cell_length_c       10.298528502251457
_cell_angle_alpha    85.53676387981383
_cell_angle_beta     88.52196449538943
_cell_angle_gamma    90.66694566819858

_space_group_name_H-M_alt    "P 1"
_space_group_IT_number       1

loop_
  _space_group_symop_operation_xyz
  'x, y, z'

loop_
  _atom_site_type_symbol
  _atom_site_label
  _atom_site_symmetry_multiplicity
  _atom_site_fract_x
  _atom_site_fract_y
  _atom_site_fract_z
  _atom_site_occupancy
  N   N1        1.0  0.7071974346073103  0.43895266077710304  0.5343838959952703  1.0000
  C   C1        1.0  0.6563823346970509  0.40420400403763224  0.6009565331134676  1.0000
  C   C2        1.0  0.5931632245031387  0.36097954033997226  0.6837643981910033  1.0000
  C   C3        1.0  0.6048983272921489  0.2973888882955129  0.8065017530964222  1.0000
  C   C4        1.0  0.5435863738200575  0.2558449472853823  0.8870253041719809  1.0000
  C   C5        1.0  0.4703850083327836  0.27757817842175325  0.8454523936545277  1.0000
  C   C6        1.0  0.45767309710774545  0.3413235343781491  0.7222547761679574  1.0000
  C   C7        1.0  0.3799033511285826  0.3643878021950091  0.6779007932294399  1.0000
  C   C8        1.0  0.3611262018577234  0.34755909485299474  0.5483059435656532  1.0000
  C   C9        1.0  0.287894901867369  0.3692536131378461  0.5066889587572754  1.0000
  C   C10       1.0  0.23249764285856792  0.40809563748507105  0.5938464299602471  1.0000
  C   C11       1.0  0.1571295412713916  0.430449069594796  0.5508679439777  1.0000
  N   N2        1.0  0.0965389612477736  0.4484195683560055  0.5163163692156365  1.0000
  C   C12       1.0  0.2505832055452717  0.4251350973469421  0.7229100678751734  1.0000
  C   C13       1.0  0.32376174319541  0.4034055639768206  0.7647825150178895  1.0000
  C   C14       1.0  0.5198423628352906  0.38286290501214837  0.6417476431943259  1.0000
  H   H1        1.0  0.661366308009758  0.2799634317073558  0.8398724471103967  1.0000
  H   H2        1.0  0.5527906900582756  0.20636149711964413  0.9817760790516505  1.0000
  H   H3        1.0  0.4237501647442803  0.24300129209077914  0.9089013599335996  1.0000
  H   H4        1.0  0.4028119747003819  0.31594060347032005  0.4795832342666986  1.0000
  H   H5        1.0  0.2744585342914031  0.355406506081301  0.40664330947880556  1.0000
  H   H6        1.0  0.208180879118811  0.455530748168242  0.7911180267884115  1.0000
  H   H7        1.0  0.3366694100061133  0.4187981237190801  0.8646452868279932  1.0000
  H   H8        1.0  0.5113362769951793  0.4337086137901738  0.5472311233920508  1.0000
  C   C15       1.0  0.9019392995536192  0.062320071758847684  0.5253857650509044  1.0000
  C   C16       1.0  0.8801889879195987  0.05057936185923406  0.6578498811882081  1.0000
  C   C17       1.0  0.8691083236732652  0.9274925315469882  0.724940067243729  1.0000
  C   C18       1.0  0.8800540208599884  0.8152938097974376  0.6577903509446485  1.0000
  C   C19       1.0  0.9018042991709099  0.8250423044429914  0.5253253037203811  1.0000
  C   C20       1.0  0.91262689794729  0.9489934063264622  0.4598653157747725  1.0000
  C   C21       1.0  0.8461023029531559  0.9161257398369146  0.8650807079046787  1.0000
  C   C22       1.0  0.7912856995616463  0.8239109481285131  0.9126957846689747  1.0000
  C   C23       1.0  0.7697006995401464  0.8134881914012788  0.04445311847150035  1.0000
  C   C24       1.0  0.8024462517139584  0.8945992795703949  0.1302928231104321  1.0000
  C   C25       1.0  0.8574628034089001  0.9874273661530634  0.08454041139496449  1.0000
  C   C26       1.0  0.878814920583298  0.9974834561253331  0.9522671179646485  1.0000
  O   O1        1.0  0.8921863021890675  0.07094238222753502  0.1668081445774129  1.0000
  C   C27       1.0  0.8760762545914372  0.07148053121192843  0.3029090495465233  1.0000
  H   H9        1.0  0.9102599770674963  0.3942460554034666  0.4749310197703498  1.0000
  H   H10       1.0  0.8708189863139582  0.13736006619118935  0.7087198738018818  1.0000
  H   H11       1.0  0.872563304284978  0.7201934130039278  0.7095123670167625  1.0000
  H   H12       1.0  0.929406922602499  0.9572824855566988  0.35767481992919126  1.0000
  H   H13       1.0  0.9100547674388899  0.5013045585232974  0.4748361766507416  1.0000
  H   H14       1.0  0.7644168983554646  0.7610520054030062  0.8477246978191799  1.0000
  H   H15       1.0  0.7272706639934982  0.7424745534223708  0.08010518464187344  1.0000
  H   H16       1.0  0.7846398079458068  0.8843812429275223  0.2317985272461366  1.0000
  H   H17       1.0  0.9218510716106729  0.06808508718309625  0.9180999746694851  1.0000
  H   H18       1.0  0.8890522394983308  0.9752491063985426  0.3529359091296165  1.0000
  H   H19       1.0  0.9115262365516914  0.14696659681629964  0.34348365759217914  1.0000
  H   H20       1.0  0.8161031640792339  0.09492783457893128  0.32012945031817397  1.0000
  C   C28       1.0  0.9018824446637334  0.4438079351549191  0.14393817777450812  1.0000
  C   C29       1.0  0.8237771284052015  0.4617706618863453  0.1450708601511166  1.0000
  C   C30       1.0  0.7842083098210072  0.47073247806003904  0.028497960269190825  1.0000
  C   C31       1.0  0.8237547491922095  0.4615052593659339  0.9098122182058095  1.0000
  C   C32       1.0  0.9018611325578241  0.443554438179808  0.9067729083286458  1.0000
  C   C33       1.0  0.9404248411344871  0.4348179624409654  0.024325919776556182  1.0000
  C   C34       1.0  0.7016352819036829  0.4897169701720052  0.030703105553463006  1.0000
  C   C35       1.0  0.6684502106990993  0.5768407750696327  0.11315143625320756  1.0000
  C   C36       1.0  0.5907243125509788  0.5946638380898592  0.1151076608222581  1.0000
  C   C37       1.0  0.5451492412014253  0.5256973894943813  0.03487947223174648  1.0000
  C   C38       1.0  0.5775927961870695  0.4387918879434094  0.952569538545589  1.0000
  C   C39       1.0  0.6553106917724671  0.4208742660819742  0.9503770833552787  1.0000
  C   C40       1.0  0.46513033887730226  0.5440969457486282  0.03701406773724303  1.0000
  N   N3        1.0  0.4008005371796692  0.558889071251879  0.03873017360160258  1.0000
  H   H21       1.0  0.04940877228820506  0.40905557193887176  0.3491881380072497  1.0000
  H   H22       1.0  0.7934358566165595  0.4670407103424308  0.23699395906638854  1.0000
  H   H23       1.0  0.7936954754570825  0.4701215413376303  0.8195023514176798  1.0000
  H   H24       1.0  0.0006221173074185682  0.4209784544869799  0.02271806013214661  1.0000
  H   H25       1.0  0.04952598589462531  0.4104482193425356  0.6936383562050401  1.0000
  H   H26       1.0  0.7027084615015359  0.6324418360183799  0.1748599007671856  1.0000
  H   H27       1.0  0.5662209617265397  0.6624580768573274  0.1789458153632264  1.0000
  H   H28       1.0  0.542815043368876  0.3846283509658799  0.8903133262914449  1.0000
  H   H29       1.0  0.6790766231455129  0.3519319134467993  0.8871200279706701  1.0000
  Zn  Zn1       1.0  0.8195529891606186  0.441681128707363  0.5291774837919534  1.0000
  Zn  Zn2       1.0  0.9841833935180269  0.4456804773937857  0.5215333696189663  1.0000
  C   C41       1.0  0.9018643985926297  0.4384286989948212  0.7625813221575775  1.0000
  C   C42       1.0  0.9018737815512708  0.4489345893443173  0.2881295751327133  1.0000
  C   C43       1.0  0.9018260761668966  0.6808732162275208  0.5201611211420583  1.0000
  C   C44       1.0  0.9019120480744346  0.20648851043275673  0.5305498481276503  1.0000
  O   O2        1.0  0.9643472556096516  0.4521672076066299  0.333620624248562  1.0000
  O   O3        1.0  0.9643415923371508  0.4382305142557783  0.7112881934412498  1.0000
  O   O4        1.0  0.9643098042444912  0.6340075071420861  0.5155322049572253  1.0000
  O   O5        1.0  0.9643789875261825  0.25639022267812783  0.5293765179532266  1.0000
  O   O6        1.0  0.8393573389721857  0.6309713820596559  0.5213343380594224  1.0000
  O   O7        1.0  0.8393891267871373  0.435195949488844  0.7170902571657578  1.0000
  O   O8        1.0  0.8393947901612466  0.4491325981041425  0.33942112637522026  1.0000
  O   O9        1.0  0.839426522073629  0.25335560385447  0.5351771174609741  1.0000
