data_image0
_chemical_formula_structural       NC11NC3H8C12SCH12C12NCOCH13Zn2C4O8
_chemical_formula_sum              "N3 C45 H33 S1 O9 Zn2"
_cell_length_a       17.807433833752565
_cell_length_b       10.299776766347529
_cell_length_c       10.299158637457994
_cell_angle_alpha    85.5824420436923
_cell_angle_beta     88.50589662061448
_cell_angle_gamma    90.66624570658541

_space_group_name_H-M_alt    "P 1"
_space_group_IT_number       1

loop_
  _space_group_symop_operation_xyz
  'x, y, z'

loop_
  _atom_site_type_symbol
  _atom_site_label
  _atom_site_symmetry_multiplicity
  _atom_site_fract_x
  _atom_site_fract_y
  _atom_site_fract_z
  _atom_site_occupancy
  N   N1        1.0  0.7074146706307477  0.43793198370337305  0.5346950196892533  1.0000
  C   C1        1.0  0.6565894359190333  0.4032294735480959  0.6012567916985143  1.0000
  C   C2        1.0  0.5933577193391386  0.3600624103233445  0.6840511417996014  1.0000
  C   C3        1.0  0.6050741328535457  0.296556833583848  0.8067685157253355  1.0000
  C   C4        1.0  0.5437499164893812  0.2550687061757406  0.8872789767403486  1.0000
  C   C5        1.0  0.4705548796333757  0.27677311971310803  0.8457128547897919  1.0000
  C   C6        1.0  0.45786172849868767  0.34043308192378374  0.7225352842721966  1.0000
  C   C7        1.0  0.3800987355851206  0.36346660521701923  0.6781885309211564  1.0000
  C   C8        1.0  0.3613420529861994  0.3465486607033088  0.5486058169434382  1.0000
  C   C9        1.0  0.2881170888757315  0.36821433127256564  0.5069956213085207  1.0000
  C   C10       1.0  0.2327058249243273  0.4071161771689493  0.5941478682153627  1.0000
  C   C11       1.0  0.1573442669393407  0.429439818166951  0.5511763880904053  1.0000
  N   N2        1.0  0.0967589474959357  0.44738636704276535  0.5166304455243529  1.0000
  C   C12       1.0  0.2507710023898762  0.4242445064475444  0.7231994500422707  1.0000
  C   C13       1.0  0.3239431644108274  0.402543997180989  0.7650650768120104  1.0000
  C   C14       1.0  0.5200432545839475  0.3819166503082352  0.6420412391063772  1.0000
  H   H1        1.0  0.6615370333872639  0.2791545088247791  0.8401337626578449  1.0000
  H   H2        1.0  0.5529398084118977  0.205650935204146  0.9820142847905102  1.0000
  H   H3        1.0  0.4239103895173492  0.24224022498447106  0.9091513100916355  1.0000
  H   H4        1.0  0.4030388772338487  0.3148830076721325  0.4798871210787292  1.0000
  H   H5        1.0  0.27469652879204515  0.35429834022923345  0.4069592493265919  1.0000
  H   H6        1.0  0.2083577159455725  0.45468697260901325  0.7914033203542747  1.0000
  H   H7        1.0  0.3368350389092792  0.4180053039316296  0.8649187559184739  1.0000
  H   H8        1.0  0.5115515444351239  0.4326968318169444  0.5475403063332589  1.0000
  C   C15       1.0  0.9021612349985981  0.06129584302240865  0.5256576612102928  1.0000
  C   C16       1.0  0.9066504378528855  0.049891695874275666  0.6619639570429086  1.0000
  C   C17       1.0  0.9088528207732085  0.9269727482218614  0.7310401567232425  1.0000
  C   C18       1.0  0.9065067823952259  0.8146004365373707  0.6619858127110181  1.0000
  C   C19       1.0  0.9020195861295368  0.8240126846336415  0.5256786743917137  1.0000
  C   C20       1.0  0.8998715079955234  0.9478001079659293  0.4582776275181184  1.0000
  C   C21       1.0  0.9135936116979315  0.9159721523895444  0.8752372222848006  1.0000
  C   C22       1.0  0.870583512207074  0.8214936819902652  0.9512758491472695  1.0000
  C   C23       1.0  0.8750677146937169  0.8113758365318948  0.08697778488168506  1.0000
  C   C24       1.0  0.9223743716394233  0.8954539798859764  0.14845648145285184  1.0000
  C   C25       1.0  0.9655634986577826  0.9893634997095411  0.07378261991552626  1.0000
  C   C26       1.0  0.961189458656587  0.9998339052795836  0.9380651578553951  1.0000
  S   S1        1.0  0.9282110656577041  0.8820128661908436  0.32257689121769506  1.0000
  C   C27       1.0  0.8527149987689969  0.9962483839236618  0.3456085373492206  1.0000
  H   H9        1.0  0.9004802009379681  0.3930955404267582  0.4737174037175773  1.0000
  H   H10       1.0  0.9074085463522955  0.136760041795305  0.7148873814612509  1.0000
  H   H11       1.0  0.909223779554833  0.7196714723278227  0.7146222121244914  1.0000
  H   H12       1.0  0.8964087925241511  0.9558294467770342  0.353123092173526  1.0000
  H   H13       1.0  0.9002722527466243  0.500144499610316  0.47374615881288507  1.0000
  H   H14       1.0  0.8327737654727081  0.7565946995897437  0.9059157627563557  1.0000
  H   H15       1.0  0.8414690314790916  0.738517533471069  0.144258459788408  1.0000
  H   H16       1.0  0.0025733833988186294  0.05429950084286039  0.12076876048700425  1.0000
  H   H17       1.0  0.9957360668364413  0.07234677929349154  0.8821535513928107  1.0000
  H   H18       1.0  0.8677633748456622  0.0929260940114851  0.2960324250843954  1.0000
  H   H19       1.0  0.843990309673198  0.0067534230999755085  0.4512931501492047  1.0000
  H   H20       1.0  0.7998587147647933  0.9594173739284725  0.30593863877031025  1.0000
  C   C28       1.0  0.9021608579516398  0.4425180114304281  0.14429179323015573  1.0000
  C   C29       1.0  0.9038809896090451  0.5792616851884567  0.13290102339872356  1.0000
  C   C30       1.0  0.904694130694667  0.648731043202029  0.009970852800504248  1.0000
  C   C31       1.0  0.9037371068446685  0.5796180574935479  0.8975962274261446  1.0000
  C   C32       1.0  0.9020199398712159  0.44279054767005865  0.9070445519656793  1.0000
  C   C33       1.0  0.9012456735008473  0.3750819251004205  0.030779598097192107  1.0000
  C   C34       1.0  0.9065147192202817  0.7933890921649867  0.99889431285209  1.0000
  C   C35       1.0  0.9526127635547911  0.8623417128640494  0.07932414085199757  1.0000
  C   C36       1.0  0.954332155995728  0.9984727148878276  0.06876939124522052  1.0000
  C   C37       1.0  0.9104640213354283  0.06839213654416865  0.9766565512307279  1.0000
  C   C38       1.0  0.8634712386094942  0.9997781735243785  0.8980513230943039  1.0000
  C   C39       1.0  0.861782684417616  0.863675829511898  0.9083436555520099  1.0000
  N   N3        1.0  0.910151111029609  0.2084291228752413  0.9654383384336267  1.0000
  C   C40       1.0  0.9745025456188352  0.28897886319383437  0.9856856482022289  1.0000
  O   O1        1.0  0.03928485818447669  0.24113978272932712  0.9911951065924547  1.0000
  C   C41       1.0  0.9656633887796492  0.43257794632039426  0.9907010416537454  1.0000
  H   H21       1.0  0.9015227589043343  0.38991925511845893  0.47614785178529373  1.0000
  H   H22       1.0  0.9035427694486142  0.6320701955757135  0.21986856934486565  1.0000
  H   H23       1.0  0.9053559775918124  0.6326704448275586  0.8025505093617467  1.0000
  H   H24       1.0  0.8999214675231986  0.26960839718021967  0.0388505485324544  1.0000
  H   H25       1.0  0.8992349618818174  0.18453147845951667  0.7175643924471  1.0000
  H   H26       1.0  0.9877839287682887  0.8109692434160405  0.14988383755941137  1.0000
  H   H27       1.0  0.988989861532878  0.04865339153552739  0.13419380758700927  1.0000
  H   H28       1.0  0.8283213016075688  0.052026157095133474  0.8280599485602265  1.0000
  H   H29       1.0  0.824663757184969  0.813388607934548  0.8467176748844745  1.0000
  H   H30       1.0  0.8614430157311586  0.25470087972035804  0.9327524384475998  1.0000
  H   H31       1.0  0.9128335318907175  0.4530095537394172  0.044570430502604896  1.0000
  H   H32       1.0  0.9636348722972783  0.47919556637647176  0.8900772466759839  1.0000
  H   H33       1.0  0.01358508826509186  0.4745088565105724  0.041133123118220816  1.0000
  Zn  Zn1       1.0  0.8197710176961415  0.44065684259456184  0.529489458370956  1.0000
  Zn  Zn2       1.0  0.9844025856866889  0.444650892495001  0.5218465927707061  1.0000
  C   C42       1.0  0.9020458591381441  0.4375653678144864  0.7628678583103674  1.0000
  C   C43       1.0  0.9021295416883727  0.4477440495314733  0.28846823688547985  1.0000
  C   C44       1.0  0.9020434299117821  0.6798410287452419  0.5204995919688788  1.0000
  C   C45       1.0  0.9021319150145152  0.20546682698248486  0.530836575031983  1.0000
  O   O2        1.0  0.9645958547845161  0.45100801112096356  0.3339547406241834  1.0000
  O   O3        1.0  0.9645310970826961  0.4373318178414629  0.7115802225446444  1.0000
  O   O4        1.0  0.9645282929847524  0.6329724580867886  0.5158661718150812  1.0000
  O   O5        1.0  0.9645986027211226  0.2553673787680373  0.5296686965854251  1.0000
  O   O6        1.0  0.8395749444810345  0.6299403549599636  0.5216673571575412  1.0000
  O   O7        1.0  0.8395777482985245  0.43430127497130866  0.7173813386833934  1.0000
  O   O8        1.0  0.8396425063471931  0.4479774224388504  0.33975429532818224  1.0000
  O   O9        1.0  0.8396452542644635  0.25233678083196276  0.5354683486590499  1.0000
