data_image0
_chemical_formula_structural       NC12NC2H8C12SCH12C13NH13Zn2C4O8
_chemical_formula_sum              "N3 C44 H33 S1 Zn2 O8"
_cell_length_a       19.240039667572717
_cell_length_b       10.299776766347529
_cell_length_c       10.299780419254978
_cell_angle_alpha    85.57449051580876
_cell_angle_beta     89.9865849046833
_cell_angle_gamma    89.97991714870845

_space_group_name_H-M_alt    "P 1"
_space_group_IT_number       1

loop_
  _space_group_symop_operation_xyz
  'x, y, z'

loop_
  _atom_site_type_symbol
  _atom_site_label
  _atom_site_symmetry_multiplicity
  _atom_site_fract_x
  _atom_site_fract_y
  _atom_site_fract_z
  _atom_site_occupancy
  N   N1        1.0  0.6543900325747389  0.42095329568746864  0.5675883605450773  1.0000
  C   C1        1.0  0.5942416637519721  0.4209533796503524  0.5675882786161737  1.0000
  C   C2        1.0  0.5194236266060149  0.4209534969055211  0.5675881413236155  1.0000
  C   C3        1.0  0.48294904446094017  0.35651091563027104  0.6709923508286513  1.0000
  C   C4        1.0  0.41027830631690815  0.3564000539784884  0.671078883223053  1.0000
  C   C5        1.0  0.373091391679859  0.42095358942120664  0.5675879136562314  1.0000
  C   C6        1.0  0.410280155370547  0.4855073118897022  0.46409713863333923  1.0000
  C   C7        1.0  0.4829508538190699  0.48539621476704853  0.4641837935097415  1.0000
  C   C8        1.0  0.2958863012669543  0.42095351074056575  0.5675878182398004  1.0000
  C   C9        1.0  0.2587144956162101  0.30770284377607027  0.6094501052503991  1.0000
  C   C10       1.0  0.18604379862241546  0.30780972343171875  0.6093587898191977  1.0000
  C   C11       1.0  0.14955401436035937  0.4209533815820228  0.5675878791399369  1.0000
  C   C12       1.0  0.0747359771955753  0.42095326789324483  0.5675881277841253  1.0000
  N   N2        1.0  0.0145876603250067  0.42095322711443717  0.567588336192822  1.0000
  C   C13       1.0  0.1860117409473185  0.5340971155478877  0.5258169155765533  1.0000
  C   C14       1.0  0.2586824285421247  0.5342041752879954  0.5257254375679912  1.0000
  H   H1        1.0  0.5106631532671189  0.30661821144403656  0.7517274454250233  1.0000
  H   H2        1.0  0.3831839527889151  0.3073056632294533  0.7529294887156719  1.0000
  H   H3        1.0  0.3831879781117105  0.5346017296800742  0.3822464822959175  1.0000
  H   H4        1.0  0.5106665164602103  0.5352888187504381  0.3834489746919163  1.0000
  H   H5        1.0  0.2858205923351508  0.21855503043915525  0.6406111305433966  1.0000
  H   H6        1.0  0.1583414799531227  0.21956129988916184  0.6415527952825921  1.0000
  H   H7        1.0  0.15828423617160137  0.6223455145569412  0.49362292466154534  1.0000
  H   H8        1.0  0.28576281063115  0.6233520677911717  0.49456436750998334  1.0000
  C   C15       1.0  0.834557716936073  0.03958813487247759  0.5675867370084644  1.0000
  C   C16       1.0  0.8387172418240085  0.028055971647552358  0.7040945408735912  1.0000
  C   C17       1.0  0.8407579893677962  0.9050739129156623  0.7732694899995693  1.0000
  C   C18       1.0  0.8385843412368549  0.7927681985736581  0.7041097305471573  1.0000
  C   C19       1.0  0.8344266726876655  0.8023084141251651  0.5676011773330569  1.0000
  C   C20       1.0  0.8324362431266676  0.9261573962979901  0.5001038173015719  1.0000
  C   C21       1.0  0.8451506379874371  0.8939380915610128  0.917679344191002  1.0000
  C   C22       1.0  0.8053637724797484  0.8004937251219542  0.9917187371440901  1.0000
  C   C23       1.0  0.8095186430437161  0.7902480691793039  0.1276219789310219  1.0000
  C   C24       1.0  0.8532868658685314  0.8731686031442661  0.19129241950198728  1.0000
  C   C25       1.0  0.8932394210066676  0.9660394805383147  0.11862603009959094  1.0000
  C   C26       1.0  0.8891864655911337  0.9766350229728655  0.9827123737574073  1.0000
  S   S1        1.0  0.8586947798573182  0.8595614792858555  0.3656749764342706  1.0000
  C   C27       1.0  0.7888513212257284  0.9756275452314657  0.38520283131050914  1.0000
  H   H9        1.0  0.8330000925600511  0.3714358945062466  0.5155710671302052  1.0000
  H   H10       1.0  0.8394210755642845  0.1148985357798955  0.7570505096305076  1.0000
  H   H11       1.0  0.841100410525163  0.6977659122928144  0.7568695713863323  1.0000
  H   H12       1.0  0.8292278217362021  0.9342854815961694  0.3947938509100375  1.0000
  H   H13       1.0  0.8328077124267189  0.47848990062458646  0.5155901730205952  1.0000
  H   H14       1.0  0.7703822885259983  0.7365194338397534  0.9446067163923269  1.0000
  H   H15       1.0  0.7784377906190354  0.7181978837778961  0.1833409950398439  1.0000
  H   H16       1.0  0.9274809956044042  0.030069992352991015  0.1673269146055527  1.0000
  H   H17       1.0  0.9211443466916893  0.04831656419731867  0.9284063371773736  1.0000
  H   H18       1.0  0.8027708772073407  0.0719466409948526  0.33632735189718344  1.0000
  H   H19       1.0  0.780784695019175  0.986329788937419  0.4904774129915075  1.0000
  H   H20       1.0  0.739949929105079  0.9400859056354244  0.34308263020845575  1.0000
  C   C28       1.0  0.8345395247076324  0.42086340464384486  0.1862397901865558  1.0000
  C   C29       1.0  0.8848431539986117  0.519891564926541  0.17758008457827246  1.0000
  C   C30       1.0  0.9102787948454157  0.570165202082143  0.05604822486592487  1.0000
  C   C31       1.0  0.8847476678615452  0.5200637958706307  0.9422799119837735  1.0000
  C   C32       1.0  0.8344448646850149  0.42103311626743256  0.9489480641918822  1.0000
  C   C33       1.0  0.8096205626205459  0.37199089038204614  0.07138236927444597  1.0000
  C   C34       1.0  0.9634980592243891  0.6749259173124005  0.0479785763759244  1.0000
  C   C35       1.0  0.9587817348977823  0.7795025327138616  0.952154257031772  1.0000
  C   C36       1.0  0.00889546481777903  0.8780181562272291  0.944644593221776  1.0000
  C   C37       1.0  0.06429864623437842  0.8743150908834303  0.033318986039462706  1.0000
  C   C38       1.0  0.06968129263358147  0.7694596407877166  0.12808652748343663  1.0000
  C   C39       1.0  0.019581937560729124  0.6709193185393039  0.13576896149490336  1.0000
  C   C40       1.0  0.11916441859797833  0.9785318070878299  0.022865508344022345  1.0000
  N   N3        1.0  0.17245020028164193  0.9458802011247658  0.9299870028373438  1.0000
  H   H21       1.0  0.8153997407723159  0.3830821764729384  0.5169963613196438  1.0000
  H   H22       1.0  0.9036763869492449  0.5593970256883951  0.26545070833961915  1.0000
  H   H23       1.0  0.9048895190257338  0.5572184107124587  0.8484731132578696  1.0000
  H   H24       1.0  0.7708138349128472  0.2955941274565208  0.07729437374421466  1.0000
  H   H25       1.0  0.8152639990145375  0.38332088223887273  0.6240336267940769  1.0000
  H   H26       1.0  0.9159164631801976  0.7858488880151508  0.8838526799321214  1.0000
  H   H27       1.0  0.004405378818813865  0.9574174505385828  0.8698068339457206  1.0000
  H   H28       1.0  0.11280453459362927  0.7637655381160118  0.19586159248629076  1.0000
  H   H29       1.0  0.025283547089167246  0.5905028764136158  0.20914081377498972  1.0000
  H   H30       1.0  0.0951328710591115  0.07355734745772402  0.9895867746846259  1.0000
  H   H31       1.0  0.14313092957916917  0.9898420285877052  0.11972240222684039  1.0000
  H   H32       1.0  0.20750951043739985  0.023570873879470877  0.9200489524280928  1.0000
  H   H33       1.0  0.20034755240669644  0.8655776477104966  0.9707579498926715  1.0000
  Zn  Zn1       1.0  0.7583352960841827  0.42094981039752244  0.5675958415880453  1.0000
  Zn  Zn2       1.0  0.9106424160913249  0.42094612138797705  0.5675914534392503  1.0000
  C   C41       1.0  0.8344620765805023  0.41582743863672733  0.8047798013617706  1.0000
  C   C42       1.0  0.8345172984866165  0.42607013174019737  0.3304076211100997  1.0000
  C   C43       1.0  0.8344484892377785  0.6581369000962602  0.5624234583383987  1.0000
  C   C44       1.0  0.8345308341170931  0.18375911001021805  0.572764033341425  1.0000
  O   O1        1.0  0.8923095984248886  0.4278104912726166  0.37878999677074066  1.0000
  O   O2        1.0  0.8922673567955494  0.41408329943543043  0.7563937213476424  1.0000
  O   O3        1.0  0.8922556055084462  0.6097512543047894  0.5606892596929087  1.0000
  O   O4        1.0  0.8923212977503799  0.23214254567297576  0.5744943610562476  1.0000
  O   O5        1.0  0.7766563624501831  0.6097533861151947  0.5606929339657147  1.0000
  O   O6        1.0  0.7766681134745888  0.4140869915189529  0.7563973264071617  1.0000
  O   O7        1.0  0.7767103553517554  0.42781413775313193  0.3787920404891434  1.0000
  O   O8        1.0  0.7767220546639139  0.23214618288644395  0.5744965021385438  1.0000
