data_image0
_chemical_formula_structural       NC11NC3H8C12OCH12C13NH13Zn2C4O8
_chemical_formula_sum              "N3 C44 H33 O9 Zn2"
_cell_length_a       17.807433833752565
_cell_length_b       10.29979075500242
_cell_length_c       10.299780419254978
_cell_angle_alpha    85.56841767701755
_cell_angle_beta     88.51101288378402
_cell_angle_gamma    90.66694566819858

_space_group_name_H-M_alt    "P 1"
_space_group_IT_number       1

loop_
  _space_group_symop_operation_xyz
  'x, y, z'

loop_
  _atom_site_type_symbol
  _atom_site_label
  _atom_site_symmetry_multiplicity
  _atom_site_fract_x
  _atom_site_fract_y
  _atom_site_fract_z
  _atom_site_occupancy
  N   N1        1.0  0.7073531135944945  0.4381443272575034  0.5346177518491828  1.0000
  C   C1        1.0  0.656530942282186  0.4034323874276817  0.6011797665398171  1.0000
  C   C2        1.0  0.5933030361665239  0.36025359488009023  0.6839744186730177  1.0000
  C   C3        1.0  0.6050251016894662  0.2967306363590614  0.8066921894261749  1.0000
  C   C4        1.0  0.5437045949373982  0.25523110662776016  0.8872028920458892  1.0000
  C   C5        1.0  0.47050764535998374  0.2769414089924105  0.8456366149629777  1.0000
  C   C6        1.0  0.4578088202904955  0.3406188175760414  0.722458655068841  1.0000
  C   C7        1.0  0.3800437856290663  0.36365862277200156  0.6781117493168571  1.0000
  C   C8        1.0  0.3612804020331917  0.3467584397818524  0.5485375779972483  1.0000
  C   C9        1.0  0.28805352263430534  0.3684300049866214  0.5069272336559703  1.0000
  C   C10       1.0  0.2326470056848979  0.4073200994289168  0.5940707978850774  1.0000
  C   C11       1.0  0.1572834693090005  0.4296498275477083  0.5510991696127541  1.0000
  N   N2        1.0  0.0966965593829952  0.4476012700253804  0.5165531079506063  1.0000
  C   C12       1.0  0.25071885912238023  0.4244307419588842  0.7231138422167522  1.0000
  C   C13       1.0  0.3238929490456245  0.4027243025643823  0.7649796081304234  1.0000
  C   C14       1.0  0.5199866375540727  0.3821137859863126  0.6419643679313574  1.0000
  H   H1        1.0  0.6614895377436185  0.27932358476145414  0.8400575587632961  1.0000
  H   H2        1.0  0.5528988466678453  0.2057999145036291  0.9819385483530294  1.0000
  H   H3        1.0  0.4238660621684006  0.24239951676806992  0.9090754572319837  1.0000
  H   H4        1.0  0.4029734746603921  0.31510204565688915  0.47982583419452585  1.0000
  H   H5        1.0  0.2746277819921655  0.35452771959819196  0.40689754780794996  1.0000
  H   H6        1.0  0.2083092875886008  0.4548640116213958  0.7913109177680835  1.0000
  H   H7        1.0  0.3367900083479017  0.4181719397758328  0.8648264456902743  1.0000
  H   H8        1.0  0.5114905913389592  0.43290736592179657  0.5474629293235278  1.0000
  C   C15       1.0  0.9020959343299134  0.06150677548615335  0.5256210566597803  1.0000
  C   C16       1.0  0.8803315522449869  0.049839123725656354  0.6580640366285424  1.0000
  C   C17       1.0  0.8692437616221168  0.9267892957676263  0.7251435176756322  1.0000
  C   C18       1.0  0.8801965915087296  0.8145535388310524  0.6580045158837153  1.0000
  C   C19       1.0  0.9019609403694581  0.8242289748239654  0.5255606049765553  1.0000
  C   C20       1.0  0.9127904923613471  0.9481439734589089  0.46011106192257745  1.0000
  C   C21       1.0  0.8462228550441477  0.9154997960421282  0.865261797290535  1.0000
  C   C22       1.0  0.791401193938749  0.8233112655507547  0.9128692765233859  1.0000
  C   C23       1.0  0.7698021985413628  0.8129611771498811  0.04460558693259531  1.0000
  C   C24       1.0  0.8025386327488522  0.894119608624234  0.1304315948624276  1.0000
  C   C25       1.0  0.8575600443038198  0.986922461308414  0.084686483468839  1.0000
  C   C26       1.0  0.8789262116597736  0.9969055983863101  0.9524342957591141  1.0000
  O   O1        1.0  0.892274804535506  0.07048285063317339  0.1669410898911895  1.0000
  C   C27       1.0  0.8761503001841713  0.07109606356045983  0.3030202784004008  1.0000
  H   H9        1.0  0.9104219711896809  0.3934049317469699  0.4751743620123412  1.0000
  H   H10       1.0  0.8709561471855315  0.13664788446341847  0.7089259123516274  1.0000
  H   H11       1.0  0.8727003809772491  0.7194816683611673  0.7097182791151289  1.0000
  H   H12       1.0  0.9295813717778061  0.9563766914067123  0.3579368717423086  1.0000
  H   H13       1.0  0.9102167716353913  0.5004633825578279  0.4750795340260401  1.0000
  H   H14       1.0  0.7645392940165866  0.7604164892210985  0.8479085565554465  1.0000
  H   H15       1.0  0.7273683760019699  0.7419672024102415  0.08025196440702975  1.0000
  H   H16       1.0  0.7847214069586075  0.8839575555795626  0.2319211025991892  1.0000
  H   H17       1.0  0.9219659919501244  0.06748838518661748  0.9182726042234182  1.0000
  H   H18       1.0  0.8891209711955568  0.9748922301384149  0.35303915562444765  1.0000
  H   H19       1.0  0.9115959722751024  0.14660450734124342  0.3435884123021212  1.0000
  H   H20       1.0  0.8161753805063742  0.09455286452176903  0.3202379314596622  1.0000
  C   C28       1.0  0.9020795971266775  0.44278425850367675  0.1442343337195513  1.0000
  C   C29       1.0  0.956454463454709  0.5431338389169824  0.13304123251230138  1.0000
  C   C30       1.0  0.9839486955539775  0.594075643352306  0.010228359491238459  1.0000
  C   C31       1.0  0.9563512524558746  0.5433035640891342  0.8977458303586237  1.0000
  C   C32       1.0  0.9019772790662574  0.4429514860271715  0.9069473370032606  1.0000
  C   C33       1.0  0.8751438636376109  0.39325715224582636  0.030631864119482044  1.0000
  C   C34       1.0  0.041475168778959404  0.7002343691381714  0.9994784787105857  1.0000
  C   C35       1.0  0.03637813048976812  0.8046878955550121  0.9038795323782076  1.0000
  C   C36       1.0  0.09054772706009917  0.9045199497758323  0.8938460514988456  1.0000
  C   C37       1.0  0.15043388487386555  0.9022714682128856  0.9797422591309615  1.0000
  C   C38       1.0  0.15625115897805175  0.7975565994125406  0.07425103993480797  1.0000
  C   C39       1.0  0.1020971001957387  0.6977002236938159  0.08445657272407603  1.0000
  C   C40       1.0  0.20974009032165708  0.007929420182505531  0.9665260315299697  1.0000
  N   N3        1.0  0.26733726408946135  0.9766766013869077  0.8709786219665392  1.0000
  H   H21       1.0  0.8813907670624241  0.4045002488729008  0.4759548351938132  1.0000
  H   H22       1.0  0.9768119526737131  0.5831340448149118  0.21996311607285013  1.0000
  H   H23       1.0  0.9781232276412843  0.5809872652324695  0.8029249124858913  1.0000
  H   H24       1.0  0.833196380679906  0.3158409799366777  0.03849825642641713  1.0000
  H   H25       1.0  0.8812440436955941  0.4047353924251722  0.582998882914981  1.0000
  H   H26       1.0  0.9900444240470787  0.8099088684112234  0.8377270571309245  1.0000
  H   H27       1.0  0.08569501371766663  0.9838019172962542  0.8192250057742574  1.0000
  H   H28       1.0  0.20286371529774216  0.7929946567951076  0.13986399575530029  1.0000
  H   H29       1.0  0.10825935993654268  0.6174329097173232  0.15755105967121974  1.0000
  H   H30       1.0  0.18376483317211778  0.10232468318836041  0.9344423872212149  1.0000
  H   H31       1.0  0.2356459763126033  0.019868961986075906  0.06217974995827458  1.0000
  H   H32       1.0  0.305234114417162  0.05528830425072062  0.859273986123926  1.0000
  H   H33       1.0  0.2974912600849604  0.8971059259020908  0.9103590306481166  1.0000
  Zn  Zn1       1.0  0.8197092211773281  0.44086992368717803  0.5294121703886288  1.0000
  Zn  Zn2       1.0  0.9843404374990354  0.44486505640347285  0.5217692759217043  1.0000
  C   C41       1.0  0.901995838255419  0.43774622355507553  0.7627787664956707  1.0000
  C   C42       1.0  0.9020556178815387  0.44799043879776557  0.2884027236870319  1.0000
  C   C43       1.0  0.9019832659093036  0.6800570383988798  0.5203972464027746  1.0000
  C   C44       1.0  0.902068134317439  0.20567806231479913  0.5307843157478609  1.0000
  O   O2        1.0  0.9645242598420511  0.4512481468088472  0.3338865141844014  1.0000
  O   O3        1.0  0.9644784803996308  0.43751974903731594  0.7114938221861489  1.0000
  O   O4        1.0  0.9644674856743062  0.6331887763201332  0.5157690688145933  1.0000
  O   O5        1.0  0.9645351984013146  0.25557912743156197  0.5296111727917194  1.0000
  O   O6        1.0  0.8395144040944954  0.6301558512971586  0.5215702761199279  1.0000
  O   O7        1.0  0.8395253985494817  0.434488384291573  0.7172949601248642  1.0000
  O   O8        1.0  0.8395711782593842  0.44821673646628146  0.3396860907744377  1.0000
  O   O9        1.0  0.8395821168041552  0.2525477078215339  0.5354108467473067  1.0000
