data_image0
_chemical_formula_structural       NC10NC3NH7C13OH12C12NH11Zn2C4O8
_chemical_formula_sum              "N4 C42 H30 O9 Zn2"
_cell_length_a       19.210446455230148
_cell_length_b       10.299150109392551
_cell_length_c       10.299774167527174
_cell_angle_alpha    85.55710761189597
_cell_angle_beta     89.98397518987284
_cell_angle_gamma    89.92850971851941

_space_group_name_H-M_alt    "P 1"
_space_group_IT_number       1

loop_
  _space_group_symop_operation_xyz
  'x, y, z'

loop_
  _atom_site_type_symbol
  _atom_site_label
  _atom_site_symmetry_multiplicity
  _atom_site_fract_x
  _atom_site_fract_y
  _atom_site_fract_z
  _atom_site_occupancy
  N   N1        1.0  0.6553096544734485  0.41988224764129045  0.5669400720336741  1.0000
  C   C1        1.0  0.5950805318700302  0.42208996937442067  0.5671705121093542  1.0000
  C   C2        1.0  0.5202753815737521  0.42482713998672095  0.5674559979530627  1.0000
  C   C3        1.0  0.4846341245588672  0.541069315623494  0.5825303531381121  1.0000
  C   C4        1.0  0.4119686082408464  0.5412208481090497  0.5824777105034147  1.0000
  C   C5        1.0  0.3751084417577929  0.42553617643419206  0.5675422530795293  1.0000
  C   C6        1.0  0.2977866679455724  0.42417957154621977  0.567392096650787  1.0000
  C   C7        1.0  0.2600084420121387  0.5277393930784797  0.504000731500083  1.0000
  C   C8        1.0  0.1872304521380719  0.5263370415150979  0.503892105227473  1.0000
  C   C9        1.0  0.1512292129923017  0.42163238079996734  0.5671237685045876  1.0000
  C   C10       1.0  0.076300033862005  0.42033017724865207  0.5669873575184616  1.0000
  N   N2        1.0  0.0160624556572174  0.4192831613913637  0.5668777179737523  1.0000
  C   C11       1.0  0.1882837501088433  0.3181982530250449  0.6304900867417367  1.0000
  C   C12       1.0  0.2610636574516437  0.3193263326648008  0.6306490429804747  1.0000
  C   C13       1.0  0.4133590801752003  0.31111445349563827  0.5527554736888813  1.0000
  N   N3        1.0  0.4841283906213284  0.3135596316025291  0.5529202564557807  1.0000
  H   H1        1.0  0.5127115421789751  0.6305120001639151  0.5945499527225504  1.0000
  H   H2        1.0  0.3846760025183997  0.6312458170137489  0.5958917810401512  1.0000
  H   H3        1.0  0.2867166357542735  0.6089840374351019  0.4529869631862997  1.0000
  H   H4        1.0  0.1590651162466408  0.6067542914456603  0.45420892609968644  1.0000
  H   H5        1.0  0.1609360069837972  0.23681751684659136  0.6800740902788416  1.0000
  H   H6        1.0  0.2885840349060743  0.23902866954819801  0.6817698398762266  1.0000
  H   H7        1.0  0.3871177167350952  0.22022649544471884  0.5392954308438571  1.0000
  C   C14       1.0  0.835754978578775  0.03818300377758188  0.5670530037292114  1.0000
  C   C15       1.0  0.8344642606402919  0.02642042623303542  0.7038573959928467  1.0000
  C   C16       1.0  0.8337492876201561  0.9033219742595341  0.7729564553605155  1.0000
  C   C17       1.0  0.8343300745647599  0.791165199492729  0.7034940416238675  1.0000
  C   C18       1.0  0.8356237823190696  0.8009723908051475  0.5667760436718801  1.0000
  C   C19       1.0  0.836330588499675  0.9249419478599925  0.499354493786472  1.0000
  C   C20       1.0  0.8323777907366083  0.8918602353830243  0.9175898738829029  1.0000
  C   C21       1.0  0.7895704297463431  0.7990706977892847  0.9856154221391475  1.0000
  C   C22       1.0  0.788256790633128  0.788366660558739  0.12171532840711097  1.0000
  C   C23       1.0  0.8301833277999949  0.8692935137897634  0.19224999140424548  1.0000
  C   C24       1.0  0.8723246785417534  0.9630379772571325  0.12486709905485494  1.0000
  C   C25       1.0  0.8736544759710828  0.9739177846040856  0.9887669012945777  1.0000
  C   C26       1.0  0.8273080989527387  0.8601479691305148  0.3383297547535351  1.0000
  O   O1        1.0  0.7752782386665882  0.9434213833104362  0.3785774750039266  1.0000
  H   H8        1.0  0.8377390301243313  0.267679007034322  0.3088283806788892  1.0000
  H   H9        1.0  0.8330470242256116  0.1132101177808813  0.7568636767052614  1.0000
  H   H10       1.0  0.834723943934174  0.6960558586047778  0.7563249550347515  1.0000
  H   H11       1.0  0.8373264942966202  0.9332227398123937  0.393899811379941  1.0000
  H   H12       1.0  0.8360745355595979  0.47726919034390547  0.5141895147930808  1.0000
  H   H13       1.0  0.7562839886752177  0.7361037814847945  0.9335149803462321  1.0000
  H   H14       1.0  0.7543920438777312  0.7171063744578199  0.17209432789008983  1.0000
  H   H15       1.0  0.904328871195191  0.027560187063166097  0.17771393245009148  1.0000
  H   H16       1.0  0.9075424954109671  0.04562367485468233  0.9391945023747743  1.0000
  H   H17       1.0  0.8785083248546754  0.8879025771722832  0.3784889849252978  1.0000
  H   H18       1.0  0.8159934709913992  0.7581552926676468  0.37614247934203826  1.0000
  H   H19       1.0  0.7755300490195938  0.9337688462280798  0.47519947914498883  1.0000
  C   C27       1.0  0.8357130835785644  0.41946315185452177  0.18556245897089374  1.0000
  C   C28       1.0  0.7675475234823715  0.3702704806669428  0.18841291082500677  1.0000
  C   C29       1.0  0.7329831022831165  0.345460032338913  0.07270940020516359  1.0000
  C   C30       1.0  0.7674996613038296  0.3705018799379767  0.9531081240563832  1.0000
  C   C31       1.0  0.8356656645717259  0.41969232371198184  0.9482665285724434  1.0000
  C   C32       1.0  0.8693905526589114  0.44389800154622217  0.06501305769683818  1.0000
  C   C33       1.0  0.6608678902636427  0.2934176040854217  0.07677836150603312  1.0000
  C   C34       1.0  0.6413216804361076  0.19498821821343215  0.1721162362155504  1.0000
  C   C35       1.0  0.5734436002694624  0.14606141869278  0.1758122185488047  1.0000
  C   C36       1.0  0.5240380128198157  0.19467307004864298  0.08449853378765537  1.0000
  C   C37       1.0  0.5431249427052106  0.2927130262851261  0.9893202448478049  1.0000
  C   C38       1.0  0.6109821033921103  0.34174113059970335  0.9853579492515787  1.0000
  N   N4        1.0  0.45461450018387395  0.14457269001002437  0.08841541053131308  1.0000
  H   H20       1.0  0.8616991305595498  0.43815412168743006  0.5119339244050163  1.0000
  H   H21       1.0  0.7408257129620704  0.352810294804182  0.2807095699842106  1.0000
  H   H22       1.0  0.741433925428707  0.34986794086381345  0.8637897231290377  1.0000
  H   H23       1.0  0.9219772951556569  0.48184699538806086  0.06204607850322108  1.0000
  H   H24       1.0  0.8616295439841488  0.43849121449255035  0.6189640364791384  1.0000
  H   H25       1.0  0.6787730107915824  0.1546545811866349  0.2427742068646801  1.0000
  H   H26       1.0  0.5594146186715034  0.07003190766900258  0.24966061014114826  1.0000
  H   H27       1.0  0.5053833057878069  0.33138170020319135  0.9183928760654596  1.0000
  H   H28       1.0  0.6241971780857621  0.4186385581466763  0.9118414014853835  1.0000
  H   H29       1.0  0.417422383980348  0.18019375247970748  0.020744384850508002  1.0000
  H   H30       1.0  0.4398957785615998  0.07148983367584183  0.15901571672996417  1.0000
  Zn  Zn1       1.0  0.7594151194958473  0.41970590221018833  0.5669295779925261  1.0000
  Zn  Zn2       1.0  0.9119569758540799  0.41944892661558786  0.566898851164914  1.0000
  C   C39       1.0  0.8356739735420504  0.4144748847469042  0.8041010369937911  1.0000
  C   C40       1.0  0.8356997872704232  0.42468158006289713  0.32972751869386796  1.0000
  C   C41       1.0  0.8356453193219161  0.6567874497507502  0.5616534344394155  1.0000
  C   C42       1.0  0.8357283897027684  0.18236745473896931  0.572175191060917  1.0000
  O   O2        1.0  0.8935841653918962  0.42632974514273636  0.37809897108753665  1.0000
  O   O3        1.0  0.89356533500994  0.4126307012228516  0.7557058901752125  1.0000
  O   O4        1.0  0.8935414159116222  0.6083011636443989  0.5599277354223582  1.0000
  O   O5        1.0  0.8936080324424654  0.230659292070597  0.57387702847714  1.0000
  O   O6        1.0  0.7777640108524128  0.6084955368442846  0.5599514006839541  1.0000
  O   O7        1.0  0.7777879296834707  0.41282663483192383  0.7557294856277894  1.0000
  O   O8        1.0  0.7778067602165549  0.42652563302304025  0.3781210052248871  1.0000
  O   O9        1.0  0.7778306272598238  0.23085517069059835  0.5738991599813963  1.0000
