data_image0
_chemical_formula_structural       NC11NC3H8C12NH11C12BrH9Zn2C4O8
_chemical_formula_sum              "N3 C42 H28 Br1 Zn2 O8"
_cell_length_a       17.807433833752565
_cell_length_b       10.299770795358612
_cell_length_c       10.299148005577397
_cell_angle_alpha    85.54782545814984
_cell_angle_beta     88.49799670841169
_cell_angle_gamma    90.70213480944165

_space_group_name_H-M_alt    "P 1"
_space_group_IT_number       1

loop_
  _space_group_symop_operation_xyz
  'x, y, z'

loop_
  _atom_site_type_symbol
  _atom_site_label
  _atom_site_symmetry_multiplicity
  _atom_site_fract_x
  _atom_site_fract_y
  _atom_site_fract_z
  _atom_site_occupancy
  N   N1        1.0  0.7080614419579951  0.4386905986804259  0.5344516149297687  1.0000
  C   C1        1.0  0.6572179805168555  0.4039541729272855  0.6010206194819459  1.0000
  C   C2        1.0  0.5939635916399358  0.3607449229990163  0.6838239661394399  1.0000
  C   C3        1.0  0.6056465739461507  0.29717682581281757  0.8065546152063954  1.0000
  C   C4        1.0  0.5443004885362785  0.25564768410920413  0.887073763630807  1.0000
  C   C5        1.0  0.47111684604051113  0.27737327766630093  0.8455031209474264  1.0000
  C   C6        1.0  0.4584572209686483  0.34109599328852225  0.7223122359689096  1.0000
  C   C7        1.0  0.3807063399094254  0.3641521112870896  0.677960674807355  1.0000
  C   C8        1.0  0.3619543672332395  0.3472986909907605  0.5483744323417583  1.0000
  C   C9        1.0  0.2887407870675067  0.3689855629388752  0.506759718894481  1.0000
  C   C10       1.0  0.23333638189254652  0.40784450200770284  0.5939109010148538  1.0000
  C   C11       1.0  0.1579865617647817  0.43019003708704795  0.5509347616250815  1.0000
  N   N2        1.0  0.097410678692  0.4481541872102155  0.5163850733534381  1.0000
  C   C12       1.0  0.2513969706418812  0.42490857651625125  0.7229659619268329  1.0000
  C   C13       1.0  0.324557714594247  0.4031867374688405  0.7648361219813415  1.0000
  C   C14       1.0  0.5206606130614088  0.38262056767516794  0.6418095046778518  1.0000
  H   H1        1.0  0.6621003354325817  0.2797575001438328  0.8399234884622249  1.0000
  H   H2        1.0  0.5534644291698931  0.206181641641755  0.9818193688781987  1.0000
  H   H3        1.0  0.42445445305288243  0.2428080328307185  0.908948651625181  1.0000
  H   H4        1.0  0.4036454220552342  0.3156668519283816  0.4796566999505696  1.0000
  H   H5        1.0  0.2753235513302504  0.3551193686333687  0.4067207298231381  1.0000
  H   H6        1.0  0.2089890512283258  0.4553174644962332  0.7911689991372033  1.0000
  H   H7        1.0  0.3374468430157556  0.4185983663661128  0.86469221720078  1.0000
  H   H8        1.0  0.5121953308457411  0.433448927667472  0.5472981147354123  1.0000
  C   C15       1.0  0.9026715605357626  0.062052278882939405  0.5254609079040828  1.0000
  C   C16       1.0  0.8809015689188586  0.07071788797174383  0.39505413660409316  1.0000
  C   C17       1.0  0.869939460850553  0.9579743430565669  0.32893770260005595  1.0000
  C   C18       1.0  0.8810390965185794  0.8354396274828598  0.3949791987881104  1.0000
  C   C19       1.0  0.9028077284360755  0.8247826934500442  0.5253865837556448  1.0000
  C   C20       1.0  0.9135024211570177  0.9386409389696668  0.5898970325166784  1.0000
  C   C21       1.0  0.8469084021739689  0.9681954676787999  0.19097489225186814  1.0000
  C   C22       1.0  0.7922163519767783  0.05805071044017507  0.14832330461821464  1.0000
  C   C23       1.0  0.7705717331158066  0.06754239077995994  0.018470151815066504  1.0000
  C   C24       1.0  0.803209457699139  0.987588622424841  0.9292073555133822  1.0000
  C   C25       1.0  0.8577214678312325  0.897927217260888  0.9709766942405706  1.0000
  C   C26       1.0  0.8794262773689748  0.8881809785976161  0.10079707956774264  1.0000
  N   N3        1.0  0.7810378057502378  0.997427990102693  0.7963940041259603  1.0000
  H   H9        1.0  0.9109349796459889  0.3862017596738798  0.5751705496573885  1.0000
  H   H10       1.0  0.8734154579369974  0.16544885220744088  0.3440467100990885  1.0000
  H   H11       1.0  0.8716668976645017  0.7481903618021886  0.34499944056131904  1.0000
  H   H12       1.0  0.930296412480261  0.9311877640188393  0.6905001088045644  1.0000
  H   H13       1.0  0.9111352533038178  0.49327026296046445  0.5750616278799543  1.0000
  H   H14       1.0  0.7654738568237824  0.11980197540152204  0.2157707345159352  1.0000
  H   H15       1.0  0.7282243593316872  0.13699913534171548  0.9875219475687489  1.0000
  H   H16       1.0  0.8835350379855282  0.8358079211468767  0.9028830609357836  1.0000
  H   H17       1.0  0.9223499759456069  0.8192487274246592  0.13027892695458432  1.0000
  H   H18       1.0  0.8050479641218853  0.9382260837051369  0.7291369751399341  1.0000
  H   H19       1.0  0.7404491521108889  0.06398761492518168  0.7643409729197725  1.0000
  C   C27       1.0  0.9028420575774192  0.4434720115002626  0.14403081855073174  1.0000
  C   C28       1.0  0.8321868985857332  0.5025344629760908  0.14186690920617218  1.0000
  C   C29       1.0  0.79625743003414  0.5324245516971544  0.02363640877857809  1.0000
  C   C30       1.0  0.8319361472327533  0.5024555631792504  0.9066015161476408  1.0000
  C   C31       1.0  0.902637223881388  0.44336296098166117  0.9068166859402504  1.0000
  C   C32       1.0  0.9376546830566741  0.4142330788351758  0.02597526245209436  1.0000
  C   C33       1.0  0.7215133363905649  0.594907442339299  0.022392144972199546  1.0000
  C   C34       1.0  0.7057506527945051  0.695842058205594  0.10319254786852361  1.0000
  C   C35       1.0  0.6353675523428146  0.7545402653410316  0.10182820934756687  1.0000
  C   C36       1.0  0.5799471797110274  0.7132495075347931  0.020038738155094604  1.0000
  C   C37       1.0  0.5949554405654274  0.6130834199706314  0.9394208065202947  1.0000
  C   C38       1.0  0.6652746295024325  0.5541616939952232  0.9403955919823499  1.0000
  Br  Br1       1.0  0.4838481118282677  0.7935843527306652  0.018440322018811628  1.0000
  H   H20       1.0  0.9300344269416098  0.4208071057059639  0.4723339225898835  1.0000
  H   H21       1.0  0.8044684418985731  0.5238069681997111  0.2324906562729563  1.0000
  H   H22       1.0  0.8049599453881142  0.5268948301326635  0.8150345548107158  1.0000
  H   H23       1.0  0.9921538588504342  0.3686807008010291  0.02692824705983865  1.0000
  H   H24       1.0  0.03629170254846836  0.3325691134823572  0.6998641052086896  1.0000
  H   H25       1.0  0.7481471306633004  0.7304896577014115  0.1661298501831301  1.0000
  H   H26       1.0  0.6240364180476545  0.8323311681677041  0.1641515428455702  1.0000
  H   H27       1.0  0.5521149241926756  0.5805770134289121  0.8761969156852971  1.0000
  H   H28       1.0  0.6753485242225112  0.47565094136979336  0.8783317523885148  1.0000
  Zn  Zn1       1.0  0.8204192184416033  0.4414181101847181  0.529245486618559  1.0000
  Zn  Zn2       1.0  0.9850528827091447  0.44541605456477296  0.5216017893795675  1.0000
  C   C39       1.0  0.9026733515551154  0.43820983029643346  0.7626344333649873  1.0000
  C   C40       1.0  0.9028005476484484  0.44862601671734237  0.28821288647911447  1.0000
  C   C41       1.0  0.9027795169414492  0.680611048573122  0.5202253527734599  1.0000
  C   C42       1.0  0.9026943257869914  0.20622323675871956  0.5306220390738416  1.0000
  O   O1        1.0  0.9652642331195361  0.4518672812469522  0.3337009628803471  1.0000
  O   O2        1.0  0.9651628078248836  0.43800193337281335  0.7113445938482861  1.0000
  O   O3        1.0  0.9652476951262006  0.6337439620673984  0.515597585158637  1.0000
  O   O4        1.0  0.9651792896677087  0.2561252604923159  0.5294478767965622  1.0000
  O   O5        1.0  0.8402927553016516  0.630708902894288  0.5213994018031511  1.0000
  O   O6        1.0  0.8402078682940707  0.4349684345187501  0.7171463410911871  1.0000
  O   O7        1.0  0.8403092940498987  0.4488337373612392  0.33950114862624026  1.0000
  O   O8        1.0  0.8402243505671941  0.2530917073037666  0.5352481599174768  1.0000
