data_image0
_chemical_formula_structural       NC12NC2H8C12SCH12C13OH12Zn2C4O8
_chemical_formula_sum              "N2 C44 H32 S1 O9 Zn2"
_cell_length_a       17.80743265337812
_cell_length_b       10.299776766347529
_cell_length_c       10.299153481560891
_cell_angle_alpha    85.58387196387294
_cell_angle_beta     91.5511256746575
_cell_angle_gamma    89.41689066054833

_space_group_name_H-M_alt    "P 1"
_space_group_IT_number       1

loop_
  _space_group_symop_operation_xyz
  'x, y, z'

loop_
  _atom_site_type_symbol
  _atom_site_label
  _atom_site_symmetry_multiplicity
  _atom_site_fract_x
  _atom_site_fract_y
  _atom_site_fract_z
  _atom_site_occupancy
  N   N1        1.0  0.706913842440036  0.40610146860558904  0.6013759086412163  1.0000
  C   C1        1.0  0.6560764174455094  0.4356318849422327  0.532678022842265  1.0000
  C   C2        1.0  0.5928296478924538  0.4723655808251501  0.44722650085503357  1.0000
  C   C3        1.0  0.6045239525162495  0.5263339531282341  0.3206083036982661  1.0000
  C   C4        1.0  0.5431852390419636  0.5615650514672614  0.2375527183560202  1.0000
  C   C5        1.0  0.4699977524936536  0.5430909694535426  0.28045543552397123  1.0000
  C   C6        1.0  0.457326779254456  0.48900398720094596  0.40754177221931975  1.0000
  C   C7        1.0  0.5195228053050754  0.45377613595971233  0.49058084594659546  1.0000
  C   C8        1.0  0.37957179801157925  0.469416959585083  0.4533047512576105  1.0000
  C   C9        1.0  0.3608034800776314  0.4966554907299685  0.5803503726910744  1.0000
  C   C10       1.0  0.2875860469806322  0.4782229985110946  0.623293654329339  1.0000
  C   C11       1.0  0.23219416029809153  0.43229805005288524  0.5400292761356451  1.0000
  C   C12       1.0  0.1568404771214741  0.4133133125557247  0.5843734692193352  1.0000
  N   N2        1.0  0.0962614521160799  0.39805086039369697  0.6200231498733353  1.0000
  C   C13       1.0  0.2502711142927735  0.40489083114525326  0.41352661964605963  1.0000
  C   C14       1.0  0.32343564356622734  0.4233380032432519  0.3703274508739294  1.0000
  H   H1        1.0  0.6609806436250463  0.5411434370311419  0.2861717425840262  1.0000
  H   H2        1.0  0.5523578016538198  0.6036215595543648  0.13977488119407888  1.0000
  H   H3        1.0  0.4233410230883733  0.5726992759348388  0.21486550602285082  1.0000
  H   H4        1.0  0.5110488685587622  0.4103342753768944  0.5882341894400636  1.0000
  H   H5        1.0  0.40248456437936453  0.5338616133754952  0.6459249284218815  1.0000
  H   H6        1.0  0.2741561238194159  0.5001088682213217  0.7213035390850253  1.0000
  H   H7        1.0  0.20787298265315501  0.36895215412298477  0.3483650631440951  1.0000
  H   H8        1.0  0.33633752086705637  0.399916719631787  0.27262084942855136  1.0000
  C   C15       1.0  0.9016620794117989  0.02070949865737015  0.6107014797774231  1.0000
  C   C16       1.0  0.9061996286135877  0.009105905117016366  0.747433188674463  1.0000
  C   C17       1.0  0.9084265102877941  0.8860891485348623  0.8167181283466411  1.0000
  C   C18       1.0  0.9060559772970682  0.7738211048127737  0.7474414991016867  1.0000
  C   C19       1.0  0.9015204344359359  0.7834327090716852  0.6107091369104058  1.0000
  C   C20       1.0  0.8993484516847042  0.907315529139605  0.5431044965707164  1.0000
  C   C21       1.0  0.9132184461220808  0.8748779331559765  0.9613644522755374  1.0000
  C   C22       1.0  0.8702341783824793  0.7823344976611375  0.03334874560454881  1.0000
  C   C23       1.0  0.8747665132294776  0.7720174200486102  0.16947561352368423  1.0000
  C   C24       1.0  0.9220961084940505  0.8539697645006429  0.23541591055064426  1.0000
  C   C25       1.0  0.9652598911817662  0.9459362243461713  0.16481328462684874  1.0000
  C   C26       1.0  0.9608377160811505  0.9566009089693743  0.028681277597201404  1.0000
  S   S1        1.0  0.9279945636645419  0.8402692838069864  0.4100893783706233  1.0000
  C   C27       1.0  0.8525047587202169  0.9578994556094753  0.4260026965653235  1.0000
  H   H9        1.0  0.8999626234520801  0.3525838653490312  0.55860190747402  1.0000
  H   H10       1.0  0.9069764838384072  0.09594109305035259  0.8004289185453652  1.0000
  H   H11       1.0  0.9087916686056935  0.6787709073109396  0.8003349073109707  1.0000
  H   H12       1.0  0.8958484390663273  0.9154987092680894  0.43762182156825236  1.0000
  H   H13       1.0  0.8997546802353829  0.4596421742429123  0.5586110551362506  1.0000
  H   H14       1.0  0.8324074346643121  0.719134621675064  0.9844227930127658  1.0000
  H   H15       1.0  0.8411872593567553  0.7006706928873649  0.22358908619171258  1.0000
  H   H16       1.0  0.002287328306255665  0.009209108760736884  0.21528989595059533  1.0000
  H   H17       1.0  0.9953654030925647  0.02755961298724352  0.9760262765035967  1.0000
  H   H18       1.0  0.8675359678893914  0.05389973361788214  0.3778447580509051  1.0000
  H   H19       1.0  0.8438172495404572  0.9687986000420326  0.5308662808193652  1.0000
  H   H20       1.0  0.7996331149784957  0.9234441335264276  0.3813482499708962  1.0000
  C   C28       1.0  0.9015267501961911  0.40192501092646915  0.2293296544942991  1.0000
  C   C29       1.0  0.8238588747717166  0.3791510268599181  0.2262808932274163  1.0000
  C   C30       1.0  0.7846158663733399  0.3677640859041382  0.10757407752267145  1.0000
  C   C31       1.0  0.8240360653757182  0.37946465827582276  0.9909814178891434  1.0000
  C   C32       1.0  0.9016557552283913  0.40221720473980405  0.9920809235833401  1.0000
  C   C33       1.0  0.9399478727380101  0.4133109213754167  0.11176680310954024  1.0000
  C   C34       1.0  0.7025017654222371  0.34369945962106585  0.10532385786935139  1.0000
  C   C35       1.0  0.6549751853901343  0.4099181658535236  0.010381251102765887  1.0000
  C   C36       1.0  0.577700960868998  0.3873158745017298  0.00834161686465218  1.0000
  C   C37       1.0  0.5466528446882888  0.2972466921999932  0.10031290783028846  1.0000
  C   C38       1.0  0.5936752297211141  0.23213467814911226  0.19614991797443415  1.0000
  C   C39       1.0  0.6709530237267954  0.25470724865614525  0.19836787226712582  1.0000
  C   C40       1.0  0.46340287941238617  0.27568165752131857  0.100241743459903  1.0000
  O   O1        1.0  0.42964312138236405  0.36396673057324325  0.17813370441920395  1.0000
  H   H21       1.0  0.048033015762927844  0.4457436386955602  0.44230814376015304  1.0000
  H   H22       1.0  0.7935718773971928  0.37201366087887  0.31630577881039623  1.0000
  H   H23       1.0  0.7942308314952252  0.369028806208175  0.8993746150871762  1.0000
  H   H24       1.0  0.9998178549502502  0.4308642952716264  0.11333068604215213  1.0000
  H   H25       1.0  0.9315010629225752  0.41105475515675494  0.6650213050359337  1.0000
  H   H26       1.0  0.6774193064615868  0.48070944801807935  0.9388998572674723  1.0000
  H   H27       1.0  0.5420465515238605  0.4403327925700995  0.9351541584247376  1.0000
  H   H28       1.0  0.5705379501545241  0.16356409866418842  0.26903803622696465  1.0000
  H   H29       1.0  0.7061559587304264  0.2014991679008824  0.2720569177282657  1.0000
  H   H30       1.0  0.4514981442180299  0.17414160702901915  0.13848854881915984  1.0000
  H   H31       1.0  0.43962084894655146  0.28953852289921556  0.9989721315996349  1.0000
  H   H32       1.0  0.3750337173641345  0.3457425248932342  0.174814524112751  1.0000
  Zn  Zn1       1.0  0.819271157470099  0.40377477258743055  0.6067645866879756  1.0000
  Zn  Zn2       1.0  0.9839041383511551  0.40036696707500785  0.6146450649584552  1.0000
  C   C41       1.0  0.9016306411307795  0.3969883613418941  0.847904481179431  1.0000
  C   C42       1.0  0.9015464521947043  0.40715497976588466  0.3735053840066769  1.0000
  C   C43       1.0  0.9015424461167969  0.6392598905603766  0.6055322223493291  1.0000
  C   C44       1.0  0.9016345913324786  0.16488189144366094  0.6158777093719574  1.0000
  O   O2        1.0  0.9640304236701145  0.4076112949456747  0.4248826762700688  1.0000
  O   O3        1.0  0.9640992929149717  0.3939446207696551  0.8025079157190431  1.0000
  O   O4        1.0  0.9640272323294957  0.5895819625061129  0.6067905615879998  1.0000
  O   O5        1.0  0.9641024280593132  0.21197396362493293  0.6205999303357461  1.0000
  O   O6        1.0  0.8390728115807828  0.592167777201833  0.6008097186146328  1.0000
  O   O7        1.0  0.8391448718613093  0.39653199573344455  0.7965270035144458  1.0000
  O   O8        1.0  0.8390760024107716  0.41019862405458896  0.41890020263918104  1.0000
  O   O9        1.0  0.8391480068150896  0.2145612834824595  0.614617554074173  1.0000
