data_image0
_chemical_formula_structural       NC10NC3NCH9C12NH11C12NH11Zn2C4O8
_chemical_formula_sum              "N5 C42 H31 Zn2 O8"
_cell_length_a       19.437513618241372
_cell_length_b       10.299770795358612
_cell_length_c       10.299774167527174
_cell_angle_alpha    85.57276865105108
_cell_angle_beta     90.34073838346127
_cell_angle_gamma    89.53989505547142

_space_group_name_H-M_alt    "P 1"
_space_group_IT_number       1

loop_
  _space_group_symop_operation_xyz
  'x, y, z'

loop_
  _atom_site_type_symbol
  _atom_site_label
  _atom_site_symmetry_multiplicity
  _atom_site_fract_x
  _atom_site_fract_y
  _atom_site_fract_z
  _atom_site_occupancy
  N   N1        1.0  0.6481626624751796  0.4100536947098936  0.5756952525577268  1.0000
  C   C1        1.0  0.5892321872562756  0.4270628321001728  0.572719416190919  1.0000
  C   C2        1.0  0.5157952886570406  0.44831419760479485  0.5690256234277749  1.0000
  C   C3        1.0  0.4740164702912755  0.3471227224367561  0.5573665926386775  1.0000
  C   C4        1.0  0.39812831326175824  0.35718568404809203  0.5501455910802064  1.0000
  C   C5        1.0  0.358566030855131  0.43804850846136323  0.6158853950199241  1.0000
  C   C6        1.0  0.2823825526876717  0.42943839636436554  0.607441644756153  1.0000
  C   C7        1.0  0.2492266601431724  0.308096272842147  0.6120845034165998  1.0000
  C   C8        1.0  0.1774910608313035  0.301722938571096  0.6049167466122072  1.0000
  C   C9        1.0  0.1379406435981268  0.41621913163093094  0.5934683455879453  1.0000
  C   C10       1.0  0.064090518237219  0.4095075829611632  0.5861325039843346  1.0000
  N   N2        1.0  0.0047201155656055  0.40411208799386755  0.580234945721839  1.0000
  C   C11       1.0  0.1703798764557276  0.5372508571312256  0.5895707291751415  1.0000
  C   C12       1.0  0.242099921518528  0.5438781935638926  0.5968005053143839  1.0000
  C   C13       1.0  0.3872637966927238  0.5303524721275443  0.70580158747018  1.0000
  N   N3        1.0  0.4442598019621738  0.5935596526080895  0.6853984625327325  1.0000
  C   C14       1.0  0.4881003588460373  0.5842735691193113  0.5722959092710607  1.0000
  H   H1        1.0  0.4963845839402889  0.25206504023659204  0.5452456784001307  1.0000
  H   H2        1.0  0.3734031094585885  0.28766148246535095  0.4918298692699088  1.0000
  H   H3        1.0  0.2786616864459623  0.21818804551667093  0.623104624082248  1.0000
  H   H4        1.0  0.1528815462502509  0.2074987809634936  0.608803497708408  1.0000
  H   H5        1.0  0.1402594293041727  0.6265046945222874  0.5808626516867605  1.0000
  H   H6        1.0  0.2662279842025433  0.638515141919419  0.5928982962003049  1.0000
  H   H7        1.0  0.3572630109458003  0.5507563605108545  0.7901645383569336  1.0000
  H   H8        1.0  0.530864764150778  0.6545863480257648  0.5780592376645182  1.0000
  H   H9        1.0  0.4584390945178139  0.6123620046372016  0.4816544441418822  1.0000
  C   C15       1.0  0.8263823386920394  0.02571532123235376  0.5780039566318631  1.0000
  C   C16       1.0  0.8064216023313923  0.03518530741676207  0.4463453169594933  1.0000
  C   C17       1.0  0.7963704472502092  0.9228466046308272  0.3795985561446904  1.0000
  C   C18       1.0  0.8065475344303347  0.7999015756919616  0.44627837057550446  1.0000
  C   C19       1.0  0.8265070257097747  0.7884403186010503  0.5779375449179711  1.0000
  C   C20       1.0  0.8363129889753829  0.9019036009094874  0.643062943334151  1.0000
  C   C21       1.0  0.7752534479229828  0.9339187005198113  0.24031136081486015  1.0000
  C   C22       1.0  0.7251593295965438  0.025918328341785424  0.19448842736603322  1.0000
  C   C23       1.0  0.7053135101090756  0.036209667794832034  0.0633906338938961  1.0000
  C   C24       1.0  0.73518622454431  0.9549264821256623  0.976030946539634  1.0000
  C   C25       1.0  0.7851153017516045  0.863127429276178  0.02096125987994779  1.0000
  C   C26       1.0  0.8050162370052124  0.8525791369577183  0.15202978342365614  1.0000
  N   N4        1.0  0.7148572088407136  0.965585067564776  0.8419426296300223  1.0000
  H   H10       1.0  0.8339590423128352  0.3495595689184072  0.6281887612110091  1.0000
  H   H11       1.0  0.7995565075247932  0.13019020213744548  0.39490797606380434  1.0000
  H   H12       1.0  0.7979553753382395  0.7130012743722884  0.3957591014669106  1.0000
  H   H13       1.0  0.8517112699454229  0.8938299081191167  0.7446317461944436  1.0000
  H   H14       1.0  0.8341424301373277  0.4566201048431588  0.6280914768845642  1.0000
  H   H15       1.0  0.7006813605656553  0.08875641457750949  0.2603770254107427  1.0000
  H   H16       1.0  0.6665266410016942  0.10732768344088695  0.029986704293678557  1.0000
  H   H17       1.0  0.8087424544568247  0.7999577674237901  0.9543725870250479  1.0000
  H   H18       1.0  0.8443306259696658  0.7819621871732527  0.1840009515735721  1.0000
  H   H19       1.0  0.7368329756480443  0.9054044768980523  0.7760857822166258  1.0000
  H   H20       1.0  0.6776807481210781  0.03373593308755596  0.8075360820324802  1.0000
  C   C27       1.0  0.8264680743315895  0.406962905196266  0.1966189917985821  1.0000
  C   C28       1.0  0.7590787946768143  0.35878403057301567  0.19858614117254003  1.0000
  C   C29       1.0  0.7249080432134619  0.3344876321487904  0.08243477525997323  1.0000
  C   C30       1.0  0.7590315662420075  0.3590161185313412  0.9632808082104738  1.0000
  C   C31       1.0  0.8264212831721622  0.4071927593716167  0.95932252024047  1.0000
  C   C32       1.0  0.859762062626285  0.4308968732159335  0.07650602612912616  1.0000
  C   C33       1.0  0.6536140911003997  0.28351774185603507  0.08556925388675696  1.0000
  C   C34       1.0  0.634262357744498  0.18538639728407813  0.18063037687294692  1.0000
  C   C35       1.0  0.5671573036281234  0.13746911368100578  0.1834467982019048  1.0000
  C   C36       1.0  0.5183424547158143  0.18680821868165687  0.0915163584223746  1.0000
  C   C37       1.0  0.5372401191484932  0.28455696933440544  0.9966088536302893  1.0000
  C   C38       1.0  0.6043245308353793  0.33257585872670536  0.9935258803555431  1.0000
  N   N5        1.0  0.4497095483256054  0.13774034417569037  0.09453363192502762  1.0000
  H   H21       1.0  0.8521581672448294  0.42526740133400676  0.5233271721213302  1.0000
  H   H22       1.0  0.7326619047028085  0.3417211077608149  0.290537041593671  1.0000
  H   H23       1.0  0.733262063210214  0.33877000243073785  0.8736241350263381  1.0000
  H   H24       1.0  0.9117499384480292  0.4680637675211954  0.07422047581402724  1.0000
  H   H25       1.0  0.8520895022871399  0.42560549536037184  0.6303564902720193  1.0000
  H   H26       1.0  0.6712647237917418  0.144501625732133  0.2517549018090317  1.0000
  H   H27       1.0  0.553266109260379  0.06165398560633917  0.25709505738746574  1.0000
  H   H28       1.0  0.4999502672533067  0.32378122205546767  0.9252107636425055  1.0000
  H   H29       1.0  0.6174115724883728  0.40927088154590985  0.9201993232548062  1.0000
  H   H30       1.0  0.4129618106007449  0.17390911243006157  0.02639804728132944  1.0000
  H   H31       1.0  0.43513761739553564  0.06488182920899521  0.16492582655075005  1.0000
  Zn  Zn1       1.0  0.7510574458498618  0.4083355884171167  0.5770128188627359  1.0000
  Zn  Zn2       1.0  0.901825336002024  0.4058195279926562  0.5789280497383495  1.0000
  C   C39       1.0  0.8264277556875836  0.4019756514504884  0.8151556825924637  1.0000
  C   C40       1.0  0.8264566728050411  0.41218107613583355  0.3407853342410345  1.0000
  C   C41       1.0  0.8264802373563808  0.6442675512375253  0.5727751526971046  1.0000
  C   C42       1.0  0.8264041394303739  0.1698876169314809  0.583165932854139  1.0000
  O   O1        1.0  0.8836684740016145  0.41297184443302104  0.3898956963694771  1.0000
  O   O2        1.0  0.8836452944477526  0.39927427167733587  0.7674985626391893  1.0000
  O   O3        1.0  0.8836869026821671  0.5949280582331313  0.5717745599507076  1.0000
  O   O4        1.0  0.883626814327823  0.217318067996634  0.5856196010333186  1.0000
  O   O5        1.0  0.7692559160743819  0.596837049273159  0.5703212669073618  1.0000
  O   O6        1.0  0.7692143080961571  0.4011848229946984  0.7660452002176934  1.0000
  O   O7        1.0  0.7692374877841406  0.4148823500233574  0.38844077262195564  1.0000
  O   O8        1.0  0.7691958281000453  0.21922856432758175  0.5841647746500327  1.0000
