data_image0
_chemical_formula_structural       NC12NC2H8C12BrH9C12NH11Zn2C4O8
_chemical_formula_sum              "N3 C42 H28 Br1 Zn2 O8"
_cell_length_a       19.240039667572717
_cell_length_b       10.299144633409057
_cell_length_c       10.299774167527174
_cell_angle_alpha    85.56689002636797
_cell_angle_beta     89.99323073403258
_cell_angle_gamma    89.97286397093025

_space_group_name_H-M_alt    "P 1"
_space_group_IT_number       1

loop_
  _space_group_symop_operation_xyz
  'x, y, z'

loop_
  _atom_site_type_symbol
  _atom_site_label
  _atom_site_symmetry_multiplicity
  _atom_site_fract_x
  _atom_site_fract_y
  _atom_site_fract_z
  _atom_site_occupancy
  N   N1        1.0  0.6542074888623223  0.4209523439750027  0.5672965657241018  1.0000
  C   C1        1.0  0.5940591200289373  0.4209524279380412  0.5672964837779417  1.0000
  C   C2        1.0  0.519241082866732  0.42095254519164693  0.5672963464614085  1.0000
  C   C3        1.0  0.4827771656477018  0.3565129957538644  0.6707135807805591  1.0000
  C   C4        1.0  0.4101064401798661  0.3564021322153508  0.6708001360774085  1.0000
  C   C5        1.0  0.3729088479203477  0.42095263769682156  0.5672961187757557  1.0000
  C   C6        1.0  0.4100869339883197  0.4855033302337255  0.46379229597754734  1.0000
  C   C7        1.0  0.48275764513615693  0.4853922312155676  0.463878973805375  1.0000
  C   C8        1.0  0.29570375750670447  0.4209525590026484  0.5672960233764295  1.0000
  C   C9        1.0  0.2585420125906257  0.307696346792514  0.6091819588416878  1.0000
  C   C10       1.0  0.18587130288610626  0.30780322765362556  0.6090906213734755  1.0000
  C   C11       1.0  0.1493714706124003  0.42095242983880454  0.5672960843034647  1.0000
  C   C12       1.0  0.0745534334705417  0.42095231616052353  0.5672963329702723  1.0000
  N   N2        1.0  0.0144051166155969  0.42095227539474966  0.567296541386435  1.0000
  C   C13       1.0  0.18581914917943107  0.5341017078413239  0.5255014943336351  1.0000
  C   C14       1.0  0.2584898240415547  0.534208768788248  0.5254099942509787  1.0000
  H   H1        1.0  0.5104995735055835  0.30662269155059585  0.7514587557663142  1.0000
  H   H2        1.0  0.3830204023470299  0.30731029020557465  0.7526606476063804  1.0000
  H   H3        1.0  0.3829864410293882  0.5345951992829874  0.38193173359834787  1.0000
  H   H4        1.0  0.5104650087493156  0.5352824352296448  0.38313407461779514  1.0000
  H   H5        1.0  0.2856559176173029  0.21854402908558446  0.6403616092697635  1.0000
  H   H6        1.0  0.1581767973849677  0.21955044993484907  0.6413030567577025  1.0000
  H   H7        1.0  0.1580838312380794  0.6223544610258216  0.4932890735028874  1.0000
  H   H8        1.0  0.2855623978148484  0.6233611656641094  0.49423029904144533  1.0000
  C   C15       1.0  0.8344003014990354  0.0395575500945764  0.5673753418322038  1.0000
  C   C16       1.0  0.8047682275044463  0.04846177508531846  0.4424202425803587  1.0000
  C   C17       1.0  0.7896505900023381  0.9358398795893056  0.37898941088524696  1.0000
  C   C18       1.0  0.8045648809857708  0.8131961347908362  0.4421990093241801  1.0000
  C   C19       1.0  0.8342189889730595  0.8023371325289133  0.5672289647838158  1.0000
  C   C20       1.0  0.8489533045821638  0.9160295980896588  0.6290485274031954  1.0000
  C   C21       1.0  0.7583045121633498  0.9463046516094967  0.24680110708806935  1.0000
  C   C22       1.0  0.7815720400957559  0.041585142999252644  0.15133796351710838  1.0000
  C   C23       1.0  0.7520074577950888  0.05122765681897512  0.02696940409014692  1.0000
  C   C24       1.0  0.6989341509867366  0.966128308427889  0.9964359748125138  1.0000
  C   C25       1.0  0.6753971878005943  0.8711672048349507  0.09045862356343415  1.0000
  C   C26       1.0  0.7048406559521724  0.8611073903676923  0.21492745730729323  1.0000
  Br  Br1       1.0  0.6586322510263719  0.9795842054798963  0.8264803440378401  1.0000
  H   H9        1.0  0.845826961066223  0.36360999662639526  0.6154148895259797  1.0000
  H   H10       1.0  0.7924971755047497  0.1431679628913034  0.3948613795317921  1.0000
  H   H11       1.0  0.7938944494795989  0.7261135859988693  0.3930361293102431  1.0000
  H   H12       1.0  0.8718114419887762  0.908445917856389  0.7254277655156693  1.0000
  H   H13       1.0  0.8905894275876189  0.5745748280591475  0.8028824153659102  1.0000
  H   H14       1.0  0.823214907304305  0.10747357252601697  0.17233912679161123  1.0000
  H   H15       1.0  0.7705152294078634  0.12467637042577673  0.9543145434768769  1.0000
  H   H16       1.0  0.6341707264437741  0.8053042194094657  0.06730895239390788  1.0000
  H   H17       1.0  0.68520271624074  0.7878727644663134  0.28672249788061155  1.0000
  C   C27       1.0  0.8343333148903821  0.42083279795727724  0.18595008328866114  1.0000
  C   C28       1.0  0.7662759033878668  0.3715275669386173  0.18878032114937104  1.0000
  C   C29       1.0  0.7317663118308049  0.346660041683837  0.07306658356227902  1.0000
  C   C30       1.0  0.7662280995992755  0.3717588838068724  0.9534755657292142  1.0000
  C   C31       1.0  0.8342859537384378  0.4210618881760275  0.9486541839338885  1.0000
  C   C32       1.0  0.8679573440791761  0.4453232566262886  0.065410691254991  1.0000
  C   C33       1.0  0.6597655147182455  0.2944985316453299  0.07711415972671576  1.0000
  C   C34       1.0  0.6402558795770767  0.19603793802110459  0.17243179790835161  1.0000
  C   C35       1.0  0.5724854880470034  0.1469990526367222  0.17610766150043422  1.0000
  C   C36       1.0  0.5231527257198536  0.19552805435344522  0.08479375624612495  1.0000
  C   C37       1.0  0.542203813418644  0.293598460681016  0.9896355577085112  1.0000
  C   C38       1.0  0.6099533109789914  0.34273861484083046  0.9856933945834885  1.0000
  N   N3        1.0  0.45383935748454673  0.14531303726144995  0.08869004597884578  1.0000
  H   H18       1.0  0.8602781376151337  0.4395666785915766  0.5123292440345866  1.0000
  H   H19       1.0  0.7395963682178905  0.3540232330085684  0.28106936850913433  1.0000
  H   H20       1.0  0.740203838810239  0.35108192623128986  0.8641491229775684  1.0000
  H   H21       1.0  0.9204606547408659  0.48335908545788775  0.06245930610086492  1.0000
  H   H22       1.0  0.8602086358888651  0.439903651583325  0.6193594017995516  1.0000
  H   H23       1.0  0.6776522355727775  0.15576699673352334  0.24308933904764785  1.0000
  H   H24       1.0  0.5584831125337378  0.07094721094962053  0.24994060675282892  1.0000
  H   H25       1.0  0.5045177074773333  0.33220397792500456  0.9187082831032729  1.0000
  H   H26       1.0  0.6231429748815334  0.4196570106322288  0.9121923010136821  1.0000
  H   H27       1.0  0.4167021276508058  0.18087189410107807  0.021018687622350818  1.0000
  H   H28       1.0  0.4391481090038242  0.07220666767683115  0.15927529114951122  1.0000
  Zn  Zn1       1.0  0.758152753065796  0.4209488589958561  0.5673040474612532  1.0000
  Zn  Zn2       1.0  0.910459873043617  0.42094516935850934  0.567299660113985  1.0000
  C   C39       1.0  0.8342945941576511  0.41584452910993264  0.8044878003163853  1.0000
  C   C40       1.0  0.8343196947433162  0.4260511379730887  0.3301160343572873  1.0000
  C   C41       1.0  0.834249996748486  0.6581539765426587  0.5620816883469255  1.0000
  C   C42       1.0  0.8343642405473374  0.18374013015406065  0.5725222158632615  1.0000
  O   O1        1.0  0.892114883320805  0.42779539422887103  0.37849778062006423  1.0000
  O   O2        1.0  0.89209698575258  0.41409649260358794  0.7561023505170508  1.0000
  O   O3        1.0  0.8920601935284511  0.6097644362511305  0.560357699801544  1.0000
  O   O4        1.0  0.8921516235766674  0.2321274598441967  0.5742423339649181  1.0000
  O   O5        1.0  0.7764609505578005  0.6097665685128402  0.5603613736049855  1.0000
  O   O6        1.0  0.7764977424121285  0.41410018525427006  0.7561059547786442  1.0000
  O   O7        1.0  0.776515640134266  0.4277990411516155  0.3784998235586252  1.0000
  O   O8        1.0  0.7765523803834501  0.23213109750674366  0.5742444742687987  1.0000
