data_image0
_chemical_formula_structural       NC10NC3NH7C16H10C13NH9Zn2C4O8
_chemical_formula_sum              "N4 C46 H26 Zn2 O8"
_cell_length_a       19.210446455230148
_cell_length_b       10.29914801576943
_cell_length_c       10.298528502251457
_cell_angle_alpha    85.51780360307934
_cell_angle_beta     89.98780616926321
_cell_angle_gamma    89.9607823085547

_space_group_name_H-M_alt    "P 1"
_space_group_IT_number       1

loop_
  _space_group_symop_operation_xyz
  'x, y, z'

loop_
  _atom_site_type_symbol
  _atom_site_label
  _atom_site_symmetry_multiplicity
  _atom_site_fract_x
  _atom_site_fract_y
  _atom_site_fract_z
  _atom_site_occupancy
  N   N1        1.0  0.6556867362328462  0.42079378242837295  0.566616412852935  1.0000
  C   C1        1.0  0.5954582886364713  0.42300136745404715  0.5668467679948426  1.0000
  C   C2        1.0  0.5206539752174497  0.4257383687117047  0.5671321484991991  1.0000
  C   C3        1.0  0.4850483651448264  0.5419714873978232  0.5822025320993072  1.0000
  C   C4        1.0  0.4123828926878971  0.5421230537707116  0.5821498719873637  1.0000
  C   C5        1.0  0.3754872526299372  0.4264473535133759  0.5672183784317679  1.0000
  C   C6        1.0  0.2981650637295227  0.4250908380370573  0.5670682727377163  1.0000
  C   C7        1.0  0.2604158242071256  0.5286911463935495  0.5036602990761929  1.0000
  C   C8        1.0  0.1876374069283744  0.5272888578068613  0.5035517331765043  1.0000
  C   C9        1.0  0.1516068298886038  0.422543806570453  0.5668000421674586  1.0000
  C   C10       1.0  0.0766772525942491  0.42124168396323936  0.5666636811956596  1.0000
  N   N2        1.0  0.0164393542534692  0.4201947331627789  0.5665540818708898  1.0000
  C   C11       1.0  0.1886324176478762  0.3190692083117497  0.630182957586197  1.0000
  C   C12       1.0  0.2614126713856487  0.3201971920519351  0.6303418774374445  1.0000
  C   C13       1.0  0.4137028042247581  0.312034513135669  0.5524355171894872  1.0000
  N   N3        1.0  0.484472859017042  0.3144795969966412  0.5526001904995541  1.0000
  H   H1        1.0  0.5131532265223208  0.6314069371997055  0.5942191473063356  1.0000
  H   H2        1.0  0.3851179568687038  0.6321399089046975  0.59556116265824  1.0000
  H   H3        1.0  0.2871467120884895  0.6099683637597946  0.4526332829460131  1.0000
  H   H4        1.0  0.1594945633188331  0.6077378363806005  0.45385557914157504  1.0000
  H   H5        1.0  0.1612618877069383  0.23765680227151464  0.6797799733338246  1.0000
  H   H6        1.0  0.2889106445339243  0.23986689211386913  0.6814758871103899  1.0000
  H   H7        1.0  0.3874335086151144  0.2211546944162881  0.5389782949146731  1.0000
  C   C14       1.0  0.836016797832883  0.039092920686608856  0.5667508267727439  1.0000
  C   C15       1.0  0.8201265735468075  0.048763652356133  0.43326301404448553  1.0000
  C   C16       1.0  0.8121210498978083  0.9365371292712785  0.3654172263454274  1.0000
  C   C17       1.0  0.8202195061210108  0.813511820987422  0.43285835743205814  1.0000
  C   C18       1.0  0.8361159329575122  0.8018856079539144  0.5664309325099333  1.0000
  C   C19       1.0  0.8439179455812748  0.9151927770341145  0.6325547157519789  1.0000
  C   C20       1.0  0.7953112807917153  0.9478132024568355  0.22420321912065266  1.0000
  C   C21       1.0  0.8282472726125852  0.8668024892466561  0.13896925222643897  1.0000
  C   C22       1.0  0.8124021786999441  0.8775403574946419  0.006064076244237215  1.0000
  C   C23       1.0  0.7634584045053927  0.9691901337981913  0.9565884159228388  1.0000
  C   C24       1.0  0.7303955193076649  0.05018181119438325  0.040538304386184  1.0000
  C   C25       1.0  0.7461909821102769  0.039685283912946234  0.1734644381232593  1.0000
  C   C26       1.0  0.7471715540128276  0.9801210364009703  0.8197500823778907  1.0000
  C   C27       1.0  0.7335314922879138  0.9892755625071914  0.7051499576365798  1.0000
  C   C28       1.0  0.7175591410899612  0.9999953892716816  0.5709543801584016  1.0000
  C   C29       1.0  0.7039213685836889  0.009148528084215402  0.4563727650838607  1.0000
  H   H8        1.0  0.8420930596061906  0.3628477974834339  0.6181100594921529  1.0000
  H   H9        1.0  0.8148766982062599  0.14384540274327895  0.3813473923180377  1.0000
  H   H10       1.0  0.8131728972879857  0.7266478027431582  0.3814376891088467  1.0000
  H   H11       1.0  0.8561724474229075  0.9070176058333194  0.7355181482614472  1.0000
  H   H12       1.0  0.8656885265605004  0.5726358318446196  0.8187205001383233  1.0000
  H   H13       1.0  0.8669149154626725  0.796321378408771  0.1748167178360025  1.0000
  H   H14       1.0  0.8384467349575772  0.8145960834880931  0.9418767522760905  1.0000
  H   H15       1.0  0.6922815771056765  0.1212268218215733  0.0033206802976684102  1.0000
  H   H16       1.0  0.7193349874001111  0.10224137193083793  0.23684901523714297  1.0000
  H   H17       1.0  0.6919463063878004  0.017185757054855477  0.355760445474929  1.0000
  C   C30       1.0  0.8360762804425519  0.4206157390400769  0.18517393625958967  1.0000
  C   C31       1.0  0.7637119894500183  0.440599520787597  0.18268801357097075  1.0000
  C   C32       1.0  0.7270515825240199  0.45058520851431116  0.06428194344411553  1.0000
  C   C33       1.0  0.7636911756457525  0.440334673604887  0.9474284246370281  1.0000
  C   C34       1.0  0.836056458881648  0.42036277085672435  0.9480077652292267  1.0000
  C   C35       1.0  0.8717856333372048  0.41062843130479365  0.06734738228971104  1.0000
  C   C36       1.0  0.6505479712719802  0.4717063617529138  0.06266149729662085  1.0000
  C   C37       1.0  0.6198254953129588  0.5596958417038571  0.14354597432444094  1.0000
  C   C38       1.0  0.5478127184098981  0.5795301373083437  0.1419011896012392  1.0000
  C   C39       1.0  0.5055642221448894  0.5117360168412961  0.059587897013611224  1.0000
  C   C40       1.0  0.5355997000728915  0.42398403192116474  0.978807446826425  1.0000
  C   C41       1.0  0.6076050342881227  0.40405537608856856  0.9802156621805898  1.0000
  C   C42       1.0  0.43142699967529535  0.5322061438240346  0.058015232442298004  1.0000
  N   N4        1.0  0.3718256720081043  0.5486628685827093  0.05675095114907913  1.0000
  H   H18       1.0  0.9727586432739183  0.38204590873327327  0.3972590380146164  1.0000
  H   H19       1.0  0.735600409531119  0.4466545308052503  0.27320597399280144  1.0000
  H   H20       1.0  0.7358418687995005  0.44972891955652394  0.8557253516181298  1.0000
  H   H21       1.0  0.9275581918111513  0.3952312576183752  0.06852844991282692  1.0000
  H   H22       1.0  0.9728676586350677  0.38343564772000893  0.7417142153161231  1.0000
  H   H23       1.0  0.6515843037583102  0.6144160072535396  0.20682053880908957  1.0000
  H   H24       1.0  0.5251287286527327  0.647963881335877  0.204583468415386  1.0000
  H   H25       1.0  0.5033599624254507  0.37071494868029586  0.9149606285083456  1.0000
  H   H26       1.0  0.6296054201873822  0.33449248401546927  0.9180807555599633  1.0000
  Zn  Zn1       1.0  0.7597921476233942  0.4206174429156664  0.5666059269422763  1.0000
  Zn  Zn2       1.0  0.912333925270954  0.4203604857011438  0.5665752093366205  1.0000
  C   C43       1.0  0.8360579780390761  0.41523649731620793  0.8038180321313777  1.0000
  C   C44       1.0  0.836069760816422  0.4257430672112801  0.32936323060727357  1.0000
  C   C45       1.0  0.8360937516434062  0.6577032858663949  0.5613155545791264  1.0000
  C   C46       1.0  0.8360339349556314  0.18327471829056474  0.5718657780718135  1.0000
  O   O1        1.0  0.8939563816729739  0.4273606652373214  0.3777428201810271  1.0000
  O   O2        1.0  0.8939470367229171  0.4134228950280956  0.7554147551235249  1.0000
  O   O3        1.0  0.893975143956894  0.6092178940601569  0.559592288345568  1.0000
  O   O4        1.0  0.8939282223905592  0.23156567561624541  0.5735651895786413  1.0000
  O   O5        1.0  0.7781977984487669  0.609412253089668  0.559615946703905  1.0000
  O   O6        1.0  0.7781696914162284  0.4136188145172386  0.7554383435732233  1.0000
  O   O7        1.0  0.7781790364472787  0.4275565399843584  0.3777648470524295  1.0000
  O   O8        1.0  0.7781508771582798  0.2317615410413998  0.5735873138340364  1.0000
