data_image0
_chemical_formula_structural       NC9NC5H8C12ClH9C16H10Zn2C4O8
_chemical_formula_sum              "N2 C46 H27 Cl1 Zn2 O8"
_cell_length_a       17.807436237873137
_cell_length_b       10.299768534541528
_cell_length_c       10.299151387937775
_cell_angle_alpha    85.58714147101236
_cell_angle_beta     89.38153663469635
_cell_angle_gamma    88.408414792471

_space_group_name_H-M_alt    "P 1"
_space_group_IT_number       1

loop_
  _space_group_symop_operation_xyz
  'x, y, z'

loop_
  _atom_site_type_symbol
  _atom_site_label
  _atom_site_symmetry_multiplicity
  _atom_site_fract_x
  _atom_site_fract_y
  _atom_site_fract_z
  _atom_site_occupancy
  N   N1        1.0  0.7078343148076277  0.38709107379210894  0.5571424166840551  1.0000
  C   C1        1.0  0.647241518384674  0.3518971725928739  0.5461177712116239  1.0000
  C   C2        1.0  0.5718707393490838  0.3081198352486396  0.5324043092881718  1.0000
  C   C3        1.0  0.553778115214152  0.23665982149851383  0.4273992891219056  1.0000
  C   C4        1.0  0.48059696684070197  0.19404386979080357  0.4140017703331029  1.0000
  C   C5        1.0  0.4244596577541243  0.22251039527779448  0.5055768129784595  1.0000
  C   C6        1.0  0.3466869737238626  0.1773355647884729  0.4914207972102096  1.0000
  C   C7        1.0  0.2845228194996689  0.25910157564453784  0.5173614033977647  1.0000
  C   C8        1.0  0.211199327013056  0.21628259588051013  0.5039775621829639  1.0000
  C   C9        1.0  0.1479855408292622  0.30074006648308105  0.5302821228887913  1.0000
  N   N2        1.0  0.097174644029375  0.36863803022522257  0.5514302630972856  1.0000
  C   C10       1.0  0.1994563989254034  0.09143961918994936  0.46462776016134044  1.0000
  C   C11       1.0  0.2607631817188373  0.009659752605470917  0.4386787639549494  1.0000
  C   C12       1.0  0.3339671922196255  0.052084109673078194  0.4518600579498748  1.0000
  C   C13       1.0  0.4432437529753968  0.294464862471703  0.6108010735585969  1.0000
  C   C14       1.0  0.516477755206472  0.33689035481322294  0.624042936827639  1.0000
  H   H1        1.0  0.5961770895079279  0.21414337726536004  0.3556855179372962  1.0000
  H   H2        1.0  0.4676839640801547  0.14032604409744742  0.3310796416443087  1.0000
  H   H3        1.0  0.2930350602531449  0.35657727588269106  0.5462404307506672  1.0000
  H   H4        1.0  0.1429862728343039  0.05739956845313565  0.4540321785323409  1.0000
  H   H5        1.0  0.2515528862010031  0.9130036054961035  0.4085993297833188  1.0000
  H   H6        1.0  0.3805980095094995  0.986331972531456  0.432810320032581  1.0000
  H   H7        1.0  0.4015614104665669  0.31644283970996945  0.6838093444931508  1.0000
  H   H8        1.0  0.5299194535152523  0.3918282819628991  0.7059234517274524  1.0000
  C   C15       1.0  0.9024372119070351  0.9965023595417093  0.5542852266313136  1.0000
  C   C16       1.0  0.9074007593559608  0.00577362193604003  0.41774306089399627  1.0000
  C   C17       1.0  0.90998805084347  0.893328657286619  0.3485623888842315  1.0000
  C   C18       1.0  0.9075442412649118  0.7704791107921048  0.4177564458359184  1.0000
  C   C19       1.0  0.9025789265012996  0.7592164030962669  0.5542985754520842  1.0000
  C   C20       1.0  0.9000537711134893  0.8727834661535955  0.6217983208774904  1.0000
  C   C21       1.0  0.9152400691440361  0.9041905004755909  0.204112145590559  1.0000
  C   C22       1.0  0.8725095284200982  0.9997235237847375  0.1302750254340359  1.0000
  C   C23       1.0  0.8775198131121619  0.009748036253613312  0.9943213541045832  1.0000
  C   C24       1.0  0.9251882835768884  0.9247643557557423  0.9305140014659665  1.0000
  C   C25       1.0  0.96790668599312  0.8295434967736935  0.0028400745608705424  1.0000
  C   C26       1.0  0.9630298116291598  0.8191204163528855  0.13880643190012343  1.0000
  Cl  Cl1       1.0  0.9313907235991736  0.9375916058432733  0.7599374840964179  1.0000
  H   H9        1.0  0.9005073096203879  0.3204251279983781  0.6063118256366256  1.0000
  H   H10       1.0  0.9103031994518362  0.10062555781383242  0.36496772739554006  1.0000
  H   H11       1.0  0.9084861563970904  0.6835777188051761  0.3647963197872697  1.0000
  H   H12       1.0  0.8962238619024362  0.8648629613428129  0.7271343274846882  1.0000
  H   H13       1.0  0.9007168206246562  0.4274696228393162  0.6063319808040504  1.0000
  H   H14       1.0  0.8345196995548503  0.06552026674308342  0.1775759941077868  1.0000
  H   H15       1.0  0.8441708908564947  0.08341821151817763  0.9386986938204323  1.0000
  H   H16       1.0  0.0050588829280298064  0.7637391060757522  0.9538619118659768  1.0000
  H   H17       1.0  0.9973322132844791  0.7456977113612394  0.19292079370314985  1.0000
  C   C27       1.0  0.9025515735129468  0.3776885942604682  0.17292030389822255  1.0000
  C   C28       1.0  0.8300762459891813  0.43507609073494447  0.16907623573234254  1.0000
  C   C29       1.0  0.7932849817879083  0.464348798819167  0.049971919029505596  1.0000
  C   C30       1.0  0.8299456273124372  0.43545987176684164  0.9337658255147687  1.0000
  C   C31       1.0  0.9024645465699697  0.37803016530228484  0.935663564162653  1.0000
  C   C32       1.0  0.9383218134164151  0.34949998695279727  0.055673943770351286  1.0000
  C   C33       1.0  0.7166148627557215  0.5250581309360431  0.046950768039837554  1.0000
  C   C34       1.0  0.6975515177135059  0.6257729338010865  0.9519276967946313  1.0000
  C   C35       1.0  0.6253772127628453  0.6828739325224749  0.9492126423137179  1.0000
  C   C36       1.0  0.5713194723764563  0.640113444903591  0.04123282428159736  1.0000
  C   C37       1.0  0.5897020399509676  0.539989240934067  0.13610380187198645  1.0000
  C   C38       1.0  0.6618547755129782  0.4828016725829154  0.1390687359774938  1.0000
  C   C39       1.0  0.4970263857661216  0.6989445722425813  0.03830952242952823  1.0000
  C   C40       1.0  0.4348069740429972  0.7482147556203023  0.03586121326116576  1.0000
  C   C41       1.0  0.3619486899171875  0.8059096948551403  0.0329942672297967  1.0000
  C   C42       1.0  0.2997393330173388  0.8551721538001802  0.030546460233962458  1.0000
  H   H18       1.0  0.9304127024101532  0.3555530984249864  0.501879574477542  1.0000
  H   H19       1.0  0.802476839730156  0.45877832524035767  0.25878546284058035  1.0000
  H   H20       1.0  0.8014428761167108  0.4561895801422313  0.8418114959380292  1.0000
  H   H21       1.0  0.9942229863768643  0.30523202539749383  0.05792351135606255  1.0000
  H   H22       1.0  0.03915131891629553  0.26888522804471493  0.7320140811152847  1.0000
  H   H23       1.0  0.7387437624936306  0.6615222142212613  0.880777708423758  1.0000
  H   H24       1.0  0.6118052713229986  0.7605655878327857  0.8755608893362332  1.0000
  H   H25       1.0  0.5482186957353045  0.5058949371560164  0.20758950263634968  1.0000
  H   H26       1.0  0.6745387652413931  0.40439047356675517  0.21234048360386537  1.0000
  H   H27       1.0  0.24511438138765243  0.8984285976785953  0.02839709096810661  1.0000
  Zn  Zn1       1.0  0.8201895209133973  0.3817624621667719  0.5555015233329945  1.0000
  Zn  Zn2       1.0  0.9848194165415871  0.37395606064937637  0.5530818329501228  1.0000
  C   C43       1.0  0.9024783668123634  0.3727921334922457  0.7914886727461254  1.0000
  C   C44       1.0  0.9025323686858586  0.38292794272535446  0.3170947846101797  1.0000
  C   C45       1.0  0.9025488566449875  0.6150451145561435  0.5491209376718924  1.0000
  C   C46       1.0  0.9024618223787712  0.14067340408181384  0.5594625897218037  1.0000
  O   O1        1.0  0.9650021097328  0.38171816160055094  0.36456279739778275  1.0000
  O   O2        1.0  0.9649589071313622  0.3680760566209136  0.7421837970798546  1.0000
  O   O3        1.0  0.9650149861997246  0.5636984430776846  0.546470148617952  1.0000
  O   O4        1.0  0.964945974500241  0.18609578705401786  0.560276349310167  1.0000
  O   O5        1.0  0.8400629067746406  0.569622738427483  0.5483070077918406  1.0000
  O   O6        1.0  0.8400068280006392  0.374001912215707  0.744020587035243  1.0000
  O   O7        1.0  0.8400500308217657  0.38764397123849914  0.36639802593988  1.0000
  O   O8        1.0  0.8399938955733006  0.19202158744708053  0.5621116752206736  1.0000
