data_image0
_chemical_formula_structural       NC10NC3NCH9C13OH12C12IH9Zn2C4O8
_chemical_formula_sum              "N3 C43 H30 O9 I1 Zn2"
_cell_length_a       19.437513618241372
_cell_length_b       10.299150109392551
_cell_length_c       10.29977335064465
_cell_angle_alpha    85.52407015278276
_cell_angle_beta     90.35638175706923
_cell_angle_gamma    89.50394211810362

_space_group_name_H-M_alt    "P 1"
_space_group_IT_number       1

loop_
  _space_group_symop_operation_xyz
  'x, y, z'

loop_
  _atom_site_type_symbol
  _atom_site_label
  _atom_site_symmetry_multiplicity
  _atom_site_fract_x
  _atom_site_fract_y
  _atom_site_fract_z
  _atom_site_occupancy
  N   N1        1.0  0.6474822865707693  0.4110041338212207  0.575235907218558  1.0000
  C   C1        1.0  0.5885456993008256  0.4280164833431519  0.5722551966989888  1.0000
  C   C2        1.0  0.5151011678270923  0.4492718480286355  0.5685553152646421  1.0000
  C   C3        1.0  0.47335438071467795  0.3480783221065398  0.5569239036354932  1.0000
  C   C4        1.0  0.3974618022956404  0.3581463564255154  0.5496997621031816  1.0000
  C   C5        1.0  0.3578822454460639  0.4389780396011056  0.6154201439779206  1.0000
  C   C6        1.0  0.2817003936615594  0.4303720822262844  0.6069783939571303  1.0000
  C   C7        1.0  0.2485856577151163  0.30901667984224135  0.6116552459139657  1.0000
  C   C8        1.0  0.1768511269423743  0.3026469540364016  0.6044889266471871  1.0000
  C   C9        1.0  0.1372608327013627  0.4171597827756752  0.5930081184134397  1.0000
  C   C10       1.0  0.0634118638946095  0.4104519107295721  0.5856738005985678  1.0000
  N   N2        1.0  0.004042390963305  0.4050593715528583  0.5797774673194651  1.0000
  C   C11       1.0  0.1696591224069448  0.5382043271072139  0.5890766300860262  1.0000
  C   C12       1.0  0.24137802335945333  0.544828041193332  0.5963049008979349  1.0000
  C   C13       1.0  0.3865624866554112  0.5312378140083964  0.7053148646287786  1.0000
  N   N3        1.0  0.4435344008306906  0.5944623599844441  0.6848931883304417  1.0000
  C   C14       1.0  0.4873613731863676  0.5852411757939091  0.5717879105859465  1.0000
  H   H1        1.0  0.4957524116598135  0.25301939238288296  0.5448288795454808  1.0000
  H   H2        1.0  0.372751186106151  0.28864997169062634  0.4914006547739098  1.0000
  H   H3        1.0  0.2780522969172419  0.2190942098211166  0.622700909670796  1.0000
  H   H4        1.0  0.1522736126559606  0.2084123216340663  0.608402087311855  1.0000
  H   H5        1.0  0.1395076216264655  0.627471006903094  0.5803433001863285  1.0000
  H   H6        1.0  0.2654739457888411  0.6394755093211788  0.5923761665902321  1.0000
  H   H7        1.0  0.35656733839164  0.5515944694282091  0.7896760962872527  1.0000
  H   H8        1.0  0.5301031767843702  0.6555567379326157  0.5775319380911186  1.0000
  H   H9        1.0  0.45767737146827914  0.613384720616728  0.4811343722126191  1.0000
  C   C15       1.0  0.8258304934981134  0.026630903258343608  0.5776516995310135  1.0000
  C   C16       1.0  0.8245749538702396  0.01480797304547532  0.7144460414214668  1.0000
  C   C17       1.0  0.8238784818412279  0.8916799714546016  0.7835392198954345  1.0000
  C   C18       1.0  0.8244422737120131  0.7795549458332556  0.7140809575042639  1.0000
  C   C19       1.0  0.8257007811506009  0.7894223953171228  0.5773730521371998  1.0000
  C   C20       1.0  0.8263894286748013  0.9134206484282328  0.5099573576651912  1.0000
  C   C21       1.0  0.8225442568017697  0.8801545285072082  0.9281619246475568  1.0000
  C   C22       1.0  0.7802444357992196  0.7879598091704051  0.995644355742092  1.0000
  C   C23       1.0  0.7789661374800045  0.7771961682125027  0.13173388604540703  1.0000
  C   C24       1.0  0.8204158081541116  0.8574607564439163  0.20280692934867506  1.0000
  C   C25       1.0  0.862057454059726  0.9506198975347089  0.13595868466105931  1.0000
  C   C26       1.0  0.863351722860267  0.9615590693370708  0.9998690690652601  1.0000
  C   C27       1.0  0.8175955408342488  0.8482729504181185  0.3488568560937799  1.0000
  O   O1        1.0  0.7661763073179368  0.9322939841125091  0.3884424570850381  1.0000
  H   H10       1.0  0.8277534002633246  0.2562475264437454  0.3194402755296857  1.0000
  H   H11       1.0  0.8231820065836761  0.1015878708411635  0.767436723482374  1.0000
  H   H12       1.0  0.8248393576900742  0.684409075284809  0.7669193774849259  1.0000
  H   H13       1.0  0.8273582063068936  0.9217479484991249  0.4045104348339177  1.0000
  H   H14       1.0  0.8261385396314155  0.46574306653357883  0.5247898072908279  1.0000
  H   H15       1.0  0.747337165012794  0.7255164152703609  0.9431166644653195  1.0000
  H   H16       1.0  0.7455023970043789  0.7064084367316156  0.1816830662464698  1.0000
  H   H17       1.0  0.8936974887943755  0.01463715224760409  0.18921643843696467  1.0000
  H   H18       1.0  0.8968385845128622  0.03279159149243749  0.9507268242982796  1.0000
  H   H19       1.0  0.8682066413779889  0.8752455188979074  0.3896713921286511  1.0000
  H   H20       1.0  0.8064179884580721  0.7464259712494795  0.3865269576426358  1.0000
  H   H21       1.0  0.7664394421382804  0.9225815811973731  0.48507221046540294  1.0000
  C   C28       1.0  0.8257328184705438  0.40813330634675316  0.1961427122218009  1.0000
  C   C29       1.0  0.8880882118333322  0.47610276244312333  0.19057467248599447  1.0000
  C   C30       1.0  0.9197172776899297  0.5104350297853939  0.07062372776701409  1.0000
  C   C31       1.0  0.8881544284134526  0.4758874846058323  0.9553059803151203  1.0000
  C   C32       1.0  0.825798458517433  0.4079200432301695  0.9588820537774594  1.0000
  C   C33       1.0  0.7949370878944756  0.3744224822200859  0.07977290788478886  1.0000
  C   C34       1.0  0.9856838121192713  0.5823387273735363  0.06578722147290672  1.0000
  C   C35       1.0  0.9964890951907173  0.6851860095589373  0.14569805685338655  1.0000
  C   C36       1.0  0.058612823740541664  0.7527480252753342  0.14094460331357772  1.0000
  C   C37       1.0  0.11062171777334795  0.7185185899341755  0.05662982115771542  1.0000
  C   C38       1.0  0.10047994354724676  0.6165465144092488  0.9768698557882147  1.0000
  C   C39       1.0  0.03842604885630729  0.548757344179031  0.9812183392456477  1.0000
  I   I1        1.0  0.20428182218664048  0.8206042129306721  0.049766909990286434  1.0000
  H   H22       1.0  0.8019525740045708  0.382299200984503  0.5257125987639892  1.0000
  H   H23       1.0  0.9126862893539391  0.5009416743456714  0.27985568147424034  1.0000
  H   H24       1.0  0.9118439019738548  0.5036825082914544  0.862484680378726  1.0000
  H   H25       1.0  0.7468323543118919  0.321988283757104  0.08330003226466154  1.0000
  H   H26       1.0  0.8020487009734859  0.3819854315070099  0.6327940968715802  1.0000
  H   H27       1.0  0.9565896672554687  0.7144314647980088  0.2105701689399202  1.0000
  H   H28       1.0  0.0662136365941437  0.8319046591544486  0.20259848885939014  1.0000
  H   H29       1.0  0.14071689126920184  0.5895318411256047  0.911710089893198  1.0000
  H   H30       1.0  0.032020935512933724  0.46903984436266155  0.9197407900396111  1.0000
  Zn  Zn1       1.0  0.750377837324493  0.40928511223767794  0.5765540136042644  1.0000
  Zn  Zn2       1.0  0.9011468491520521  0.40676771971314407  0.5784700347251068  1.0000
  C   C40       1.0  0.8257853926687286  0.4027862670309683  0.8147098264846679  1.0000
  C   C41       1.0  0.8257409399330355  0.4132681761507848  0.3403143696356066  1.0000
  C   C42       1.0  0.8257213123050167  0.6452401111949209  0.5722504772964909  1.0000
  C   C43       1.0  0.8258049691211322  0.1708127723936066  0.5827737879788144  1.0000
  O   O2        1.0  0.88295972078283  0.41403048180652613  0.38942681698799975  1.0000
  O   O3        1.0  0.8829968033730323  0.4001123389978174  0.7670512213404768  1.0000
  O   O4        1.0  0.8829442864853556  0.5958968969083944  0.5712635711354692  1.0000
  O   O5        1.0  0.8830121862132964  0.2182459340731897  0.5852143691609482  1.0000
  O   O6        1.0  0.7685124488131835  0.5978068987381111  0.5698096785077476  1.0000
  O   O7        1.0  0.7685649654264103  0.4020239012812379  0.7655972588970481  1.0000
  O   O8        1.0  0.7685278827552976  0.41594199926601494  0.38797129315798107  1.0000
  O   O9        1.0  0.7685803481929092  0.2201574422159165  0.5837589427023133  1.0000
