data_image0
_chemical_formula_structural       NC10NC5H10C12OCH12C12ClH9Zn2C4O8
_chemical_formula_sum              "N2 C44 H31 O9 Cl1 Zn2"
_cell_length_a       19.4436361288709
_cell_length_b       10.29979075500242
_cell_length_c       10.299771906710086
_cell_angle_alpha    85.53978707277841
_cell_angle_beta     89.71369758328774
_cell_angle_gamma    89.4004616021446

_space_group_name_H-M_alt    "P 1"
_space_group_IT_number       1

loop_
  _space_group_symop_operation_xyz
  'x, y, z'

loop_
  _atom_site_type_symbol
  _atom_site_label
  _atom_site_symmetry_multiplicity
  _atom_site_fract_x
  _atom_site_fract_y
  _atom_site_fract_z
  _atom_site_occupancy
  N   N1        1.0  0.6472912767110263  0.40972278514876104  0.5620093884729043  1.0000
  C   C1        1.0  0.5884557980543222  0.4196179137956968  0.5763928258942719  1.0000
  C   C2        1.0  0.5151270915070295  0.4319584406350079  0.594384472980297  1.0000
  C   C3        1.0  0.4729348567492797  0.40000594412354595  0.4997123606260083  1.0000
  C   C4        1.0  0.3970292211245881  0.41044169187642043  0.5050398507138534  1.0000
  C   C5        1.0  0.3573094186106663  0.3856438467988421  0.6121139516167176  1.0000
  C   C6        1.0  0.2811863621494438  0.3895665066341276  0.5991543176043028  1.0000
  C   C7        1.0  0.24062728003174894  0.4471837026771859  0.692921901702769  1.0000
  C   C8        1.0  0.1689617662405191  0.450826368879899  0.6823777676458611  1.0000
  C   C9        1.0  0.136860685819445  0.39645569554388316  0.5783525995181027  1.0000
  C   C10       1.0  0.0630658949283497  0.4001596773259528  0.5676531795859234  1.0000
  N   N2        1.0  0.0037398882542099  0.40313748424820295  0.5590515553164799  1.0000
  C   C11       1.0  0.1766950494877529  0.3381312331956605  0.4849682918023239  1.0000
  C   C12       1.0  0.2483769653630696  0.33443446103453556  0.4952606509551063  1.0000
  C   C13       1.0  0.385467680132871  0.34512195806902635  0.7432112065305865  1.0000
  C   C14       1.0  0.44413082737104553  0.38822151534156313  0.7904513429501283  1.0000
  C   C15       1.0  0.4883113314279977  0.4861140021110717  0.7160781346340008  1.0000
  H   H1        1.0  0.495025848445876  0.3709312459291587  0.40940700088250104  1.0000
  H   H2        1.0  0.3723137660802288  0.43297982408923685  0.41187999531409525  1.0000
  H   H3        1.0  0.264502043454692  0.49043654136618264  0.773767936402886  1.0000
  H   H4        1.0  0.138619796103799  0.49610663263644295  0.7552962025900711  1.0000
  H   H5        1.0  0.1523484186150098  0.29507389448660026  0.4044567296414585  1.0000
  H   H6        1.0  0.2780537921073612  0.28691049383055867  0.42303867906150594  1.0000
  H   H7        1.0  0.3545220636137906  0.28087516279683644  0.807461940918349  1.0000
  H   H8        1.0  0.4593003917724172  0.35410864157648536  0.888387957746249  1.0000
  H   H9        1.0  0.4581836227288276  0.5768396058775063  0.6908209743285363  1.0000
  H   H10       1.0  0.53160115320765  0.5116703422740845  0.7791617962722868  1.0000
  C   C16       1.0  0.8255806840555664  0.0250611680494226  0.5605689066663189  1.0000
  C   C17       1.0  0.8056825644095632  0.014223879989792465  0.6921723943165949  1.0000
  C   C18       1.0  0.7955454527928738  0.891597276621114  0.7588241839325998  1.0000
  C   C19       1.0  0.8055589924981141  0.7789438891556835  0.6921076344672061  1.0000
  C   C20       1.0  0.8254570815323244  0.7877889632877688  0.5605032145540196  1.0000
  C   C21       1.0  0.8353581102911541  0.9112905602179227  0.49547140441009274  1.0000
  C   C22       1.0  0.7744985597501567  0.8811860654073648  0.8980545058629901  1.0000
  C   C23       1.0  0.7243180746724257  0.7912336014844837  0.9435365608955188  1.0000
  C   C24       1.0  0.7045712226284228  0.7817074154436077  0.07443976962933785  1.0000
  C   C25       1.0  0.7345600544115912  0.8614728710261661  0.1615392973666262  1.0000
  C   C26       1.0  0.7849238041051836  0.9520304812079268  0.11792743170197861  1.0000
  C   C27       1.0  0.8044573893359778  0.9611995752887424  0.9864992917280133  1.0000
  O   O1        1.0  0.8167230908945301  0.034118139005390846  0.20153218688881835  1.0000
  C   C28       1.0  0.8019891608968285  0.035327364867490996  0.3369908637496829  1.0000
  H   H11       1.0  0.833192821884422  0.35664155486260873  0.5104433709417453  1.0000
  H   H12       1.0  0.7971097938471376  0.10139346244790359  0.742672408510272  1.0000
  H   H13       1.0  0.7987068431886347  0.6841549369762023  0.743532486386377  1.0000
  H   H14       1.0  0.8507091982360642  0.918882663830338  0.3939448695190533  1.0000
  H   H15       1.0  0.8330049374385904  0.4637085132883892  0.5103405770527252  1.0000
  H   H16       1.0  0.6997118619879957  0.7294790719614431  0.8775310608331555  1.0000
  H   H17       1.0  0.6657295763397146  0.7124448399392626  0.10844095112154806  1.0000
  H   H18       1.0  0.7182691811373418  0.8519940911301005  0.26234129878518486  1.0000
  H   H19       1.0  0.8438541130194976  0.03002523112573674  0.9540063653283966  1.0000
  H   H20       1.0  0.8138745327228976  0.9385635233150085  0.3875149364043601  1.0000
  H   H21       1.0  0.8344489120390001  0.10935400417512087  0.3789359260802486  1.0000
  H   H22       1.0  0.7470844122278245  0.06124803747302887  0.3518819789771791  1.0000
  C   C29       1.0  0.8254861190078341  0.4065320026063106  0.1791670787723505  1.0000
  C   C30       1.0  0.8878597158095511  0.4742625339479387  0.1723157944888405  1.0000
  C   C31       1.0  0.9194984819387212  0.5084733652916258  0.05171358713113028  1.0000
  C   C32       1.0  0.8879260978687387  0.47404614561835734  0.9370454861884219  1.0000
  C   C33       1.0  0.8255516163344921  0.4063181905090134  0.9419051216289658  1.0000
  C   C34       1.0  0.7946812379107981  0.372939559358882  0.06343100665226431  1.0000
  C   C35       1.0  0.985485003386715  0.5801252154747492  0.045519243440163004  1.0000
  C   C36       1.0  0.9963386344075533  0.682929709131842  0.12522227903919458  1.0000
  C   C37       1.0  0.05847770193748825  0.7502689550890258  0.11920439936007421  1.0000
  C   C38       1.0  0.11046819408314801  0.7158376725969169  0.033787844759055385  1.0000
  C   C39       1.0  0.10027103432768114  0.6138805166532486  0.9542080818540262  1.0000
  C   C40       1.0  0.03819364798952951  0.5463398095472005  0.9598498359859144  1.0000
  Cl  Cl1       1.0  0.1883897892278552  0.8004482329735803  0.02647413017486744  1.0000
  H   H23       1.0  0.8017005001655723  0.3807809194020497  0.5092268450935842  1.0000
  H   H24       1.0  0.9124635149199131  0.49900746937649654  0.26109023626755135  1.0000
  H   H25       1.0  0.9116234263677611  0.5017494027977429  0.843736821419212  1.0000
  H   H26       1.0  0.7465624609407928  0.3206896998022519  0.06794825798234938  1.0000
  H   H27       1.0  0.8017971848052527  0.38046456188910516  0.6163068855370875  1.0000
  H   H28       1.0  0.9564614035152104  0.7123195298310296  0.19092461038811503  1.0000
  H   H29       1.0  0.06606992020226521  0.8294025574399275  0.18076808802190958  1.0000
  H   H30       1.0  0.14046179219436516  0.586632048206678  0.8881593861036818  1.0000
  H   H31       1.0  0.03174310857426499  0.4666448376639074  0.8984962560175718  1.0000
  Zn  Zn1       1.0  0.7501546487633423  0.40781893608369435  0.5611633341564659  1.0000
  Zn  Zn2       1.0  0.900876510353694  0.40503072263587425  0.5599082917282465  1.0000
  C   C41       1.0  0.8255385465566387  0.40118492978376663  0.7977317310183507  1.0000
  C   C42       1.0  0.825494258183798  0.4116663370723981  0.3233400084867888  1.0000
  C   C43       1.0  0.8254764432861479  0.6436187150017987  0.5553405263580735  1.0000
  C   C44       1.0  0.8255563102822936  0.16923099248384021  0.5657312829482604  1.0000
  O   O2        1.0  0.8826951516638668  0.41232568840813255  0.37124947916176  1.0000
  O   O3        1.0  0.8827320586838519  0.39840840933834243  0.7488693384182634  1.0000
  O   O4        1.0  0.8826811385649339  0.5941767707808441  0.5531367320014853  1.0000
  O   O5        1.0  0.8827460203417548  0.2165573372345817  0.5669819886313086  1.0000
  O   O6        1.0  0.7682850873413064  0.5962923224378831  0.5540896376748572  1.0000
  O   O7        1.0  0.7683360071982446  0.4005255213188028  0.7498221747118945  1.0000
  O   O8        1.0  0.7682991000972408  0.414442755569542  0.372200754057848  1.0000
  O   O9        1.0  0.7683499687821838  0.2186743950799368  0.5679333608960799  1.0000
