data_image0
_chemical_formula_structural       NC12NC2H8C12OCH12C12IH9Zn2C4O8
_chemical_formula_sum              "N2 C43 H29 O9 I1 Zn2"
_cell_length_a       19.240039667572717
_cell_length_b       10.29979075500242
_cell_length_c       10.29977335064465
_cell_angle_alpha    85.53982299009832
_cell_angle_beta     90.00916568916979
_cell_angle_gamma    89.9807799165636

_space_group_name_H-M_alt    "P 1"
_space_group_IT_number       1

loop_
  _space_group_symop_operation_xyz
  'x, y, z'

loop_
  _atom_site_type_symbol
  _atom_site_label
  _atom_site_symmetry_multiplicity
  _atom_site_fract_x
  _atom_site_fract_y
  _atom_site_fract_z
  _atom_site_occupancy
  N   N1        1.0  0.6540991301932784  0.4216803340880151  0.567380729806362  1.0000
  C   C1        1.0  0.5939507613538945  0.42168041809250134  0.567380647865297  1.0000
  C   C2        1.0  0.5191327241799029  0.42168053541722395  0.5673805105548513  1.0000
  C   C3        1.0  0.48267944895665166  0.35718573312966573  0.6707956543827718  1.0000
  C   C4        1.0  0.4100087281846803  0.3570748273846671  0.6708822019803913  1.0000
  C   C5        1.0  0.3728004892064375  0.42168062804754514  0.5673802828686416  1.0000
  C   C6        1.0  0.4099679285985006  0.4862866156400789  0.4638785582886198  1.0000
  C   C7        1.0  0.48263864444304067  0.48617547436125585  0.46396522839811016  1.0000
  C   C8        1.0  0.2955953987727597  0.421680549414138  0.5673801874568083  1.0000
  C   C9        1.0  0.2584315173482763  0.3084081399146208  0.609256167825432  1.0000
  C   C10       1.0  0.1857608019407998  0.308515066030971  0.6091648374254994  1.0000
  C   C11       1.0  0.1492631118779793  0.4216804202242106  0.5673802483730808  1.0000
  C   C12       1.0  0.07444507476476168  0.4216803064101473  0.5673804970391743  1.0000
  N   N2        1.0  0.014296757937853998  0.421680265526704  0.5673807054604354  1.0000
  C   C13       1.0  0.185712932653622  0.5348458502600146  0.5255956064263911  1.0000
  C   C14       1.0  0.2583836018018806  0.5349529565434712  0.5255041134235325  1.0000
  H   H1        1.0  0.5104101970066275  0.3072522591607614  0.7515392412986774  1.0000
  H   H2        1.0  0.38293125578023113  0.30793911380313976  0.7527412589661475  1.0000
  H   H3        1.0  0.38285887020560566  0.5354223562885885  0.382019450453178  1.0000
  H   H4        1.0  0.5103376678977863  0.5361088479885361  0.3832219172822944  1.0000
  H   H5        1.0  0.2855434735983367  0.21924410864791  0.6404279014016736  1.0000
  H   H6        1.0  0.15806456807617608  0.22024991353079382  0.64136949634087  1.0000
  H   H7        1.0  0.157979343076109  0.6231109782192339  0.4933909620625896  1.0000
  H   H8        1.0  0.2854581243509748  0.6241170669994036  0.49433233507209606  1.0000
  C   C15       1.0  0.8342637440351368  0.04031254309978616  0.5674196514897205  1.0000
  C   C16       1.0  0.8141563594532832  0.029107727805090633  0.6988580043842072  1.0000
  C   C17       1.0  0.8039126376053894  0.9062938871700066  0.7654256660524419  1.0000
  C   C18       1.0  0.8140314878317921  0.7938254539875711  0.6987922191766469  1.0000
  C   C19       1.0  0.8341388414797514  0.8030380547885949  0.5673529337654162  1.0000
  C   C20       1.0  0.8441439976373459  0.9267225284652165  0.5024032923034576  1.0000
  C   C21       1.0  0.7826443981883412  0.8954939303772012  0.9044813195360817  1.0000
  C   C22       1.0  0.7319361329123781  0.804614430227446  0.9495469802067598  1.0000
  C   C23       1.0  0.7119816068296784  0.7947235111209893  0.08028630949985471  1.0000
  C   C24       1.0  0.7422858666965929  0.8750430533910039  0.16763466098570734  1.0000
  C   C25       1.0  0.7931793243915009  0.9665310867174455  0.12444071001569046  1.0000
  C   C26       1.0  0.8129183404947281  0.9760609735129255  0.9931746799442451  1.0000
  O   O1        1.0  0.8253130807097983  0.04920627645286735  0.20830931233800165  1.0000
  C   C27       1.0  0.8104242020802588  0.05014338388604567  0.3436457049352185  1.0000
  H   H9        1.0  0.8419559373763279  0.3720335296667472  0.5173572889551659  1.0000
  H   H10       1.0  0.8054934297195839  0.11611896343110306  0.7492868742144825  1.0000
  H   H11       1.0  0.8071072765796448  0.6989099433616053  0.7501602038646664  1.0000
  H   H12       1.0  0.8596565302062283  0.9345981735906874  0.4010041562918514  1.0000
  H   H13       1.0  0.8417660767906529  0.4790970169363056  0.5172529360650067  1.0000
  H   H14       1.0  0.7070711083116011  0.742405269059489  0.88333731610494  1.0000
  H   H15       1.0  0.6727314379766475  0.7247433727804304  0.1139651857956081  1.0000
  H   H16       1.0  0.7258236642499442  0.8652633693602605  0.26830146554602163  1.0000
  H   H17       1.0  0.8527294251344499  0.045614447971958016  0.9610086643565421  1.0000
  H   H18       1.0  0.8224345887431135  0.953599151689728  0.39426839003547276  1.0000
  H   H19       1.0  0.8432253633862092  0.12476973076122766  0.38586010265311166  1.0000
  H   H20       1.0  0.754941980114028  0.07504972211191996  0.3580812307649005  1.0000
  C   C28       1.0  0.8341681296599965  0.4217813908229264  0.1860171110171427  1.0000
  C   C29       1.0  0.8971602099403294  0.49078469574698946  0.1796738544804446  1.0000
  C   C30       1.0  0.9291122268549128  0.5256413832682019  0.05932964999554824  1.0000
  C   C31       1.0  0.8972271003289655  0.490570539833284  0.9444042598206543  1.0000
  C   C32       1.0  0.8342344376498232  0.42156923984984074  0.9487555579803604  1.0000
  C   C33       1.0  0.8030579545924975  0.3875599871798716  0.07003012710627976  1.0000
  C   C34       1.0  0.9957523201568912  0.598638802364033  0.05367303179440586  1.0000
  C   C35       1.0  0.006668661585470748  0.701657614162976  0.13347464662010888  1.0000
  C   C36       1.0  0.06942671037119941  0.7702496506825338  0.12794881367020605  1.0000
  C   C37       1.0  0.12196591861698214  0.7368901287525467  0.04296237245725498  1.0000
  C   C38       1.0  0.1117198620848574  0.6347575118353312  0.9633034206502247  1.0000
  C   C39       1.0  0.04903235777440207  0.5659395040237187  0.9684233316955573  1.0000
  I   I1        1.0  0.21658235024523753  0.8405286314682385  0.034935055082845556  1.0000
  H   H21       1.0  0.8101450749705214  0.39555300308451047  0.5158826631410576  1.0000
  H   H22       1.0  0.9220094331444276  0.5160316075404914  0.2686485101303011  1.0000
  H   H23       1.0  0.9211584737925371  0.518758168533876  0.8512889908153563  1.0000
  H   H24       1.0  0.7544620421060384  0.33432821487605846  0.0741553011904823  1.0000
  H   H25       1.0  0.8102421801009052  0.3952408624141428  0.6229628507560343  1.0000
  H   H26       1.0  0.9663624188211588  0.7302354519905505  0.19886285571528717  1.0000
  H   H27       1.0  0.07710570011864903  0.8495263745375148  0.1895277476706161  1.0000
  H   H28       1.0  0.15236708584839476  0.6084158961223838  0.8976238753282586  1.0000
  H   H29       1.0  0.0425612614259101  0.4861218948723318  0.9070053547425054  1.0000
  Zn  Zn1       1.0  0.7580443952537014  0.4216768450281254  0.5673882115152704  1.0000
  Zn  Zn2       1.0  0.9103515143049306  0.4216731581903588  0.5673838235854056  1.0000
  C   C40       1.0  0.8342211973660278  0.41643567546097704  0.8045820813618134  1.0000
  C   C41       1.0  0.8341763751243066  0.42691596629642303  0.3301900810142615  1.0000
  C   C42       1.0  0.8341584061354032  0.6588681609577456  0.5621904072046597  1.0000
  C   C43       1.0  0.834239114644731  0.1844819204837902  0.5725818245479828  1.0000
  O   O2        1.0  0.8919789012301383  0.4286321118702443  0.3785741820803723  1.0000
  O   O3        1.0  0.8920162506012025  0.4147157520470419  0.756194276197784  1.0000
  O   O4        1.0  0.8919647668373749  0.6104830497061762  0.5604612842589851  1.0000
  O   O5        1.0  0.892030333011877  0.23286482352964644  0.5743070766451146  1.0000
  O   O6        1.0  0.7763655245718092  0.6104851796915112  0.5604649584502277  1.0000
  O   O7        1.0  0.7764170080708918  0.4147194423509146  0.7561978810071255  1.0000
  O   O8        1.0  0.7763796586177325  0.4286357573525883  0.3785762254917935  1.0000
  O   O9        1.0  0.7764310904066145  0.23286845969612746  0.5743092174252593  1.0000
