data_image0
_chemical_formula_structural       NC11NC3H8C12NCOCH13C12ClH9Zn2C4O8
_chemical_formula_sum              "N3 C44 H30 O9 Cl1 Zn2"
_cell_length_a       17.807433833752565
_cell_length_b       10.299155265289647
_cell_length_c       10.299771906710086
_cell_angle_alpha    85.5278422735101
_cell_angle_beta     88.53397753802528
_cell_angle_gamma    90.66237101144992

_space_group_name_H-M_alt    "P 1"
_space_group_IT_number       1

loop_
  _space_group_symop_operation_xyz
  'x, y, z'

loop_
  _atom_site_type_symbol
  _atom_site_label
  _atom_site_symmetry_multiplicity
  _atom_site_fract_x
  _atom_site_fract_y
  _atom_site_fract_z
  _atom_site_occupancy
  N   N1        1.0  0.7069571292038662  0.43898162126917484  0.5342770792115326  1.0000
  C   C1        1.0  0.6561516279993577  0.40423400535534104  0.6008482273847244  1.0000
  C   C2        1.0  0.5929444574379718  0.36101083619117813  0.6836542407296864  1.0000
  C   C3        1.0  0.6046972365930267  0.29742213956645425  0.8063887523287041  1.0000
  C   C4        1.0  0.5433968723947333  0.2558794949521346  0.886910401642909  1.0000
  C   C5        1.0  0.47018951131659736  0.2776120787044114  0.8453384139774556  1.0000
  C   C6        1.0  0.4574598610420654  0.34135546546122875  0.7221436678088962  1.0000
  C   C7        1.0  0.3796837236726379  0.36441903313167856  0.6777906949007715  1.0000
  C   C8        1.0  0.3608915221382623  0.34758179770166975  0.5482162406888704  1.0000
  C   C9        1.0  0.2876542228567796  0.36927566316285243  0.5066001925020067  1.0000
  C   C10       1.0  0.2322659032389517  0.4081255415259435  0.5937382458873901  1.0000
  C   C11       1.0  0.1568916082795567  0.43047829554295003  0.5507607376950279  1.0000
  N   N2        1.0  0.0962960492368803  0.4484482491643653  0.5162099490121059  1.0000
  C   C12       1.0  0.2503664444581198  0.42517351605035913  0.722781514010153  1.0000
  C   C13       1.0  0.3235510140038184  0.40344464706627425  0.7646529984510306  1.0000
  C   C14       1.0  0.519617539691026  0.3828935402639353  0.6416384354010314  1.0000
  H   H1        1.0  0.6611700291339183  0.27999720416477847  0.8397587014510177  1.0000
  H   H2        1.0  0.5526148513249488  0.20639752410142886  0.9816590628964723  1.0000
  H   H3        1.0  0.42356387878945917  0.2430360720864082  0.9087862633129828  1.0000
  H   H4        1.0  0.40257028903507325  0.3159570371600253  0.47950904759641655  1.0000
  H   H5        1.0  0.2742062719140415  0.3554219066736186  0.40657046547569586  1.0000
  H   H6        1.0  0.2079711139101784  0.455575313179005  0.790974277170791  1.0000
  H   H7        1.0  0.3364701754479417  0.41884396498954213  0.8644995517593472  1.0000
  H   H8        1.0  0.5110977610840113  0.43373788765506505  0.5471237164924927  1.0000
  C   C15       1.0  0.901714097998446  0.06231954032532094  0.5253581347734244  1.0000
  C   C16       1.0  0.8888684297653545  0.07175761444714768  0.39102958732067816  1.0000
  C   C17       1.0  0.8822826357606294  0.9594035081868758  0.3228078374594323  1.0000
  C   C18       1.0  0.8886887726705235  0.8364935913706456  0.39073014067967615  1.0000
  C   C19       1.0  0.9015462877144761  0.8251005410577907  0.5251397286239328  1.0000
  C   C20       1.0  0.9079831369888391  0.9385292194718486  0.5916260889406733  1.0000
  C   C21       1.0  0.8686943972553894  0.9703615428444079  0.18070441130513748  1.0000
  C   C22       1.0  0.9067862027406272  0.06542900039071631  0.09751949863060205  1.0000
  C   C23       1.0  0.8940049565843545  0.07561050602682573  0.9637904182309924  1.0000
  C   C24       1.0  0.8433434528233323  0.9900571563507421  0.910391014756331  1.0000
  C   C25       1.0  0.8043339877062371  0.8967836972528501  0.993550352024374  1.0000
  C   C26       1.0  0.8171425922337217  0.8863468513265427  0.12724082754892074  1.0000
  N   N3        1.0  0.8281442928368543  0.9999798855244179  0.7735358218485344  1.0000
  C   C27       1.0  0.8829893975358403  0.03828655799980574  0.6727734124586657  1.0000
  O   O1        1.0  0.9519112164506675  0.04248629184067254  0.6974334166478449  1.0000
  C   C28       1.0  0.8590099040584285  0.06420190442689955  0.5353468400457917  1.0000
  H   H9        1.0  0.9066784097814118  0.3861660092942518  0.5770198636040607  1.0000
  H   H10       1.0  0.8829197954974393  0.166677385057441  0.3394962016692473  1.0000
  H   H11       1.0  0.8846426104681424  0.7496157465495933  0.33828966346190326  1.0000
  H   H12       1.0  0.917893798343813  0.9305346322232629  0.6952359419242695  1.0000
  H   H13       1.0  0.926264010481978  0.5963244237751885  0.7786791026641693  1.0000
  H   H14       1.0  0.9469056904435669  0.13143791047490594  0.13574992261268082  1.0000
  H   H15       1.0  0.9228198500238631  0.15178897291008542  0.9028730742289723  1.0000
  H   H16       1.0  0.7641423223989787  0.8314774056916574  0.9544562449630543  1.0000
  H   H17       1.0  0.7859137902184513  0.8137257288737494  0.18910313249059185  1.0000
  H   H18       1.0  0.7752281995650389  0.9698362560501732  0.7449180615723843  1.0000
  H   H19       1.0  0.804780026952451  0.11633065521255226  0.5334097424438058  1.0000
  H   H20       1.0  0.8520539192492643  0.9704399964850995  0.4904457433736451  1.0000
  H   H21       1.0  0.9017720069548205  0.1253535683892948  0.4779674075777991  1.0000
  C   C29       1.0  0.9015943999779356  0.4438154783470265  0.14388130115940445  1.0000
  C   C30       1.0  0.9697203840270249  0.5143601760674237  0.13437181351283756  1.0000
  C   C31       1.0  0.004277032621214705  0.5499984712625179  0.012421272843003317  1.0000
  C   C32       1.0  0.9697929005601251  0.5141467605537635  0.8990987359301403  1.0000
  C   C33       1.0  0.9016659500321734  0.4436045994206088  0.9066166117061671  1.0000
  C   C34       1.0  0.8679485535751039  0.40883317229923666  0.02945808377201331  1.0000
  C   C35       1.0  0.07634914234755175  0.6246274952901558  0.0034147525633976272  1.0000
  C   C36       1.0  0.08819983162959932  0.7279286878916735  0.08263638130657402  1.0000
  C   C37       1.0  0.15606966288728308  0.798071508241585  0.07397032159982886  1.0000
  C   C38       1.0  0.21285887251310753  0.7659789324907216  0.9863568905718991  1.0000
  C   C39       1.0  0.20172519158808577  0.6635547065661194  0.9072305295381491  1.0000
  C   C40       1.0  0.1339227415983566  0.5932131873318109  0.9155178906051349  1.0000
  Cl  Cl1       1.0  0.2979667647779436  0.8541051521947196  0.9757223573367599  1.0000
  H   H22       1.0  0.8756151558673213  0.41699124366685236  0.4749547337729214  1.0000
  H   H23       1.0  0.9965933463364746  0.5402150317275012  0.22209811267675184  1.0000
  H   H24       1.0  0.9956756236877674  0.5429193433731758  0.8047797433627664  1.0000
  H   H25       1.0  0.8153920359994908  0.354412294175678  0.03602603413007244  1.0000
  H   H26       1.0  0.8757207753428072  0.4166792159315047  0.5820307410380052  1.0000
  H   H27       1.0  0.04464180791756345  0.755524926400823  0.15002312159971787  1.0000
  H   H28       1.0  0.1643590223263791  0.8775531120318201  0.13519576591060622  1.0000
  H   H29       1.0  0.24562557975275134  0.6381141046083352  0.8394836901023681  1.0000
  H   H30       1.0  0.12688042948295508  0.5132215855414164  0.8544542726161954  1.0000
  Zn  Zn1       1.0  0.8193119326073913  0.44171000863890586  0.5290707811961637  1.0000
  Zn  Zn2       1.0  0.9839412344027627  0.44570923853594513  0.5214268360462886  1.0000
  C   C41       1.0  0.9016518950724052  0.43847035499518694  0.7624448384156879  1.0000
  C   C42       1.0  0.9016030693359913  0.44895057454958565  0.28805282235196517  1.0000
  C   C43       1.0  0.9015736342020181  0.6809200037711005  0.5200060508312072  1.0000
  C   C44       1.0  0.9016812743797402  0.20649936397862434  0.530491682229945  1.0000
  O   O2        1.0  0.9640819421570055  0.4521859805126127  0.33353726616192847  1.0000
  O   O3        1.0  0.964122853231845  0.43826929230077316  0.711158443541557  1.0000
  O   O4        1.0  0.9640588145101047  0.6340504290490718  0.5153874459910426  1.0000
  O   O5        1.0  0.9641459246907375  0.25640485171744287  0.5293081689438015  1.0000
  O   O6        1.0  0.8391071861395148  0.6310143940940827  0.5211894509003228  1.0000
  O   O7        1.0  0.8391712245079916  0.43523481777750694  0.7169603787590104  1.0000
  O   O8        1.0  0.8391303133465852  0.44915146116319726  0.3393376399945569  1.0000
  O   O9        1.0  0.8391942958884239  0.2533703230515738  0.5351086401467435  1.0000
