data_image0
_chemical_formula_structural       NC8NC6H8C13OH12C13NH13Zn2C4O8
_chemical_formula_sum              "N3 C44 H33 O9 Zn2"
_cell_length_a       17.457602349358154
_cell_length_b       10.299150109392551
_cell_length_c       10.299780419254978
_cell_angle_alpha    85.552664501727
_cell_angle_beta     92.86230706440833
_cell_angle_gamma    91.67070309183428

_space_group_name_H-M_alt    "P 1"
_space_group_IT_number       1

loop_
  _space_group_symop_operation_xyz
  'x, y, z'

loop_
  _atom_site_type_symbol
  _atom_site_label
  _atom_site_symmetry_multiplicity
  _atom_site_fract_x
  _atom_site_fract_y
  _atom_site_fract_z
  _atom_site_occupancy
  N   N1        1.0  0.7223377471984453  0.452634086140439  0.6260229498841419  1.0000
  C   C1        1.0  0.6612699743992823  0.4067035524534861  0.6154251352761444  1.0000
  C   C2        1.0  0.5852990796135028  0.3495716853516204  0.6022509932329181  1.0000
  C   C3        1.0  0.5267525765635395  0.3897522603022694  0.6771297985655726  1.0000
  C   C4        1.0  0.4522192787999035  0.33473892793446725  0.6645692624045072  1.0000
  C   C5        1.0  0.39008084840758106  0.3771637484347261  0.7438688055858413  1.0000
  C   C6        1.0  0.3155383233681843  0.39562141559713004  0.688101031717486  1.0000
  C   C7        1.0  0.2569918375515015  0.43561807604668723  0.763087855094118  1.0000
  C   C8        1.0  0.1810113458624783  0.4546811613143713  0.7051044992747786  1.0000
  N   N2        1.0  0.11993594824047932  0.47000150178249145  0.6584860346521719  1.0000
  C   C9        1.0  0.2724955983125694  0.4574003359528933  0.8943508529825712  1.0000
  C   C10       1.0  0.3462532925019834  0.43933176434242815  0.9505060587033105  1.0000
  C   C11       1.0  0.4047880765589282  0.39951526828081807  0.8759768660564637  1.0000
  C   C12       1.0  0.43752145464693853  0.23886724906943524  0.5756973278586925  1.0000
  C   C13       1.0  0.49605613192154424  0.19896545833512636  0.5012184007417446  1.0000
  C   C14       1.0  0.5698045673804217  0.25409129167080136  0.5143288172338387  1.0000
  H   H1        1.0  0.5390732339740897  0.46496586166453424  0.7437287758017663  1.0000
  H   H2        1.0  0.303210137582746  0.3806282728872554  0.5860872135280959  1.0000
  H   H3        1.0  0.227620711592447  0.4882977665762587  0.953172115429592  1.0000
  H   H4        1.0  0.3580675231218751  0.45588259063092806  0.05214604480871998  1.0000
  H   H5        1.0  0.46127021618353814  0.3845323505962448  0.9220867388064771  1.0000
  H   H6        1.0  0.3810468530401554  0.19352641484354827  0.5650631748454495  1.0000
  H   H7        1.0  0.4842492368356148  0.12486813556718834  0.4334207381690556  1.0000
  H   H8        1.0  0.6146795928493587  0.22232421507363842  0.4560189840467128  1.0000
  C   C15       1.0  0.9212128025093229  0.07992148191655168  0.6424048142144516  1.0000
  C   C16       1.0  0.9197808827586226  0.06808357768623452  0.7790928140984907  1.0000
  C   C17       1.0  0.9189881510651341  0.9449439391435707  0.8481274007714947  1.0000
  C   C18       1.0  0.9196330165203658  0.8328216974658117  0.7787173615829341  1.0000
  C   C19       1.0  0.9210682255307461  0.8427043573891845  0.6421160255585427  1.0000
  C   C20       1.0  0.9218518413136071  0.9667145588414616  0.5747582117842209  1.0000
  C   C21       1.0  0.9174666655400959  0.933402218464702  0.9926371426691722  1.0000
  C   C22       1.0  0.8702825237127804  0.8384752700419958  0.05680317284406067  1.0000
  C   C23       1.0  0.8688253900143632  0.8276948214713271  0.19278462027165566  1.0000
  C   C24       1.0  0.915029250321851  0.9107040308793198  0.267099364709235  1.0000
  C   C25       1.0  0.9614793150685791  0.006552684236667217  0.20351594292235664  1.0000
  C   C26       1.0  0.9629542574287407  0.017509707673652564  0.06753566083468276  1.0000
  C   C27       1.0  0.9118503504254423  0.9014034978581307  0.4129198748820343  1.0000
  O   O1        1.0  0.8545036750996605  0.9820824394161596  0.4484765817633415  1.0000
  H   H9        1.0  0.9234171897626686  0.3095371451297002  0.38435911340686335  1.0000
  H   H10       1.0  0.9182152649440021  0.15479840744010764  0.8319713086324358  1.0000
  H   H11       1.0  0.9200634933523477  0.7377277067446183  0.8315837779619013  1.0000
  H   H12       1.0  0.9229566900880768  0.975053463895219  0.4693933366248588  1.0000
  H   H13       1.0  0.9215686198852432  0.5190278514431337  0.5895701447648121  1.0000
  H   H14       1.0  0.8335999503751371  0.7738548085528334  0.0017016369433066059  1.0000
  H   H15       1.0  0.8314984233813109  0.7547439148818103  0.240110369649581  1.0000
  H   H16       1.0  0.996748626713517  0.07266451964134135  0.2592482629177263  1.0000
  H   H17       1.0  0.0003068184231296289  0.09090731232859439  0.021018610156833484  1.0000
  H   H18       1.0  0.9682771468992829  0.9317047685201781  0.4576953061039254  1.0000
  H   H19       1.0  0.899377514557708  0.7988442703587889  0.4497124678190221  1.0000
  H   H20       1.0  0.8547745829259951  0.9724346419064414  0.5451212740026623  1.0000
  C   C28       1.0  0.9211927705783877  0.4612303449824431  0.26091055181961265  1.0000
  C   C29       1.0  0.9767196086820839  0.5626929175991933  0.2567466706214392  1.0000
  C   C30       1.0  0.004796324668112861  0.614197514666665  0.13748801300224134  1.0000
  C   C31       1.0  0.9766142079186035  0.5628605601176537  0.02143782644615322  1.0000
  C   C32       1.0  0.9210882817072888  0.461395507784889  0.02361022966104498  1.0000
  C   C33       1.0  0.8936863820367658  0.4111519098660765  0.1438259596258309  1.0000
  C   C34       1.0  0.06354153885591418  0.7215337418975973  0.13417477293518965  1.0000
  C   C35       1.0  0.058335516128555254  0.8258924077666272  0.037885434367935567  1.0000
  C   C36       1.0  0.11365273690088662  0.9268332410144942  0.034854675941141666  1.0000
  C   C37       1.0  0.17480861760829347  0.9258011822364569  0.1285237460699371  1.0000
  C   C38       1.0  0.18075014884735552  0.8211957841085282  0.2238164661599198  1.0000
  C   C39       1.0  0.12544879550799015  0.7202309429958682  0.22702129977123264  1.0000
  C   C40       1.0  0.23537130220502922  0.032672749929167466  0.12297527768609573  1.0000
  N   N3        1.0  0.29418992266158783  0.002587439973380512  0.034911677431952004  1.0000
  H   H21       1.0  0.9000656332413475  0.42252284980411603  0.5899565676842788  1.0000
  H   H22       1.0  0.9975083650313216  0.6031100204718836  0.3462995626757712  1.0000
  H   H23       1.0  0.9988474604341777  0.6009897013792738  0.9294321346289793  1.0000
  H   H24       1.0  0.8508502106284378  0.3328771197536178  0.1462696615638961  1.0000
  H   H25       1.0  0.89991579698845  0.42275503217362576  0.6969815081048361  1.0000
  H   H26       1.0  0.011019399044571943  0.8301725282103753  0.9657181606136551  1.0000
  H   H27       1.0  0.10869644033941284  0.00602321794925631  0.9595819070187788  1.0000
  H   H28       1.0  0.22835102218112113  0.8175804136570242  0.29548022841191757  1.0000
  H   H29       1.0  0.13174241205447879  0.6400821415780686  0.3009377399925335  1.0000
  H   H30       1.0  0.20884449005714822  0.12654816695159532  0.08749437185667319  1.0000
  H   H31       1.0  0.26182633856726323  0.04513957258654022  0.22198785395842768  1.0000
  H   H32       1.0  0.33288956964227645  0.08197556995235677  0.02810369574448157  1.0000
  H   H33       1.0  0.32498394086692683  0.9236227361253426  0.07822758054147405  1.0000
  Zn  Zn1       1.0  0.8370759990902841  0.45764246580798984  0.6353985943195193  1.0000
  Zn  Zn2       1.0  0.0051976826601303205  0.46498247582900243  0.6491210262447764  1.0000
  C   C41       1.0  0.9211072800995793  0.4561901894130449  0.879445507031237  1.0000
  C   C42       1.0  0.9211682372063202  0.46643647114214426  0.40507439022119707  1.0000
  C   C43       1.0  0.9210923132418011  0.698520902532253  0.6369953589006045  1.0000
  C   C44       1.0  0.9211831469821918  0.2241041951180509  0.6475246034953099  1.0000
  O   O2        1.0  0.984961307397739  0.47096352403953934  0.45866468488764167  1.0000
  O   O3        1.0  0.9849146779036532  0.4572330544111094  0.8362698472242265  1.0000
  O   O4        1.0  0.9849017317196017  0.6529181326876801  0.6404895665205583  1.0000
  O   O5        1.0  0.98497419622483  0.275278452528124  0.6544448635354534  1.0000
  O   O6        1.0  0.8572994281539057  0.6473464866054959  0.6300747523392183  1.0000
  O   O7        1.0  0.8573123740481846  0.45166296873043765  0.8258549632097816  1.0000
  O   O8        1.0  0.8573590038158249  0.4653933927636864  0.4482482395718397  1.0000
  O   O9        1.0  0.8573718926281972  0.26970831198374334  0.644028515585884  1.0000
