data_image0
_chemical_formula_structural       NC12NC2H8C12NCOCH13C13F3H9Zn2C4O8
_chemical_formula_sum              "N3 C45 H30 O9 F3 Zn2"
_cell_length_a       19.240039667572717
_cell_length_b       10.299155265289647
_cell_length_c       10.2985328690268
_cell_angle_alpha    85.56203192291568
_cell_angle_beta     90.00547390957905
_cell_angle_gamma    89.97652338962732

_space_group_name_H-M_alt    "P 1"
_space_group_IT_number       1

loop_
  _space_group_symop_operation_xyz
  'x, y, z'

loop_
  _atom_site_type_symbol
  _atom_site_label
  _atom_site_symmetry_multiplicity
  _atom_site_fract_x
  _atom_site_fract_y
  _atom_site_fract_z
  _atom_site_occupancy
  N   N1        1.0  0.6540921768394721  0.4209344349382509  0.5669773901955457  1.0000
  C   C1        1.0  0.5939438079995836  0.420934518900284  0.5669773082308482  1.0000
  C   C2        1.0  0.5191257708256788  0.42093463615203985  0.566977170885705  1.0000
  C   C3        1.0  0.48267148053790065  0.35649664744359844  0.6704134554543384  1.0000
  C   C4        1.0  0.410000761181357  0.3563857848111984  0.6705000326511066  1.0000
  C   C5        1.0  0.3727935358564123  0.42093472865343107  0.5669769431632747  1.0000
  C   C6        1.0  0.4099619888876005  0.4854838595561999  0.4634540481824694  1.0000
  C   C7        1.0  0.4826327061526967  0.48537276144488595  0.4635407479494347  1.0000
  C   C8        1.0  0.2955884454291667  0.4209346499568476  0.5669768477608268  1.0000
  C   C9        1.0  0.2584276204249825  0.30767845728090615  0.6088796168064428  1.0000
  C   C10       1.0  0.185756903926018  0.3077853371147976  0.6087882572857721  1.0000
  C   C11       1.0  0.1492561585374167  0.4209345207932822  0.5669769087086263  1.0000
  C   C12       1.0  0.0744381214201167  0.4209344071190442  0.5669771574169231  1.0000
  N   N2        1.0  0.0142898045876185  0.42093436635704196  0.5669773658621566  1.0000
  C   C13       1.0  0.1857029239860929  0.5340837802886105  0.5251655072174335  1.0000
  C   C14       1.0  0.258373592041326  0.5341908402064135  0.5250739850441242  1.0000
  H   H1        1.0  0.5104014192567036  0.30660756478015294  0.7511734601511149  1.0000
  H   H2        1.0  0.38292240908227354  0.3072951916701514  0.7523754231103412  1.0000
  H   H3        1.0  0.382853810190024  0.5345744797359322  0.38157860686412604  1.0000
  H   H4        1.0  0.5103325389330572  0.5352617439238068  0.382781019094141  1.0000
  H   H5        1.0  0.2855420446168239  0.21852612006130068  0.6400723049161663  1.0000
  H   H6        1.0  0.158063066475062  0.21953256631531493  0.6410137591712282  1.0000
  H   H7        1.0  0.1579669379953847  0.6223365265539254  0.49294001988975555  1.0000
  H   H8        1.0  0.2854456466470393  0.6233432565946351  0.4938812521393312  1.0000
  C   C15       1.0  0.8342719617485724  0.03953696192382261  0.5670960750424208  1.0000
  C   C16       1.0  0.8223924194238772  0.04920661187561226  0.43216147128781524  1.0000
  C   C17       1.0  0.8163019223297254  0.9369716183459716  0.36362905258092937  1.0000
  C   C18       1.0  0.8222262199261053  0.813946772879937  0.43185366501401723  1.0000
  C   C19       1.0  0.8341167195374338  0.8023219075233544  0.5668698650285031  1.0000
  C   C20       1.0  0.8400694802046637  0.9156340518518921  0.6336598538786242  1.0000
  C   C21       1.0  0.8037356589639605  0.9481746097199973  0.22088453507484274  1.0000
  C   C22       1.0  0.8389791745430142  0.04226714058978209  0.13946124864338283  1.0000
  C   C23       1.0  0.827159211653412  0.05267901626857263  0.00512914588738278  1.0000
  C   C24       1.0  0.780291545238127  0.9683241163726978  0.9493747006031383  1.0000
  C   C25       1.0  0.7441990574137228  0.8760478557988863  0.030729822963385  1.0000
  C   C26       1.0  0.7560443322411851  0.8653799522703325  0.16502458764324146  1.0000
  N   N3        1.0  0.766234756327325  0.9785340681221221  0.8118040439947896  1.0000
  C   C27       1.0  0.8169781986271477  0.015448405799277865  0.71357945117804  1.0000
  O   O1        1.0  0.8807403929841198  0.01798899962686007  0.7414398013453005  1.0000
  C   C28       1.0  0.7947983008393634  0.041863880334057635  0.5750298949004446  1.0000
  H   H9        1.0  0.8388629150476262  0.3632937865360346  0.6189920007074059  1.0000
  H   H10       1.0  0.8168908154101351  0.1442400098602774  0.38034821780549555  1.0000
  H   H11       1.0  0.8184847198844538  0.7271358072169642  0.3792215430010133  1.0000
  H   H12       1.0  0.849234759181179  0.9074607835676087  0.7377372880774866  1.0000
  H   H13       1.0  0.8569755864455615  0.5730972355335682  0.8215750524130518  1.0000
  H   H14       1.0  0.8760944142170216  0.10732455450380263  0.17955636067412195  1.0000
  H   H15       1.0  0.8538194209684363  0.12812119331310745  0.9455445483608105  1.0000
  H   H16       1.0  0.7070170723867271  0.811694296398986  0.9897676144886929  1.0000
  H   H17       1.0  0.727150861983057  0.7935543117749407  0.22544219110706565  1.0000
  H   H18       1.0  0.7172804010874603  0.9496584793210222  0.7807284398584349  1.0000
  H   H19       1.0  0.7446275779889178  0.09530855009651051  0.5705759524843663  1.0000
  H   H20       1.0  0.7883645174184976  0.9482440351941167  0.5298026707381678  1.0000
  H   H21       1.0  0.8343616538305277  0.10194263695656702  0.5196307325598521  1.0000
  C   C29       1.0  0.8341743777006173  0.42080746284021586  0.18558553156115587  1.0000
  C   C30       1.0  0.9038750012283743  0.37991304998994746  0.18781075788746837  1.0000
  C   C31       1.0  0.9391928051380503  0.359310219967111  0.07176740615331023  1.0000
  C   C32       1.0  0.9039159805224207  0.3801686857617186  0.9525100055540978  1.0000
  C   C33       1.0  0.8342142763641849  0.4210513929087989  0.9483804334751356  1.0000
  C   C34       1.0  0.7997886028668959  0.4411045311538131  0.06541564536227029  1.0000
  C   C35       1.0  0.012882959740071698  0.3160872613257599  0.07505443474546003  1.0000
  C   C36       1.0  0.0608626092886162  0.37069176974704754  0.9834965717832489  1.0000
  C   C37       1.0  0.13021490328207075  0.3301152992214724  0.9866115622677705  1.0000
  C   C38       1.0  0.15284988037086045  0.23271197874800298  0.08011194910817432  1.0000
  C   C39       1.0  0.10527217659491384  0.17992665058160995  0.17324659947452314  1.0000
  C   C40       1.0  0.035924400119141  0.22053617853446128  0.17024252016722907  1.0000
  C   C41       1.0  0.22821298617242403  0.1924224280455753  0.08640741121611595  1.0000
  F   F1        1.0  0.26384041956885596  0.2717428824911654  0.16586856615455048  1.0000
  F   F2        1.0  0.25780993454695245  0.20359642226393726  0.9635468837034171  1.0000
  F   F3        1.0  0.2346756543225461  0.0642917954490283  0.13633149581358328  1.0000
  H   H22       1.0  0.702598427270791  0.4989012813122  0.3886423671744359  1.0000
  H   H23       1.0  0.931095729223673  0.36575245143333923  0.2798939569671579  1.0000
  H   H24       1.0  0.9306118067339617  0.36278586895620446  0.8628844777401401  1.0000
  H   H25       1.0  0.7460687283860934  0.4726174141871131  0.06296749684928193  1.0000
  H   H26       1.0  0.7023761287017234  0.4975615582552835  0.7333084930463318  1.0000
  H   H27       1.0  0.04500912767789789  0.44646165611875666  0.9107448190341367  1.0000
  H   H28       1.0  0.16623883854209276  0.37534494353008774  0.9161128606972895  1.0000
  H   H29       1.0  0.12168072795431284  0.1070485144809128  0.24844037270953812  1.0000
  H   H30       1.0  0.00015060211842765625  0.17626063179868212  0.24176061579609742  1.0000
  Zn  Zn1       1.0  0.7580374417796366  0.4209309500802876  0.5669848731877687  1.0000
  Zn  Zn2       1.0  0.9103445611294838  0.420927260331581  0.5669804857042975  1.0000
  C   C42       1.0  0.8342062391348743  0.41583120254953476  0.8041973901659434  1.0000
  C   C43       1.0  0.8341774266363533  0.4260286466049823  0.3297680956682505  1.0000
  C   C44       1.0  0.8341421961765375  0.6581376331596083  0.5617370774410739  1.0000
  C   C45       1.0  0.8342414179441634  0.18372065559899342  0.5722284781011495  1.0000
  O   O2        1.0  0.8919782090784377  0.42777385716682814  0.3781554179596982  1.0000
  O   O3        1.0  0.8920030363123557  0.41408221163844505  0.755806364292603  1.0000
  O   O4        1.0  0.8919505417158241  0.609747719189839  0.5600179459423171  1.0000
  O   O5        1.0  0.8920306516958814  0.23210835887647208  0.5739437389267732  1.0000
  O   O6        1.0  0.7763512992382934  0.6097498515380673  0.5600216199599581  1.0000
  O   O7        1.0  0.7764037935104059  0.4140859043852603  0.7558099685968793  1.0000
  O   O8        1.0  0.7763789662502426  0.4277775041549834  0.37815746075989454  1.0000
  O   O9        1.0  0.7764314088718286  0.23211199660626058  0.5739458791048457  1.0000
