data_image0
_chemical_formula_structural       NC12NC2H8C16H10C13OH12Zn2C4O8
_chemical_formula_sum              "N2 C47 H30 O9 Zn2"
_cell_length_a       17.80743265337812
_cell_length_b       10.29914801576943
_cell_length_c       10.299153481560891
_cell_angle_alpha    85.55882765748771
_cell_angle_beta     91.5511256746575
_cell_angle_gamma    89.44985071264975

_space_group_name_H-M_alt    "P 1"
_space_group_IT_number       1

loop_
  _space_group_symop_operation_xyz
  'x, y, z'

loop_
  _atom_site_type_symbol
  _atom_site_label
  _atom_site_symmetry_multiplicity
  _atom_site_fract_x
  _atom_site_fract_y
  _atom_site_fract_z
  _atom_site_occupancy
  N   N1        1.0  0.707372155779838  0.40622536419850297  0.6007815953260918  1.0000
  C   C1        1.0  0.656544356110396  0.4357583825439797  0.5320712279815181  1.0000
  C   C2        1.0  0.5933095597635557  0.4724953151371436  0.4466041798569029  1.0000
  C   C3        1.0  0.6050214551697425  0.5264684427467496  0.31996317202610425  1.0000
  C   C4        1.0  0.5436942251358091  0.5617026453978882  0.2368926956455395  1.0000
  C   C5        1.0  0.47050071703186025  0.543226935580347  0.27980322120653356  1.0000
  C   C6        1.0  0.4578121143498168  0.4891351875701686  0.40691241870847783  1.0000
  C   C7        1.0  0.5199966580184626  0.4539042323029352  0.48996638210163024  1.0000
  C   C8        1.0  0.3800507487909828  0.4695464340856861  0.45268367654568564  1.0000
  C   C9        1.0  0.3612913091509983  0.4967873652948924  0.5797177851387854  1.0000
  C   C10       1.0  0.2880678680543927  0.47835324893679165  0.6226688575914407  1.0000
  C   C11       1.0  0.23266101231237954  0.4324242539009737  0.5394238903783728  1.0000
  C   C12       1.0  0.1573011411339416  0.4134378436046866  0.5837761076925547  1.0000
  N   N2        1.0  0.0967171413912469  0.39817404662466216  0.6194322392882146  1.0000
  C   C13       1.0  0.25072903302997407  0.40501462006546296  0.412932818027977  1.0000
  C   C14       1.0  0.32389957508788386  0.42346341759617445  0.36972585223674903  1.0000
  H   H1        1.0  0.661482973372586  0.5412792315553352  0.2855203514251414  1.0000
  H   H2        1.0  0.5528804959039488  0.6037628592033353  0.13909708256677966  1.0000
  H   H3        1.0  0.42385363833965595  0.5728378509335978  0.21420077723816222  1.0000
  H   H4        1.0  0.5115085615655737  0.4104585439344315  0.5876380870553157  1.0000
  H   H5        1.0  0.4029845206446243  0.5339967662775293  0.6452766150527962  1.0000
  H   H6        1.0  0.27464507850783054  0.5002410470731424  0.7206694919024959  1.0000
  H   H7        1.0  0.2083191873174653  0.36907277638431624  0.34778645163480615  1.0000
  H   H8        1.0  0.3367938183118314  0.4000400702689073  0.27202915020547325  1.0000
  C   C15       1.0  0.9019947757283467  0.02079943626952163  0.610270059101554  1.0000
  C   C16       1.0  0.8848187980053263  0.030703094915509155  0.4759722815973966  1.0000
  C   C17       1.0  0.8761653922064393  0.9185934964045865  0.40771849581991626  1.0000
  C   C18       1.0  0.8849190163710544  0.7954490548265057  0.4755724888981743  1.0000
  C   C19       1.0  0.9021017049642726  0.7835898472170817  0.6099553414152468  1.0000
  C   C20       1.0  0.9105351302523028  0.8967830660472882  0.6764767505918294  1.0000
  C   C21       1.0  0.8579954646445666  0.9301159746907354  0.2656476524570135  1.0000
  C   C22       1.0  0.8935250714434647  0.8483640210292359  0.1821312635936878  1.0000
  C   C23       1.0  0.8763979159519365  0.8593343000404334  0.04841840145590859  1.0000
  C   C24       1.0  0.8235652149506059  0.9519597997157551  0.9964092311753405  1.0000
  C   C25       1.0  0.787898404207919  0.03369442188746152  0.07863509688225623  1.0000
  C   C26       1.0  0.804971999079831  0.022966524061909466  0.21236634007079003  1.0000
  C   C27       1.0  0.8059605144413597  0.9631294299517326  0.8587407178099635  1.0000
  C   C28       1.0  0.7912167676326505  0.9724838882377302  0.7434453263638701  1.0000
  C   C29       1.0  0.7739520141990623  0.9834378330916979  0.6084355998049058  1.0000
  C   C30       1.0  0.7592107416982706  0.9927908700124637  0.49315883479003864  1.0000
  H   H9        1.0  0.9085627587754492  0.3444654689637565  0.6619389804889018  1.0000
  H   H10       1.0  0.8791425890600794  0.1258562210331653  0.4237898970115721  1.0000
  H   H11       1.0  0.8773037667449956  0.7086938817248398  0.42379180473166866  1.0000
  H   H12       1.0  0.9237812055213213  0.8884282749612128  0.780064824019193  1.0000
  H   H13       1.0  0.9340679191083484  0.5539093384041658  0.8637518852650798  1.0000
  H   H14       1.0  0.9352644910454534  0.7771097336454988  0.2199806556906274  1.0000
  H   H15       1.0  0.904494040092718  0.7958061747695231  0.9855889303169683  1.0000
  H   H16       1.0  0.7467562999706668  0.10550019256604748  0.03944441450692038  1.0000
  H   H17       1.0  0.7759999654531704  0.08612265235822303  0.27435105943888893  1.0000
  H   H18       1.0  0.7462667175815874  0.0010036253032816855  0.3919361176158853  1.0000
  C   C31       1.0  0.901983702235753  0.40204853851983824  0.22873710643187062  1.0000
  C   C32       1.0  0.8243084037191818  0.3792725477728862  0.22569797098664535  1.0000
  C   C33       1.0  0.7850616837914057  0.3678846034814063  0.10699596817114077  1.0000
  C   C34       1.0  0.8244856965501314  0.3795862068237448  0.9903983630865829  1.0000
  C   C35       1.0  0.9021128025073971  0.40234075807919956  0.9914882520200989  1.0000
  C   C36       1.0  0.9404085359710816  0.41343545221368494  0.11116944259343353  1.0000
  C   C37       1.0  0.7029397390683638  0.34381785679578236  0.10475591985192567  1.0000
  C   C38       1.0  0.6554347427676548  0.4100423977464691  0.00978532459396697  1.0000
  C   C39       1.0  0.5781531511169992  0.3874381148426067  0.007755243608589701  1.0000
  C   C40       1.0  0.5470756772343918  0.29736099628947366  0.09976460388538144  1.0000
  C   C41       1.0  0.5940768392578628  0.23224324503415383  0.19562913475814403  1.0000
  C   C42       1.0  0.6713619907056694  0.25481780447446756  0.1978375483601329  1.0000
  C   C43       1.0  0.4638186829187737  0.2757940614543608  0.09970255435310493  1.0000
  O   O1        1.0  0.43008770106713456  0.36408691355475065  0.17755720008614895  1.0000
  H   H19       1.0  0.0485042503148736  0.4458710272726416  0.4416970749902829  1.0000
  H   H20       1.0  0.7940190799477992  0.3721345528982556  0.31572587330186863  1.0000
  H   H21       1.0  0.7946770611439864  0.36914943522354027  0.8987959711795459  1.0000
  H   H22       1.0  0.0002842396377082945  0.43099037278750973  0.11272590628635015  1.0000
  H   H23       1.0  0.9319609907669866  0.4111790871978114  0.6644248981278382  1.0000
  H   H24       1.0  0.6779019379839554  0.4808399175319027  0.938274009588314  1.0000
  H   H25       1.0  0.5425160224314218  0.4404597043821652  0.9345453766433747  1.0000
  H   H26       1.0  0.5709172093758814  0.1636666236007709  0.26854623556230606  1.0000
  H   H27       1.0  0.7065475827410012  0.201605035404129  0.2715490831448182  1.0000
  H   H28       1.0  0.45188085113736187  0.17424506397989759  0.13799227738606668  1.0000
  H   H29       1.0  0.44004116904465906  0.2896521478000116  0.9984270856469522  1.0000
  H   H30       1.0  0.3754723569394913  0.34586110208823295  0.1742457225581473  1.0000
  Zn  Zn1       1.0  0.8197287124323256  0.4038984631685516  0.6061712567915121  1.0000
  Zn  Zn2       1.0  0.9843605825523443  0.40049035738470895  0.6140531754304408  1.0000
  C   C44       1.0  0.902085984088487  0.3971114539530509  0.8473140196780695  1.0000
  C   C45       1.0  0.9020051089223976  0.407278968186658  0.3729106254066821  1.0000
  C   C46       1.0  0.9020767565431927  0.6394043304038839  0.6048393605597202  1.0000
  C   C47       1.0  0.9020142800832998  0.1649845324947068  0.6153853517191921  1.0000
  O   O2        1.0  0.9644892291319774  0.40773532357367426  0.4242877248005026  1.0000
  O   O3        1.0  0.9645536437772021  0.3940674451881878  0.8019187407077324  1.0000
  O   O4        1.0  0.9645453504272229  0.5897220250863222  0.6061186970413137  1.0000
  O   O5        1.0  0.9644974662890741  0.2120807540921732  0.620087668397153  1.0000
  O   O6        1.0  0.8395917725148174  0.5923080676255181  0.6001367611282562  1.0000
  O   O7        1.0  0.8396000660684101  0.39665504813293184  0.7959367349039697  1.0000
  O   O8        1.0  0.8395356512025588  0.41032288065950273  0.4183041575898314  1.0000
  O   O9        1.0  0.8395438883717595  0.21466830192579844  0.6141041985597062  1.0000
