data_image0
_chemical_formula_structural       NC9NC5H8C12SCH12C12BrH9Zn2C4O8
_chemical_formula_sum              "N2 C43 H29 S1 Br1 Zn2 O8"
_cell_length_a       17.807436237873137
_cell_length_b       10.299776766347529
_cell_length_c       10.299148005577397
_cell_angle_alpha    85.55397783742741
_cell_angle_beta     89.3653557848841
_cell_angle_gamma    88.3716268350294

_space_group_name_H-M_alt    "P 1"
_space_group_IT_number       1

loop_
  _space_group_symop_operation_xyz
  'x, y, z'

loop_
  _atom_site_type_symbol
  _atom_site_label
  _atom_site_symmetry_multiplicity
  _atom_site_fract_x
  _atom_site_fract_y
  _atom_site_fract_z
  _atom_site_occupancy
  N   N1        1.0  0.7075414848685719  0.38793932839714906  0.5570796757834819  1.0000
  C   C1        1.0  0.646963464834192  0.3527511331643025  0.5460543646307467  1.0000
  C   C2        1.0  0.5716110660013596  0.30898089342363044  0.5323400746734968  1.0000
  C   C3        1.0  0.5535611873887984  0.23757969263151768  0.4273297871293522  1.0000
  C   C4        1.0  0.4803979389852313  0.19497067759381603  0.41393146000535985  1.0000
  C   C5        1.0  0.4242359296233314  0.2233853389539755  0.5055109586191888  1.0000
  C   C6        1.0  0.3464822132801007  0.17821783537697033  0.4913540881573635  1.0000
  C   C7        1.0  0.2842836786238777  0.25997040261474624  0.5172962564203374  1.0000
  C   C8        1.0  0.2109781594312621  0.21715834826443503  0.503911606692657  1.0000
  C   C9        1.0  0.1477289366895893  0.30160221277991894  0.5302177576724474  1.0000
  N   N2        1.0  0.0968895511800164  0.3694892375444472  0.551367176403003  1.0000
  C   C10       1.0  0.1992876848329962  0.09233575073056888  0.46455943183155646  1.0000
  C   C11       1.0  0.2606288545004602  0.010569332325663927  0.43860887309573826  1.0000
  C   C12       1.0  0.3338150695656252  0.052986873077440766  0.4517909643985403  1.0000
  C   C13       1.0  0.4429770617978437  0.295280876240269  0.6107404989794949  1.0000
  C   C14       1.0  0.5161932588298129  0.33769951766255435  0.6239831624316894  1.0000
  H   H1        1.0  0.5959795880172899  0.21510386017254346  0.35561252549909605  1.0000
  H   H2        1.0  0.4675176838899116  0.14129934226066299  0.33100518272551827  1.0000
  H   H3        1.0  0.2927552489257447  0.35743124558852046  0.5461770490221998  1.0000
  H   H4        1.0  0.1428318402504778  0.05830118023690001  0.45396320955152025  1.0000
  H   H5        1.0  0.251459110075464  0.913928742535265  0.40852762011632326  1.0000
  H   H6        1.0  0.3804732546592432  0.9872445117597181  0.4327400561415502  1.0000
  H   H7        1.0  0.4012752933654443  0.3172174926240181  0.6837523195214981  1.0000
  H   H8        1.0  0.5296019168028613  0.3925915705198548  0.7058677815191206  1.0000
  C   C15       1.0  0.9022899430852298  0.9973456334610606  0.55422076137146  1.0000
  C   C16       1.0  0.906767759839705  0.9855522712829047  0.6906750519921887  1.0000
  C   C17       1.0  0.908964372180616  0.8624412866809763  0.7598239472582742  1.0000
  C   C18       1.0  0.9066241017133153  0.7502713002755297  0.6906923507302696  1.0000
  C   C19       1.0  0.9021482916296936  0.7600726199592942  0.5542372812524141  1.0000
  C   C20       1.0  0.9000058441391775  0.8840473590089917  0.486765330122809  1.0000
  C   C21       1.0  0.9136931178159349  0.8510295386337241  0.904177311945815  1.0000
  C   C22       1.0  0.8706764008018638  0.7595970215007869  0.9788544415647795  1.0000
  C   C23       1.0  0.8751492677598514  0.7490906182099029  0.11470418876935606  1.0000
  C   C24       1.0  0.9224510536101361  0.8297468060992825  0.17768631465600293  1.0000
  C   C25       1.0  0.9656466849314418  0.9205968630502394  0.10437968615762727  1.0000
  C   C26       1.0  0.9612839824021275  0.9314479362161963  0.9685179071689312  1.0000
  S   S1        1.0  0.9282732033911836  0.8158011816958798  0.3519990151863689  1.0000
  C   C27       1.0  0.8527747673190205  0.9354378770962627  0.37263630332906605  1.0000
  H   H9        1.0  0.9006132479328891  0.32929152117020455  0.5022250488274085  1.0000
  H   H10       1.0  0.9075214417254002  0.07234010853470396  0.7436246895134779  1.0000
  H   H11       1.0  0.9093367077291385  0.655121530095503  0.743417102083612  1.0000
  H   H12       1.0  0.8965519125646699  0.8923769238528839  0.38149663938775324  1.0000
  H   H13       1.0  0.9004052961197301  0.436355374630541  0.5022472074294635  1.0000
  H   H14       1.0  0.8328702310797886  0.6974311632570528  0.9322928965904342  1.0000
  H   H15       1.0  0.8415455924975184  0.6786128041748485  0.17092120105430098  1.0000
  H   H16       1.0  0.0026528518473094564  0.982856281084117  0.15254197409964854  1.0000
  H   H17       1.0  0.9958354735389953  0.0015116846880196544  0.9137000944584663  1.0000
  H   H18       1.0  0.8678273820534276  0.03106122264019029  0.32353561412941845  1.0000
  H   H19       1.0  0.8440411787789549  0.9465161833197612  0.4780484178201928  1.0000
  H   H20       1.0  0.7999214960513998  0.9024159145714972  0.33128779008919684  1.0000
  C   C28       1.0  0.9023214960869094  0.3787563188218783  0.17283931468583913  1.0000
  C   C29       1.0  0.8316444090205484  0.44288476259358944  0.1684403915486219  1.0000
  C   C30       1.0  0.7957038421890064  0.4753510018546774  0.049073328492922785  1.0000
  C   C31       1.0  0.8313936849452652  0.44282383932796243  0.9331670338445459  1.0000
  C   C32       1.0  0.9021167009201233  0.3786619525957413  0.9356186708627017  1.0000
  C   C33       1.0  0.9371449761188739  0.3470213111880285  0.055884960433763675  1.0000
  C   C34       1.0  0.7209365505834465  0.5431930624339298  0.04546470710215722  1.0000
  C   C35       1.0  0.7051370060967193  0.6452585973929728  0.12577644091036855  1.0000
  C   C36       1.0  0.6347321118473144  0.7090032890206053  0.12218567903554867  1.0000
  C   C37       1.0  0.5793264571519394  0.6716854559461771  0.03863318020383044  1.0000
  C   C38       1.0  0.594371294529254  0.5704425427338349  0.9584800688544495  1.0000
  C   C39       1.0  0.6647123583150683  0.5064789124313447  0.9616792245851755  1.0000
  Br  Br1       1.0  0.4831975634301203  0.7589106279965152  0.03399489097445252  1.0000
  H   H21       1.0  0.9295222806949516  0.35414171399776073  0.5020025943886048  1.0000
  H   H22       1.0  0.8039180412465268  0.4661446721803899  0.2581871137135938  1.0000
  H   H23       1.0  0.8044084227479966  0.4691973223274044  0.8407469564099657  1.0000
  H   H24       1.0  0.9916610641459284  0.29756132887168696  0.05856190193813671  1.0000
  H   H25       1.0  0.03581232044665206  0.25828505382429046  0.7328940483768811  1.0000
  H   H26       1.0  0.7475211099732112  0.6768669426373553  0.1900628028326461  1.0000
  H   H27       1.0  0.623372573418904  0.787607205885396  0.18415832193111448  1.0000
  H   H28       1.0  0.5515423695539745  0.5410072428532009  0.8938932729002125  1.0000
  H   H29       1.0  0.6748149120565794  0.4272452754086393  0.8999261049874296  1.0000
  Zn  Zn1       1.0  0.8198989238591288  0.3826115645094059  0.5554386829857143  1.0000
  Zn  Zn2       1.0  0.9845320930921603  0.374806413948928  0.5530188461655112  1.0000
  C   C40       1.0  0.9021547060069212  0.3735061888866953  0.7914369804286432  1.0000
  C   C41       1.0  0.9022781083948614  0.38391334294161905  0.31702064980688016  1.0000
  C   C42       1.0  0.9021725691724752  0.6159018143911412  0.5490587439302861  1.0000
  C   C43       1.0  0.9022601893227498  0.14151615979112075  0.5593989563396111  1.0000
  O   O1        1.0  0.9647409778724293  0.38267640765029265  0.36449090740153034  1.0000
  O   O2        1.0  0.9646446029073488  0.368818215826358  0.7421297487910741  1.0000
  O   O3        1.0  0.9646581850512528  0.5645557886945569  0.5464076203611348  1.0000
  O   O4        1.0  0.9647273395747946  0.1869388467477231  0.5602129392774233  1.0000
  O   O5        1.0  0.8397036211952752  0.57047913437554  0.5482445906927427  1.0000
  O   O6        1.0  0.8396900387767099  0.3747431218183226  0.7439666499072481  1.0000
  O   O7        1.0  0.8397864142193727  0.38860126857717003  0.36632624703022354  1.0000
  O   O8        1.0  0.8397727758942496  0.1928636983739005  0.5620483762791033  1.0000
