data_image0
_chemical_formula_structural       NC12NC2H8C12NH11C13OH12Zn2C4O8
_chemical_formula_sum              "N3 C43 H31 O9 Zn2"
_cell_length_a       17.80743265337812
_cell_length_b       10.299770795358612
_cell_length_c       10.299153481560891
_cell_angle_alpha    85.5776922204699
_cell_angle_beta     91.5511256746575
_cell_angle_gamma    89.45311437677636

_space_group_name_H-M_alt    "P 1"
_space_group_IT_number       1

loop_
  _space_group_symop_operation_xyz
  'x, y, z'

loop_
  _atom_site_type_symbol
  _atom_site_label
  _atom_site_symmetry_multiplicity
  _atom_site_fract_x
  _atom_site_fract_y
  _atom_site_fract_z
  _atom_site_occupancy
  N   N1        1.0  0.7074259961065053  0.40610336276148806  0.6012485796517737  1.0000
  C   C1        1.0  0.6565993271714361  0.4356338188784843  0.5325480197370818  1.0000
  C   C2        1.0  0.5933659373761357  0.47236756424527493  0.44709317134384063  1.0000
  C   C3        1.0  0.6050798992582199  0.526336009249023  0.3204700871014252  1.0000
  C   C4        1.0  0.5437540182406173  0.5615671550477783  0.23741131142032468  1.0000
  C   C5        1.0  0.4705598027548522  0.5430930481476677  0.2803157015018216  1.0000
  C   C6        1.0  0.4578691290552771  0.4890059930346278  0.40740693602349753  1.0000
  C   C7        1.0  0.5200523238319253  0.4537780943380407  0.49044919979558865  1.0000
  C   C8        1.0  0.38010701349938475  0.46941893903312715  0.4531716887577044  1.0000
  C   C9        1.0  0.3613486168363456  0.4966575068709722  0.5802148436162291  1.0000
  C   C10       1.0  0.288124469950418  0.47822498982173256  0.6231597944018914  1.0000
  C   C11       1.0  0.23271585571921863  0.43229997949813614  0.539899574924626  1.0000
  C   C12       1.0  0.1573552576057113  0.4133152164266811  0.5842454871640768  1.0000
  N   N2        1.0  0.0967706734561097  0.39805274370464105  0.6198965499036904  1.0000
  C   C13       1.0  0.250782827000729  0.4048927236703055  0.41339940028543665  1.0000
  C   C14       1.0  0.3239540754100608  0.42333992061844516  0.3701985610365779  1.0000
  H   H1        1.0  0.6615419845235899  0.5411455131017511  0.28603218491994253  1.0000
  H   H2        1.0  0.5529418993734314  0.6036237197891019  0.13962966584711767  1.0000
  H   H3        1.0  0.4239138577794732  0.5727013945142423  0.21472309083164798  1.0000
  H   H4        1.0  0.5115625639685238  0.41033617523479693  0.5881064771503963  1.0000
  H   H5        1.0  0.403043252970968  0.5338636796367773  0.6457860301605987  1.0000
  H   H6        1.0  0.2747025184247247  0.500110889014362  0.7211676972908807  1.0000
  H   H7        1.0  0.2083716051783491  0.3689539982351311  0.348241098196848  1.0000
  H   H8        1.0  0.3368474218213752  0.3999186054562254  0.2724940804967244  1.0000
  C   C15       1.0  0.9020338592042317  0.020710873652675543  0.6106090498128149  1.0000
  C   C16       1.0  0.8802065926717711  0.03028822345949811  0.4781520717526093  1.0000
  C   C17       1.0  0.8692154467832685  0.9180035465479071  0.41100328132519426  1.0000
  C   C18       1.0  0.8803440886541037  0.7950037413009664  0.47809010377407324  1.0000
  C   C19       1.0  0.9021699957440562  0.7834351279967646  0.6105475672749905  1.0000
  C   C20       1.0  0.9128930209391818  0.8968457029196963  0.6760651884830566  1.0000
  C   C21       1.0  0.8461237945664816  0.9291892251363942  0.2708715022352688  1.0000
  C   C22       1.0  0.7914126009630037  0.021481466657166548  0.22306351879996722  1.0000
  C   C23       1.0  0.7697109506213443  0.031879535574828255  0.09117197028557045  1.0000
  C   C24       1.0  0.802309881266969  0.9504125177970492  0.004988581707347617  1.0000
  C   C25       1.0  0.8568406470370201  0.8583217549174093  0.051897356872029565  1.0000
  C   C26       1.0  0.878602474230836  0.8476664047000202  0.1837618143216737  1.0000
  N   N3        1.0  0.7800798974285036  0.9611804476927949  0.8700871968806156  1.0000
  H   H9        1.0  0.9103191105860813  0.34451438529429623  0.6610969015957011  1.0000
  H   H10       1.0  0.8726980880106361  0.12532954254565665  0.4264397585110573  1.0000
  H   H11       1.0  0.8709499297086504  0.7081501559786736  0.42722758721963583  1.0000
  H   H12       1.0  0.9297311973301844  0.8886891870619148  0.7782498525630435  1.0000
  H   H13       1.0  0.910519338291442  0.45157382842142696  0.6610068670541611  1.0000
  H   H14       1.0  0.7646994007397215  0.08446972292219757  0.2879878772102944  1.0000
  H   H15       1.0  0.7273496632974359  0.10322428513523718  0.05623119121377984  1.0000
  H   H16       1.0  0.8826246313586957  0.795006899257477  0.9862392139359089  1.0000
  H   H17       1.0  0.9215394494100501  0.7768194836737858  0.2172906112482791  1.0000
  H   H18       1.0  0.8040608206289901  0.9008644919922814  0.8050955865540308  1.0000
  H   H19       1.0  0.7394768617847199  0.02954843872206614  0.8342074536968997  1.0000
  C   C27       1.0  0.9020373826437722  0.4019268994562719  0.22920270370241025  1.0000
  C   C28       1.0  0.8243612120999905  0.3791528847109422  0.22615600472508546  1.0000
  C   C29       1.0  0.7851140561605648  0.3677659284158412  0.10745022016049499  1.0000
  C   C30       1.0  0.8245385169400432  0.3794665165493387  0.9908565009860375  1.0000
  C   C31       1.0  0.9021664941036633  0.4022190936632204  0.9919539463319498  1.0000
  C   C32       1.0  0.9404626523512919  0.41331282524315216  0.11163882127081437  1.0000
  C   C33       1.0  0.7029911899909779  0.34370126971536874  0.1052021796703535  1.0000
  C   C34       1.0  0.6554887292375636  0.4099200651508863  0.010253576493739924  1.0000
  C   C35       1.0  0.578206272133897  0.38731774335159974  0.008215988997615442  1.0000
  C   C36       1.0  0.547125349457368  0.29724843971788517  0.10019543614416615  1.0000
  C   C37       1.0  0.5941240183093401  0.23213633795476718  0.19603834248224605  1.0000
  C   C38       1.0  0.6714100340721314  0.2547089388692554  0.19825425272430852  1.0000
  C   C39       1.0  0.46386752940581455  0.2756833759890047  0.10012622458738263  1.0000
  O   O1        1.0  0.4301399280336635  0.36396856796953814  0.1780101909251104  1.0000
  H   H20       1.0  0.04855960856000907  0.4457455862533308  0.4421772249889133  1.0000
  H   H21       1.0  0.7940716150353039  0.37201550911516534  0.3161815366295564  1.0000
  H   H22       1.0  0.794729481939917  0.36903065042357985  0.8992506431987284  1.0000
  H   H23       1.0  0.0003390281453614641  0.4308662227854694  0.11320111466425753  1.0000
  H   H24       1.0  0.9320150207574669  0.41105665598521446  0.6648935275034908  1.0000
  H   H25       1.0  0.6779586350873725  0.48071144267820753  0.9387657721805249  1.0000
  H   H26       1.0  0.5425711734925597  0.44033473283893265  0.9350237296306325  1.0000
  H   H27       1.0  0.5709617628256637  0.1635656660985807  0.26893267011780186  1.0000
  H   H28       1.0  0.7065935887435082  0.20150078643751534  0.27194811642318184  1.0000
  H   H29       1.0  0.45192580960521617  0.17414318871234746  0.1383822248677069  1.0000
  H   H30       1.0  0.4400905461179876  0.28954026003345135  0.9988553579238841  1.0000
  H   H31       1.0  0.37552388609209375  0.3457443377397458  0.1746926609047461  1.0000
  Zn  Zn1       1.0  0.8197824636686416  0.40377666360904274  0.6066374683916151  1.0000
  Zn  Zn2       1.0  0.9844142033020873  0.4003688535059735  0.6145182552546409  1.0000
  C   C40       1.0  0.902139475469731  0.3969902432215482  0.8477779774239875  1.0000
  C   C41       1.0  0.9020589895885329  0.40715687534096534  0.3733779596169271  1.0000
  C   C42       1.0  0.9021395246221479  0.6392620988034237  0.6053837797867125  1.0000
  C   C43       1.0  0.9020588839920249  0.16488346065324877  0.6157722239305654  1.0000
  O   O2        1.0  0.9645431272706483  0.407613191135457  0.4247552105588699  1.0000
  O   O3        1.0  0.9646070186121012  0.39394649854909347  0.8023816875883818  1.0000
  O   O4        1.0  0.9646062163135309  0.5895841038281429  0.6066466175914664  1.0000
  O   O5        1.0  0.9645438733767353  0.2119755962721377  0.620490180489476  1.0000
  O   O6        1.0  0.8396527374132601  0.5921699220072079  0.6006655404606225  1.0000
  O   O7        1.0  0.8396535399751873  0.39653387699832954  0.7964005410850186  1.0000
  O   O8        1.0  0.8395896484113521  0.41020052372975613  0.4187725026333682  1.0000
  O   O9        1.0  0.8395903945291884  0.21456291961503693  0.6145075699341271  1.0000
