data_image0
_chemical_formula_structural       NC11NC3H8C12OCH12C15H12Zn2C4O8
_chemical_formula_sum              "N2 C46 H32 O9 Zn2"
_cell_length_a       17.807433833752565
_cell_length_b       10.29979075500242
_cell_length_c       10.299157797200024
_cell_angle_alpha    85.53980185155037
_cell_angle_beta     88.54730741847368
_cell_angle_gamma    90.66694566819858

_space_group_name_H-M_alt    "P 1"
_space_group_IT_number       1

loop_
  _space_group_symop_operation_xyz
  'x, y, z'

loop_
  _atom_site_type_symbol
  _atom_site_label
  _atom_site_symmetry_multiplicity
  _atom_site_fract_x
  _atom_site_fract_y
  _atom_site_fract_z
  _atom_site_occupancy
  N   N1        1.0  0.7068217189258404  0.43886581659291823  0.5344968162386512  1.0000
  C   C1        1.0  0.6560236851379123  0.40412110457426786  0.6010643241839597  1.0000
  C   C2        1.0  0.592825803022331  0.3609015476059121  0.6838658092249681  1.0000
  C   C3        1.0  0.6045923699504252  0.29731816828821045  0.8065937076758969  1.0000
  C   C4        1.0  0.5433010589649877  0.255778998651758  0.887111054712785  1.0000
  C   C5        1.0  0.47008903612046804  0.27750976641078995  0.8455413472327169  1.0000
  C   C6        1.0  0.4573455427664651  0.34124782236785123  0.7223532216621491  1.0000
  C   C7        1.0  0.3795644264926664  0.36430946201662984  0.6780026560322527  1.0000
  C   C8        1.0  0.3607540551405791  0.3474730756112081  0.5484177911672994  1.0000
  C   C9        1.0  0.2875120864943843  0.36916512790712575  0.5068040127920668  1.0000
  C   C10       1.0  0.2321371706002628  0.4080123167169005  0.5939547688376143  1.0000
  C   C11       1.0  0.1567580513317814  0.4303632021627739  0.5509795941867894  1.0000
  N   N2        1.0  0.09615861389425942  0.4483316535915922  0.5164306814944319  1.0000
  C   C12       1.0  0.2502558191902531  0.4250594241655521  0.723008462881588  1.0000
  C   C13       1.0  0.3234450909848717  0.4033323719216293  0.7648776839087412  1.0000
  C   C14       1.0  0.5194941702161926  0.3827824226010166  0.6418522914622342  1.0000
  H   H1        1.0  0.6610689053591354  0.2798946890600793  0.8399618306026133  1.0000
  H   H2        1.0  0.5525296648871528  0.20630116288512634  0.981854529399361  1.0000
  H   H3        1.0  0.42347045789063475  0.24293663970943413  0.9089854250060643  1.0000
  H   H4        1.0  0.4024222106825774  0.31585051210650406  0.47970037669626  1.0000
  H   H5        1.0  0.27405007187538016  0.35531209270693576  0.40676607165697387  1.0000
  H   H6        1.0  0.2078709781064375  0.4554591166076636  0.7912111666265043  1.0000
  H   H7        1.0  0.3363783579573509  0.4187308489712409  0.8647327616654932  1.0000
  H   H8        1.0  0.5109638547442217  0.43362253086057634  0.5473430538045745  1.0000
  C   C15       1.0  0.9015612771706258  0.06223269439592749  0.5254993785666455  1.0000
  C   C16       1.0  0.8798449231640691  0.05049983357634824  0.657953288838858  1.0000
  C   C17       1.0  0.8687814577155005  0.9274169786519674  0.7250383058462786  1.0000
  C   C18       1.0  0.8797099408436782  0.8152142779871236  0.6578937631818806  1.0000
  C   C19       1.0  0.9014262612884484  0.8249549234974721  0.525438921894442  1.0000
  C   C20       1.0  0.912232079173903  0.9489021465894684  0.4599839773962615  1.0000
  C   C21       1.0  0.84581136252607  0.916058490889685  0.8651681491946119  1.0000
  C   C22       1.0  0.7910069654217088  0.8238465205834807  0.9127795573951945  1.0000
  C   C23       1.0  0.7694557418416132  0.8134315710563265  0.04452673978756616  1.0000
  C   C24       1.0  0.8022232993161569  0.8945477456045421  0.13035983079806335  1.0000
  C   C25       1.0  0.8572281222244814  0.9873731211560899  0.08461094413492831  1.0000
  C   C26       1.0  0.8785463306894662  0.9974213733554079  0.9523478418675273  1.0000
  O   O1        1.0  0.8919727106183281  0.07089301195468156  0.1668723388959935  1.0000
  C   C27       1.0  0.8758975529513686  0.07143922551480286  0.3029627577990244  1.0000
  H   H9        1.0  0.9098690204386559  0.3941556883755313  0.4750485206356512  1.0000
  H   H10       1.0  0.8704879622543441  0.13728355217854493  0.708819362109717  1.0000
  H   H11       1.0  0.8722324833836995  0.7201169459499835  0.709611794265957  1.0000
  H   H12       1.0  0.9289859069473492  0.9571851705844908  0.3578013549464696  1.0000
  H   H13       1.0  0.9096637864966929  0.5012141858754908  0.47495368482335065  1.0000
  H   H14       1.0  0.7641215086560631  0.7609837280360336  0.847813476324826  1.0000
  H   H15       1.0  0.7270348458235909  0.7424200456187535  0.08017605909948267  1.0000
  H   H16       1.0  0.7844428768810803  0.8843357236199707  0.23185771429862034  1.0000
  H   H17       1.0  0.9215737228532536  0.06802097986003064  0.9181833310230623  1.0000
  H   H18       1.0  0.888886362414153  0.9752107650123273  0.35298576299955164  1.0000
  H   H19       1.0  0.9113579363506291  0.14692769534271144  0.3435342397227694  1.0000
  H   H20       1.0  0.8159288769475713  0.09488754926610121  0.3201818318031534  1.0000
  C   C28       1.0  0.9014066368921877  0.4436979553489473  0.14408118040126894  1.0000
  C   C29       1.0  0.8231611624525016  0.4238162909482621  0.1478886941223121  1.0000
  C   C30       1.0  0.783649272630013  0.41363062793149385  0.03266943857458671  1.0000
  C   C31       1.0  0.8233844111387248  0.4236129876669734  0.9126110584549112  1.0000
  C   C32       1.0  0.9015808518362055  0.44348966521953104  0.906857137123867  1.0000
  C   C33       1.0  0.9401353486901122  0.45341032013343474  0.023143683323610942  1.0000
  C   C34       1.0  0.7009262825601552  0.392616612275529  0.03774113126533529  1.0000
  C   C35       1.0  0.6671383509068056  0.304816422322715  0.9582095346965813  1.0000
  C   C36       1.0  0.5892925349773331  0.2851344013007764  0.9630144617519507  1.0000
  C   C37       1.0  0.5438482562258171  0.3522097878252377  0.04794731091448634  1.0000
  C   C38       1.0  0.5772339904714696  0.4408457433491  0.126520781197351  1.0000
  C   C39       1.0  0.6550790481980032  0.46053194427839683  0.12186383968475134  1.0000
  C   C40       1.0  0.4599858841510052  0.33335576840690173  0.05077724158789865  1.0000
  C   C41       1.0  0.4261829381831559  0.42630102645723267  0.9549266789708253  1.0000
  C   C42       1.0  0.39840194801741413  0.5027302175918296  0.8761103447999337  1.0000
  H   H21       1.0  0.049150776965474874  0.48043030846247836  0.34424664841198904  1.0000
  H   H22       1.0  0.7929454588547067  0.4144568374331785  0.240829264133664  1.0000
  H   H23       1.0  0.7930599988953133  0.4176377058126539  0.8233863385586191  1.0000
  H   H24       1.0  0.000450630675093322  0.46873802188225455  0.019421243769599972  1.0000
  H   H25       1.0  0.9316609160059663  0.4510935401119802  0.5771714818935245  1.0000
  H   H26       1.0  0.70100568887611  0.2502744282713847  0.8932707539700928  1.0000
  H   H27       1.0  0.5644320277825939  0.21737451692885945  0.9006147887436855  1.0000
  H   H28       1.0  0.542927990184881  0.4950678948617768  0.1911349446793582  1.0000
  H   H29       1.0  0.6793264383077878  0.5303841423141633  0.18265053773264772  1.0000
  H   H30       1.0  0.4450102177330132  0.23275183337329342  0.02803565723088841  1.0000
  H   H31       1.0  0.436069289746935  0.3482191704972297  0.14910699742985334  1.0000
  H   H32       1.0  0.3740336702681465  0.569832994047422  0.8069158273052119  1.0000
  Zn  Zn1       1.0  0.8191759387976425  0.4415939760204137  0.5292908051699365  1.0000
  Zn  Zn2       1.0  0.98380438356034  0.4455928717595352  0.5216472799473781  1.0000
  C   C43       1.0  0.9015471820988019  0.43835537650929557  0.7626766606421123  1.0000
  C   C44       1.0  0.9014349377356836  0.44883315351124287  0.2882614683511926  1.0000
  C   C45       1.0  0.9014467144286371  0.6807855292815275  0.5202751371970868  1.0000
  C   C46       1.0  0.9015353495217313  0.2064014390644151  0.5306630637700902  1.0000
  O   O2        1.0  0.9639200735794888  0.45206846731779593  0.33374901255171974  1.0000
  O   O3        1.0  0.9640112266750261  0.4381541524273409  0.711387483869655  1.0000
  O   O4        1.0  0.9639292558677975  0.6339195459125007  0.5156465776529457  1.0000
  O   O5        1.0  0.9640019881862919  0.2563030817848255  0.5294898239963712  1.0000
  O   O6        1.0  0.83897827799208  0.6308837646319119  0.5214482637224718  1.0000
  O   O7        1.0  0.8390602485038157  0.4351199314581369  0.7171891005668374  1.0000
  O   O8        1.0  0.8389690951095656  0.4490342015205082  0.3395490677713675  1.0000
  O   O9        1.0  0.8390510097371839  0.2532688066721376  0.5352899765896053  1.0000
