data_image0
_chemical_formula_structural       NC12NC2H8C12NCOCH13C12SCH12Zn2C4O8
_chemical_formula_sum              "N3 C45 H33 O9 S1 Zn2"
_cell_length_a       19.240039667572717
_cell_length_b       10.299155265289647
_cell_length_c       10.299780138516091
_cell_angle_alpha    85.56043235920357
_cell_angle_beta     89.99202709574732
_cell_angle_gamma    89.97652338962732

_space_group_name_H-M_alt    "P 1"
_space_group_IT_number       1

loop_
  _space_group_symop_operation_xyz
  'x, y, z'

loop_
  _atom_site_type_symbol
  _atom_site_label
  _atom_site_symmetry_multiplicity
  _atom_site_fract_x
  _atom_site_fract_y
  _atom_site_fract_z
  _atom_site_occupancy
  N   N1        1.0  0.654272187653562  0.4209744214928812  0.5671478226685003  1.0000
  C   C1        1.0  0.5941238188239696  0.42097450545720116  0.5671477407135517  1.0000
  C   C2        1.0  0.5193057816673176  0.42097462271278974  0.5671476033847429  1.0000
  C   C3        1.0  0.4828384981094653  0.3565337477549515  0.6705715860527284  1.0000
  C   C4        1.0  0.4101677678774254  0.3564228827067317  0.6706581529526834  1.0000
  C   C5        1.0  0.3729735467266567  0.4209747152205352  0.5671473756893961  1.0000
  C   C6        1.0  0.4101550039075875  0.4855267347894474  0.4636367929100025  1.0000
  C   C7        1.0  0.4828257102817907  0.4854156342588938  0.4637234823655767  1.0000
  C   C8        1.0  0.2957684563113951  0.4209746365266136  0.5671472802982949  1.0000
  C   C9        1.0  0.2586023676417831  0.30771727461066756  0.6090450657571178  1.0000
  C   C10       1.0  0.18593166261905178  0.3078241569938225  0.608953717102032  1.0000
  C   C11       1.0  0.1494361694119891  0.42097450736134756  0.5671473412388452  1.0000
  C   C12       1.0  0.0746181322634473  0.42097439368016976  0.5671475899175629  1.0000
  N   N2        1.0  0.014469815404764998  0.4209743529123511  0.5671477983380053  1.0000
  C   C13       1.0  0.1858881870488507  0.5341249335471927  0.5253409124679052  1.0000
  C   C14       1.0  0.2585588666007487  0.5342319960187987  0.5252494011795255  1.0000
  H   H1        1.0  0.510558292065658  0.30664241159297867  0.7513219857877811  1.0000
  H   H2        1.0  0.3830791309052426  0.30733000494382945  0.7525238057949573  1.0000
  H   H3        1.0  0.3830571100894992  0.5346196395924541  0.3817710892146686  1.0000
  H   H4        1.0  0.5105356877901114  0.5353068702286441  0.3829733584392008  1.0000
  H   H5        1.0  0.28571287352756153  0.21856406700135644  0.6402340440530978  1.0000
  H   H6        1.0  0.1582337771239204  0.21957048698536474  0.6411753863389726  1.0000
  H   H7        1.0  0.1581562491004892  0.6223785790210761  0.4931192577870116  1.0000
  H   H8        1.0  0.285634839518152  0.6233852827979756  0.49406037809380354  1.0000
  C   C15       1.0  0.8344519576539261  0.03957694516671295  0.5672664933999307  1.0000
  C   C16       1.0  0.8225893652975736  0.04925036028582652  0.4323479377090802  1.0000
  C   C17       1.0  0.8165074769834918  0.9370172790604898  0.3638236697107169  1.0000
  C   C18       1.0  0.8224232044652476  0.8139905298790683  0.432040168043347  1.0000
  C   C19       1.0  0.8342967438584237  0.802361897078329  0.5670403102896584  1.0000
  C   C20       1.0  0.8402411146229515  0.915672177722707  0.6338223556622022  1.0000
  C   C21       1.0  0.8039591446375359  0.9482242535269026  0.22109612911828957  1.0000
  C   C22       1.0  0.8392128882981118  0.042319056403192334  0.13968252653408197  1.0000
  C   C23       1.0  0.8274097996929837  0.052734680437332315  0.005366400185093045  1.0000
  C   C24       1.0  0.7805491369376665  0.9683813362937232  0.9496185858974036  1.0000
  C   C25       1.0  0.7444464295942494  0.8761028056154332  0.030964032517297513  1.0000
  C   C26       1.0  0.7562748348275038  0.8654311547733984  0.16524282523084066  1.0000
  N   N3        1.0  0.7665096291260748  0.9785951267659551  0.8120642908642668  1.0000
  C   C27       1.0  0.8172654100232061  0.015512205267310009  0.7138513801104129  1.0000
  O   O1        1.0  0.8810241046696502  0.01805202168956299  0.7417084167860759  1.0000
  C   C28       1.0  0.7951029163002612  0.04193154583976666  0.575318301830682  1.0000
  H   H9        1.0  0.8390363919854754  0.3633323216934221  0.6191562469704304  1.0000
  H   H10       1.0  0.8170942698663733  0.14428520404913936  0.3805408464888653  1.0000
  H   H11       1.0  0.8186883158692677  0.7271810328441602  0.3794143056822501  1.0000
  H   H12       1.0  0.8493933197906306  0.9074960052986146  0.7378874117071068  1.0000
  H   H13       1.0  0.85712361567602  0.5731301178853344  0.8217152050363494  1.0000
  H   H14       1.0  0.8763230913776453  0.10737535151742783  0.17977286996657993  1.0000
  H   H15       1.0  0.854077493797037  0.12817852010934283  0.9457888891833517  1.0000
  H   H16       1.0  0.7072695900830633  0.8117503892104694  0.9900066957664988  1.0000
  H   H17       1.0  0.7273737751413302  0.7936038284066288  0.22565324309864065  1.0000
  H   H18       1.0  0.7175591774846325  0.9497204050874909  0.7809923826166059  1.0000
  H   H19       1.0  0.7449327529370106  0.09537633988344862  0.5708648891315908  1.0000
  H   H20       1.0  0.7886748141501478  0.9483129627042469  0.5300964566398219  1.0000
  H   H21       1.0  0.8346732283221099  0.10201184830085253  0.5199257282320757  1.0000
  C   C29       1.0  0.8344022974998762  0.42085809161799514  0.1858013237913032  1.0000
  C   C30       1.0  0.7683301357217127  0.3628422280213732  0.18931295418376126  1.0000
  C   C31       1.0  0.7348233264836707  0.33355940308262677  0.07394537470585605  1.0000
  C   C32       1.0  0.7682731888635593  0.36306768381105403  0.9540089908523952  1.0000
  C   C33       1.0  0.8343463875135574  0.42108072371421246  0.9485055229999202  1.0000
  C   C34       1.0  0.8670409195031897  0.4496518507172278  0.0649247849754353  1.0000
  C   C35       1.0  0.6649235640348841  0.2721985110214378  0.07872318996651195  1.0000
  C   C36       1.0  0.6134410826524793  0.3138626045637969  0.9877543703670861  1.0000
  C   C37       1.0  0.5476666675234421  0.2560796319297547  0.99248776728703  1.0000
  C   C38       1.0  0.5324153121968331  0.15626238412535298  0.08808009479646084  1.0000
  C   C39       1.0  0.5832793947470315  0.11379929821163115  0.17864350094200865  1.0000
  C   C40       1.0  0.6490968437656833  0.17140882805716018  0.1742725633604736  1.0000
  S   S1        1.0  0.4480462312916301  0.08198567477589869  0.09370351577962821  1.0000
  C   C41       1.0  0.41238089017773616  0.19620944776561244  0.20239861312727414  1.0000
  H   H22       1.0  0.8595889607245368  0.44291726602029335  0.5119202553845827  1.0000
  H   H23       1.0  0.7423599339509632  0.3419183539183508  0.2818685090141264  1.0000
  H   H24       1.0  0.7430745735167585  0.3390644954587474  0.8649439027454551  1.0000
  H   H25       1.0  0.9180129415596425  0.4944078362780284  0.06144733977351757  1.0000
  H   H26       1.0  0.8595078930976799  0.44324475430204124  0.6189505895539584  1.0000
  H   H27       1.0  0.623760123505747  0.3922362603109566  0.9140528757805635  1.0000
  H   H28       1.0  0.5084992006045728  0.28941539855358056  0.9221465858740339  1.0000
  H   H29       1.0  0.571897933161171  0.0361216692509192  0.25246965389872544  1.0000
  H   H30       1.0  0.6878907856059434  0.1360219201856654  0.24451353787657526  1.0000
  H   H31       1.0  0.4417718429241215  0.19017888931451687  0.2954145065872018  1.0000
  H   H32       1.0  0.3572304293012402  0.17107882943688613  0.22317842073991256  1.0000
  H   H33       1.0  0.4150469566704743  0.2969389664517885  0.15577745337165827  1.0000
  Zn  Zn1       1.0  0.7582174516537414  0.42097093642611516  0.5671553047707549  1.0000
  Zn  Zn2       1.0  0.9105245715547277  0.4209672467998351  0.567150917809097  1.0000
  C   C42       1.0  0.834356451280736  0.4158645698014245  0.8043396095521311  1.0000
  C   C43       1.0  0.8343872347738945  0.4260752521636322  0.329966739954751  1.0000
  C   C44       1.0  0.8343228652586537  0.6581777659380668  0.5619081331557387  1.0000
  C   C45       1.0  0.8344207691366938  0.18376049562912944  0.5723982860508825  1.0000
  O   O2        1.0  0.892181938985798  0.4278191125427988  0.3783483074374876  1.0000
  O   O3        1.0  0.8921593271536284  0.41411692917635734  0.755954338927977  1.0000
  O   O4        1.0  0.8921314267486579  0.609787899938333  0.5601892061170028  1.0000
  O   O5        1.0  0.8922097874239133  0.2321481510445782  0.574113342876833  1.0000
  O   O6        1.0  0.7765321838096109  0.609790032184043  0.5601928796976847  1.0000
  O   O7        1.0  0.7765600838989197  0.41412062182259923  0.7559579428035854  1.0000
  O   O8        1.0  0.7765826959009938  0.42782275947395276  0.3783503499947296  1.0000
  O   O9        1.0  0.7766105443310194  0.23215178871464803  0.5741154828003694  1.0000
