data_image0
_chemical_formula_structural       NC8NC6H8C12ClH9C16H10Zn2C4O8
_chemical_formula_sum              "N2 C46 H27 Cl1 Zn2 O8"
_cell_length_a       17.457602349358154
_cell_length_b       10.299768534541528
_cell_length_c       10.299151387937775
_cell_angle_alpha    85.58714147101236
_cell_angle_beta     92.86396087313608
_cell_angle_gamma    91.70638861519478

_space_group_name_H-M_alt    "P 1"
_space_group_IT_number       1

loop_
  _space_group_symop_operation_xyz
  'x, y, z'

loop_
  _atom_site_type_symbol
  _atom_site_label
  _atom_site_symmetry_multiplicity
  _atom_site_fract_x
  _atom_site_fract_y
  _atom_site_fract_z
  _atom_site_occupancy
  N   N1        1.0  0.7228606034228701  0.4522245365723332  0.6265620440330424  1.0000
  C   C1        1.0  0.6617751940757539  0.40629501848076544  0.6159447093622286  1.0000
  C   C2        1.0  0.5857823617874787  0.3491644164684198  0.6027462871668547  1.0000
  C   C3        1.0  0.5272526282525422  0.3893585910238728  0.6776451730661619  1.0000
  C   C4        1.0  0.45269820901818103  0.3343465044574321  0.6650612628250006  1.0000
  C   C5        1.0  0.3905774896587227  0.37678573681298344  0.7443820190718147  1.0000
  C   C6        1.0  0.3160408252606298  0.3952297402534084  0.6886193409201122  1.0000
  C   C7        1.0  0.2575110414138052  0.4352400375988832  0.7636261735906831  1.0000
  C   C8        1.0  0.1815365947006248  0.4542889256460769  0.7056480629369948  1.0000
  N   N2        1.0  0.12046605482258031  0.46959785204896876  0.6590338127905271  1.0000
  C   C9        1.0  0.2730257461569443  0.45704969261821593  0.8949042091520527  1.0000
  C   C10       1.0  0.3467777351944435  0.43899484185665605  0.9510544981478344  1.0000
  C   C11       1.0  0.4052958949648179  0.3991647967934462  0.8765053918267405  1.0000
  C   C12       1.0  0.4379622075442474  0.23846220495253356  0.5761455271479794  1.0000
  C   C13       1.0  0.49648022921008994  0.19854688254871333  0.5016466533101556  1.0000
  C   C14       1.0  0.5702498400457948  0.25367158329249695  0.5147805156847061  1.0000
  H   H1        1.0  0.5396031728456642  0.46458140389398306  0.7442783703167626  1.0000
  H   H2        1.0  0.3037048681626708  0.3802151654419428  0.5865946379648019  1.0000
  H   H3        1.0  0.2281637799823691  0.4879578551507491  0.9537409697166386  1.0000
  H   H4        1.0  0.3586003202653389  0.45556690388240106  0.052705997445258945  1.0000
  H   H5        1.0  0.46177329442462883  0.3841931562088048  0.9226111666487664  1.0000
  H   H6        1.0  0.3814701923006495  0.1931223352113174  0.5654920967945163  1.0000
  H   H7        1.0  0.48464384581164294  0.12444000200846639  0.4338151784495188  1.0000
  H   H8        1.0  0.6151116255930936  0.22189395126471245  0.45645484739488795  1.0000
  C   C15       1.0  0.9215946357837441  0.0795427820298591  0.6427901968565441  1.0000
  C   C16       1.0  0.9266635520950756  0.08927077988651422  0.5067348224587045  1.0000
  C   C17       1.0  0.9293057680017741  0.9770638924965279  0.43780789459096403  1.0000
  C   C18       1.0  0.9268100799153791  0.8539894716537416  0.5067622791409228  1.0000
  C   C19       1.0  0.9217393587718516  0.8422698658709048  0.6428174440912768  1.0000
  C   C20       1.0  0.9191605980234905  0.9556045693053311  0.7100695392652714  1.0000
  C   C21       1.0  0.9346692789795755  0.9884090156443047  0.29387273391709146  1.0000
  C   C22       1.0  0.8910316312898248  0.08001006218205431  0.21584488981370398  1.0000
  C   C23       1.0  0.8961482770077  0.09049561077856905  0.08038259349809218  1.0000
  C   C24       1.0  0.9448286794741192  0.009898285225425685  0.021250243733356378  1.0000
  C   C25       1.0  0.9884539311776205  0.9186082860725792  0.09776585033157059  1.0000
  C   C26       1.0  0.9834735278942506  0.9077364456690692  0.23325391664439032  1.0000
  Cl  Cl1       1.0  0.9511627882385719  0.023296271130487378  0.8512820199517206  1.0000
  H   H9        1.0  0.919623764490436  0.4032879648338874  0.6946275240297957  1.0000
  H   H10       1.0  0.9296276067547784  0.1843897923527138  0.45424414075748887  1.0000
  H   H11       1.0  0.9277719905300185  0.7671747527666054  0.45389452979131595  1.0000
  H   H12       1.0  0.9152493854339888  0.9473316440992223  0.8150299341443428  1.0000
  H   H13       1.0  0.9198377231073055  0.5103517384479972  0.6946682266269475  1.0000
  H   H14       1.0  0.8522353338470708  0.14231105895706575  0.25942007166459646  1.0000
  H   H15       1.0  0.8620914058431738  0.16109708657341315  0.021489295287736576  1.0000
  H   H16       1.0  0.026394814987630966  0.8562225643846604  0.05243132515532212  1.0000
  H   H17       1.0  0.018504119433397248  0.8374701773671254  0.2907324272182126  1.0000
  C   C27       1.0  0.921711425119509  0.4607395400691843  0.2614364899403463  1.0000
  C   C28       1.0  0.84769755225247  0.5114580054596889  0.25048452925859843  1.0000
  C   C29       1.0  0.8101252632508407  0.5373452568242241  0.12777197289130804  1.0000
  C   C30       1.0  0.8475641607320049  0.5118297672286851  0.015161308840000443  1.0000
  C   C31       1.0  0.9216225507216468  0.46107310307008986  0.024171215187719586  1.0000
  C   C32       1.0  0.9582410149688356  0.43584243691813973  0.14769823428316298  1.0000
  C   C33       1.0  0.7318275495787193  0.5909995617407089  0.11723153245681561  1.0000
  C   C34       1.0  0.7123595175658614  0.6899601946696543  0.020338856586386678  1.0000
  C   C35       1.0  0.6386530575414701  0.7404198617872344  0.01054543185832224  1.0000
  C   C36       1.0  0.5834477502853477  0.6926850917017018  0.09726399434485278  1.0000
  C   C37       1.0  0.6022205529192299  0.5942524139211058  0.19393781048664316  1.0000
  C   C38       1.0  0.6759049856683551  0.543704192402831  0.2039789994587804  1.0000
  C   C39       1.0  0.5075775299614158  0.7446799214914874  0.08705452639542899  1.0000
  C   C40       1.0  0.4440372910073082  0.7882248021353662  0.0785041559320212  1.0000
  C   C41       1.0  0.3696323319289239  0.8392154714046689  0.06849175957775455  1.0000
  C   C42       1.0  0.3061023612473037  0.8827535528400952  0.05994287739629378  1.0000
  H   H18       1.0  0.9501640050882411  0.44116776820706516  0.5931281925946659  1.0000
  H   H19       1.0  0.8195122509112456  0.5326205991724444  0.3374869922873418  1.0000
  H   H20       1.0  0.8184563377605314  0.5299367108619535  0.9204116211900013  1.0000
  H   H21       1.0  0.015328888179982014  0.396718386716413  0.1554302128146341  1.0000
  H   H22       1.0  0.06121098359529542  0.3645058024330159  0.8339270511554324  1.0000
  H   H23       1.0  0.7544262135358016  0.7294999010215666  0.9532287264457286  1.0000
  H   H24       1.0  0.6247930036085185  0.8168626548650493  0.9355626341752528  1.0000
  H   H25       1.0  0.5598565778979249  0.5563408978379347  0.2613551039466453  1.0000
  H   H26       1.0  0.6888582379720153  0.4664601481227406  0.2784947074609416  1.0000
  H   H27       1.0  0.2503178016816776  0.920983520635883  0.05243626038649385  1.0000
  Zn  Zn1       1.0  0.8376009464442314  0.4572346207151481  0.6359401933808386  1.0000
  Zn  Zn2       1.0  0.005725694292292305  0.46457712474682156  0.6496662955456449  1.0000
  C   C43       1.0  0.9216366643476003  0.4558363429704282  0.8799976791675839  1.0000
  C   C44       1.0  0.9216918126019927  0.4659771213452466  0.4056090871720712  1.0000
  C   C45       1.0  0.9217086505764109  0.698095810364239  0.6376368572618856  1.0000
  C   C46       1.0  0.9216197686998482  0.22371609117512858  0.6479699735765252  1.0000
  O   O1        1.0  0.9854876950058221  0.47051567774555547  0.4592037118706056  1.0000
  O   O2        1.0  0.9854435752762589  0.45686959735108745  0.8368204745321914  1.0000
  O   O3        1.0  0.9855008448213317  0.6524971440887821  0.6411123259280189  1.0000
  O   O4        1.0  0.9854303681042691  0.2748881377499848  0.6549117584170532  1.0000
  O   O5        1.0  0.8578962152595305  0.6469236052077598  0.6306947258185542  1.0000
  O   O6        1.0  0.8578389460150677  0.451297618742146  0.8264028052330956  1.0000
  O   O7        1.0  0.8578830659689832  0.4649436531999842  0.4487844811797641  1.0000
  O   O8        1.0  0.8578257390511864  0.2693161039580636  0.6444926250930614  1.0000
