data_image0
_chemical_formula_structural       NC9NC5H8C16H10C13F3H9Zn2C4O8
_chemical_formula_sum              "N2 C47 H27 F3 Zn2 O8"
_cell_length_a       17.807436237873137
_cell_length_b       10.29914801576943
_cell_length_c       10.2985328690268
_cell_angle_alpha    85.55501211268866
_cell_angle_beta     89.39824995993841
_cell_angle_gamma    88.40369483635645

_space_group_name_H-M_alt    "P 1"
_space_group_IT_number       1

loop_
  _space_group_symop_operation_xyz
  'x, y, z'

loop_
  _atom_site_type_symbol
  _atom_site_label
  _atom_site_symmetry_multiplicity
  _atom_site_fract_x
  _atom_site_fract_y
  _atom_site_fract_z
  _atom_site_occupancy
  N   N1        1.0  0.7075247498906175  0.38741350905538474  0.556436709606279  1.0000
  C   C1        1.0  0.6469316737285024  0.3522176586385455  0.5454267759814202  1.0000
  C   C2        1.0  0.5715605467252903  0.30843789668450183  0.5317316139750556  1.0000
  C   C3        1.0  0.5534532459600409  0.2369847340401261  0.42675092631788836  1.0000
  C   C4        1.0  0.48027175067638017  0.19436642830824424  0.41337121875141514  1.0000
  C   C5        1.0  0.4241487829618142  0.22282371652962119  0.5049399036818638  1.0000
  C   C6        1.0  0.3463757390391796  0.1776463846559344  0.49080277169379816  1.0000
  C   C7        1.0  0.2842122905805005  0.2594168813445097  0.5167092197644898  1.0000
  C   C8        1.0  0.2108884627661615  0.21659552620164613  0.5033432798235178  1.0000
  C   C9        1.0  0.1476753219174186  0.30105769439028207  0.5296125251954242  1.0000
  N   N2        1.0  0.096864944108934  0.3689594345236413  0.5507322743917888  1.0000
  C   C10       1.0  0.1991445010054362  0.09174566675539286  0.4640456487550637  1.0000
  C   C11       1.0  0.2604505772316821  0.009961314100808583  0.438130816186028  1.0000
  C   C12       1.0  0.3336549064450187  0.05238803501721612  0.45129436857635175  1.0000
  C   C13       1.0  0.4429475697324569  0.2947713515843118  0.6101396293746735  1.0000
  C   C14       1.0  0.5161819009675236  0.33719919995992553  0.6233637546016739  1.0000
  H   H1        1.0  0.5958409995099747  0.21447550207101407  0.3550422322459055  1.0000
  H   H2        1.0  0.46734703422353696  0.1406542744442123  0.33046711388818073  1.0000
  H   H3        1.0  0.2927250233897106  0.35689819689007996  0.5455473890604465  1.0000
  H   H4        1.0  0.1426741158928992  0.05770372186120243  0.4534643011713899  1.0000
  H   H5        1.0  0.2512395473437206  0.9132997877080284  0.4080917997833473  1.0000
  H   H6        1.0  0.3802854653476792  0.9866320537437654  0.43227222029003465  1.0000
  H   H7        1.0  0.4012766935477516  0.3167418953121266  0.6831431463892876  1.0000
  H   H8        1.0  0.5296350795277929  0.3921317091295937  0.7052256401836248  1.0000
  C   C15       1.0  0.9021449482753893  0.9967875286229716  0.5537508063317087  1.0000
  C   C16       1.0  0.8849842082069522  0.00715831362271091  0.4205185012008188  1.0000
  C   C17       1.0  0.8763385460710839  0.8952840938931168  0.3528014698105957  1.0000
  C   C18       1.0  0.8850844708813396  0.77190162072171  0.4201124123364919  1.0000
  C   C19       1.0  0.9022519121962155  0.7595751022413779  0.5534293783729647  1.0000
  C   C20       1.0  0.9106777903686304  0.8725389257490007  0.6194276783195602  1.0000
  C   C21       1.0  0.8581847381078047  0.9073007305712335  0.21185775612228763  1.0000
  C   C22       1.0  0.8937234994630602  0.8246047165913846  0.12611314244187777  1.0000
  C   C23       1.0  0.8766115154413266  0.8360407816678876  0.9934627377256859  1.0000
  C   C24       1.0  0.8237850366364184  0.9300809395200077  0.9447551343334442  1.0000
  C   C25       1.0  0.7881092175686779  0.012763366866350712  0.02921772138978751  1.0000
  C   C26       1.0  0.8051676392740641  0.0015711127516429002  0.16188985897980745  1.0000
  C   C27       1.0  0.8061959562146612  0.9417293570086491  0.8081786869298426  1.0000
  C   C28       1.0  0.7914652910040537  0.951484794424024  0.6937978889825143  1.0000
  C   C29       1.0  0.7742158559881541  0.9629082811154763  0.5598591405996287  1.0000
  C   C30       1.0  0.7594876629714369  0.9726622299174013  0.44549681554723275  1.0000
  H   H9        1.0  0.9087070691582162  0.32027491588397927  0.6050123190344596  1.0000
  H   H10       1.0  0.8793139130262317  0.10246629242938532  0.36868770417661856  1.0000
  H   H11       1.0  0.8774751032837484  0.6853530783294425  0.3688046431947154  1.0000
  H   H12       1.0  0.9239121123743447  0.8638238867701223  0.7221940630587547  1.0000
  H   H13       1.0  0.9341893335806887  0.5290249874470576  0.8052432299451164  1.0000
  H   H14       1.0  0.9354583680113754  0.7522330060027748  0.161353980389487  1.0000
  H   H15       1.0  0.9047145170575354  0.7717659141688854  0.9288714450889892  1.0000
  H   H16       1.0  0.7469718112234534  0.08567068557046476  0.9925981369826848  1.0000
  H   H17       1.0  0.7761888293587983  0.06549743571401212  0.22569113745534453  1.0000
  H   H18       1.0  0.7465551237439452  0.9812270181452386  0.34507705025499247  1.0000
  C   C31       1.0  0.9021768249057666  0.37806039014135107  0.1721929638941988  1.0000
  C   C32       1.0  0.9775019878125026  0.33359528972463437  0.17331960303854577  1.0000
  C   C33       1.0  0.015669828758062776  0.31118316598020934  0.05671957412893991  1.0000
  C   C34       1.0  0.9775463747153468  0.33384882423572293  0.9380181689800375  1.0000
  C   C35       1.0  0.9022200395304276  0.37830227439418973  0.9349872026962451  1.0000
  C   C36       1.0  0.8650163106073591  0.40011900366634245  0.052565033799877536  1.0000
  C   C37       1.0  0.09530646505681895  0.26418514032565343  0.05884513293964044  1.0000
  C   C38       1.0  0.14718767831669277  0.3163311304091543  0.9665204364912521  1.0000
  C   C39       1.0  0.22213644391496623  0.2722018160764008  0.9685423154441204  1.0000
  C   C40       1.0  0.2465676598921649  0.17363951245282383  0.06169671778983732  1.0000
  C   C41       1.0  0.1951215680272489  0.123292097153467  0.1555916031034461  1.0000
  C   C42       1.0  0.1201776973549098  0.16745423723880393  0.15368055955037496  1.0000
  C   C43       1.0  0.32801365772426716  0.12948916415953304  0.06680384033402742  1.0000
  F   F1        1.0  0.36655217757200376  0.20698377003498414  0.14569061347600387  1.0000
  F   F2        1.0  0.3600092334504872  0.1391467411907339  0.9434731640652592  1.0000
  F   F3        1.0  0.3349530411573165  0.0010283166598092919  0.1166419925022486  1.0000
  H   H19       1.0  0.759983586237429  0.4628946960596343  0.3773235205549792  1.0000
  H   H20       1.0  0.006919963174054411  0.3180401901811518  0.26497353039411675  1.0000
  H   H21       1.0  0.006395819206177267  0.3150984210278409  0.8479720949377625  1.0000
  H   H22       1.0  0.8069614722582054  0.4343838978118497  0.05096359239784398  1.0000
  H   H23       1.0  0.7597428195000497  0.4615663712934741  0.7219933385283515  1.0000
  H   H24       1.0  0.13007883499413686  0.39291271344585255  0.8940100433426812  1.0000
  H   H25       1.0  0.26109126392090265  0.3155855337986375  0.897467320161645  1.0000
  H   H26       1.0  0.21283143193266163  0.04957380649584353  0.23053485581793098  1.0000
  H   H27       1.0  0.0814935961981027  0.12501179520866357  0.22577086531974144  1.0000
  Zn  Zn1       1.0  0.8198799184775658  0.38208459859963484  0.5547980456341504  1.0000
  Zn  Zn2       1.0  0.9845097564450631  0.37427776136174895  0.5523816202269347  1.0000
  C   C44       1.0  0.9022094714149554  0.37308253193707186  0.790804955425882  1.0000
  C   C45       1.0  0.9021820014974218  0.383281381562238  0.31637481083318497  1.0000
  C   C46       1.0  0.9022275398664141  0.6153905665628665  0.5483146151793026  1.0000
  C   C47       1.0  0.9021638766543988  0.1409717891975384  0.558865221805668  1.0000
  O   O1        1.0  0.9646599035473102  0.38206527374614985  0.3638465373224684  1.0000
  O   O2        1.0  0.9646818069486601  0.36837245100973814  0.7414988445040303  1.0000
  O   O3        1.0  0.9646955553196405  0.5640392937396077  0.5456861908884738  1.0000
  O   O4        1.0  0.9646460989951037  0.18639844294029717  0.5596590943768036  1.0000
  O   O5        1.0  0.8397435197474409  0.5699639196865884  0.5475205723020566  1.0000
  O   O6        1.0  0.8397297715879408  0.3742986373611261  0.7433331560094845  1.0000
  O   O7        1.0  0.8397078681417369  0.38799141434053963  0.36567928733012  1.0000
  O   O8        1.0  0.8396940635906727  0.19232457427617256  0.5614919417634523  1.0000
