data_image0
_chemical_formula_structural       NC12NC2H8C16H10C13OH12Zn2C4O8
_chemical_formula_sum              "N2 C47 H30 O9 Zn2"
_cell_length_a       19.240039667572717
_cell_length_b       10.29914801576943
_cell_length_c       10.299153481560891
_cell_angle_alpha    85.55882765748771
_cell_angle_beta     90.01662043824444
_cell_angle_gamma    90.01219802926651

_space_group_name_H-M_alt    "P 1"
_space_group_IT_number       1

loop_
  _space_group_symop_operation_xyz
  'x, y, z'

loop_
  _atom_site_type_symbol
  _atom_site_label
  _atom_site_symmetry_multiplicity
  _atom_site_fract_x
  _atom_site_fract_y
  _atom_site_fract_z
  _atom_site_occupancy
  N   N1        1.0  0.6544165117209817  0.4208530840579625  0.5668965836613749  1.0000
  C   C1        1.0  0.5942681429005402  0.4208531680153693  0.5668965016917251  1.0000
  C   C2        1.0  0.5194501057514103  0.42085328525913646  0.5668963643411629  1.0000
  C   C3        1.0  0.4829851113625713  0.35642155532116404  0.6703337988374085  1.0000
  C   C4        1.0  0.41031436407383076  0.3563106973498327  0.670420383988682  1.0000
  C   C5        1.0  0.3731178707892576  0.420853377746248  0.5668961366222642  1.0000
  C   C6        1.0  0.4102970559434169  0.485396245218096  0.4633720837271771  1.0000
  C   C7        1.0  0.48296774521060026  0.4852851517736525  0.46345879146955293  1.0000
  C   C8        1.0  0.2959127803258489  0.42085329904249025  0.5668960412357213  1.0000
  C   C9        1.0  0.2587185730338082  0.3075987575966148  0.6088099804007401  1.0000
  C   C10       1.0  0.1860478826416256  0.30770563240942983  0.6087186137274996  1.0000
  C   C11       1.0  0.1495804933973984  0.4208531698816875  0.5668961021953989  1.0000
  C   C12       1.0  0.0747624562681133  0.4208530562229169  0.5668963509013925  1.0000
  N   N2        1.0  0.0146141394437373  0.42085301547443144  0.5668965593380004  1.0000
  C   C13       1.0  0.1860606150102064  0.5340007831680218  0.5250735377433997  1.0000
  C   C14       1.0  0.2587313092153014  0.5341078380557056  0.5249820084060393  1.0000
  H   H1        1.0  0.51070683334568  0.3065373636050208  0.751094649507704  1.0000
  H   H2        1.0  0.38322817751511445  0.3072250777978165  0.752296449404128  1.0000
  H   H3        1.0  0.3831967117091882  0.5344818918056726  0.38149596745262726  1.0000
  H   H4        1.0  0.5106757947219914  0.5351692433226884  0.38269821663500636  1.0000
  H   H5        1.0  0.2858065329279923  0.2184476004190108  0.640011578537933  1.0000
  H   H6        1.0  0.1583279882569816  0.2194541198009876  0.640952847608594  1.0000
  H   H7        1.0  0.1583506859465255  0.6222522712430198  0.4928393184221449  1.0000
  H   H8        1.0  0.2858298281403922  0.6232590743997355  0.49378036546698234  1.0000
  C   C15       1.0  0.8344691968712606  0.0394517493217712  0.5670621052015679  1.0000
  C   C16       1.0  0.8185790556845403  0.04900022662736814  0.43358710281054136  1.0000
  C   C17       1.0  0.8105734654289123  0.9367116846920798  0.36574783823528745  1.0000
  C   C18       1.0  0.8186717714534244  0.813748258949848  0.43318250938448255  1.0000
  C   C19       1.0  0.8345681211178597  0.8022443714546245  0.5667422653198553  1.0000
  C   C20       1.0  0.8423701991523957  0.915611984741216  0.6328596909470099  1.0000
  C   C21       1.0  0.7937637839675958  0.947858427789799  0.22454738283203235  1.0000
  C   C22       1.0  0.8266335557760719  0.8668411894132095  0.1393290311037756  1.0000
  C   C23       1.0  0.8107885818668118  0.8774572966769436  0.006436605364110504  1.0000
  C   C24       1.0  0.761911068648933  0.9689902710904899  0.9569582622797794  1.0000
  C   C25       1.0  0.7289143643261434  0.049987340742547515  0.04089266328623142  1.0000
  C   C26       1.0  0.7447097872973741  0.03961250708659847  0.17380603577308995  1.0000
  C   C27       1.0  0.7456242999331748  0.9797958544451266  0.8201330609916946  1.0000
  C   C28       1.0  0.731984306787536  0.9888454273942695  0.7055439343151613  1.0000
  C   C29       1.0  0.7160120358613842  0.999442355118561  0.5713612354624833  1.0000
  C   C30       1.0  0.7023743317907999  0.008490557868584547  0.4567906166912321  1.0000
  H   H9        1.0  0.8405454843242051  0.3632536010686356  0.6184164026949073  1.0000
  H   H10       1.0  0.813327781899735  0.14403597465255036  0.3816766237623461  1.0000
  H   H11       1.0  0.8116266184099379  0.7268356104128268  0.3817666159724624  1.0000
  H   H12       1.0  0.854624640185614  0.9075311087035197  0.7358132420634016  1.0000
  H   H13       1.0  0.8641412647342205  0.5732248906757448  0.8190075423106544  1.0000
  H   H14       1.0  0.8652482583113712  0.7964500297791944  0.17517899375111678  1.0000
  H   H15       1.0  0.8367813600711216  0.8145101700072785  0.9422612549924851  1.0000
  H   H16       1.0  0.6908522606374263  0.12094233553139366  0.0036727973624612886  1.0000
  H   H17       1.0  0.7179066723761768  0.10216952388525558  0.23717859277286335  1.0000
  H   H18       1.0  0.6903993296072131  0.01643564421444066  0.35618795277277737  1.0000
  C   C31       1.0  0.8344589523679442  0.4207006225837877  0.18552968298169503  1.0000
  C   C32       1.0  0.7625986204524747  0.3963183875177505  0.18621140136820213  1.0000
  C   C33       1.0  0.726290007875958  0.38411886191109534  0.06938942104395407  1.0000
  C   C34       1.0  0.7627626406998582  0.3966357127998046  0.9509033006689886  1.0000
  C   C35       1.0  0.8345783878712241  0.42099551180238315  0.9482746443228125  1.0000
  C   C36       1.0  0.8700072072025025  0.4328821218418726  0.06612136719124395  1.0000
  C   C37       1.0  0.6503159167807994  0.3583539188914664  0.07108323276168393  1.0000
  C   C38       1.0  0.606367263000166  0.42359610596784014  0.9783882534445407  1.0000
  C   C39       1.0  0.5348711640725626  0.3993937201930604  0.9800601666826472  1.0000
  C   C40       1.0  0.5061202274048127  0.30867395182938506  0.07355822079113383  1.0000
  C   C41       1.0  0.549602765198972  0.24452813567997955  0.16717127072786075  1.0000
  C   C42       1.0  0.6211021574284317  0.26870087160411016  0.16567751958259436  1.0000
  C   C43       1.0  0.42909605936085865  0.2853853490161957  0.07748440319660377  1.0000
  O   O1        1.0  0.3978902629495791  0.37298067952334923  0.1569548528656186  1.0000
  H   H19       1.0  0.9700106067353347  0.46755300375381936  0.39147092675681616  1.0000
  H   H20       1.0  0.7345768310126527  0.3885540409564723  0.2776902430240873  1.0000
  H   H21       1.0  0.7351855540952177  0.3855825296479847  0.860728821848709  1.0000
  H   H22       1.0  0.925400466338007  0.45167520964134633  0.06480962508810362  1.0000
  H   H23       1.0  0.8621920663040393  0.4304510703844475  0.6197814826566908  1.0000
  H   H24       1.0  0.6271525079401462  0.4948582239636594  0.9058006999048187  1.0000
  H   H25       1.0  0.501901919734048  0.4516783710070147  0.90855741316732  1.0000
  H   H26       1.0  0.5281769229796007  0.1754725972080977  0.2411977795321676  1.0000
  H   H27       1.0  0.6536536682766563  0.21621570395146472  0.23770357072644654  1.0000
  H   H28       1.0  0.4180519234444671  0.18358948960689214  0.1163459801905391  1.0000
  H   H29       1.0  0.4070985894862621  0.298751741125562  0.9773479407807031  1.0000
  H   H30       1.0  0.347363559716469  0.35362547959080404  0.15625959589099403  1.0000
  Zn  Zn1       1.0  0.7583617762789869  0.4208495996647237  0.5669040665922445  1.0000
  Zn  Zn2       1.0  0.9106688939422054  0.4208459095853694  0.5668996798488939  1.0000
  C   C44       1.0  0.8345535771460496  0.41576565309924707  0.8041016966545296  1.0000
  C   C45       1.0  0.83447875649663  0.4259314949186044  0.32970217651915923  1.0000
  C   C46       1.0  0.8345450403978133  0.6580583387340482  0.5616274795601948  1.0000
  C   C47       1.0  0.8344872410815499  0.1836372488767144  0.572176463508618  1.0000
  O   O2        1.0  0.8922851596062178  0.42767995687020943  0.3780861200121417  1.0000
  O   O3        1.0  0.8923447520104243  0.4140134105125357  0.7557140502861768  1.0000
  O   O4        1.0  0.8923370795213117  0.6096678189128257  0.559914403893327  1.0000
  O   O5        1.0  0.8922927801091876  0.2320255577245427  0.5738856690270118  1.0000
  O   O6        1.0  0.7767378381370595  0.6096699515282207  0.5599180774087917  1.0000
  O   O7        1.0  0.7767455108145429  0.4140171035376896  0.755717653901183  1.0000
  O   O8        1.0  0.7766859182062263  0.4276836040318859  0.37808816223080743  1.0000
  O   O9        1.0  0.7766935387203937  0.23202919563426638  0.573887808618323  1.0000
