data_image0
_chemical_formula_structural       NC9NC5H8C12OCH12C12OCH12Zn2C4O8
_chemical_formula_sum              "N2 C44 H32 O10 Zn2"
_cell_length_a       17.807436237873137
_cell_length_b       10.29979075500242
_cell_length_c       10.299794127170987
_cell_angle_alpha    85.57270427699777
_cell_angle_beta     89.38603407784058
_cell_angle_gamma    88.37243818242351

_space_group_name_H-M_alt    "P 1"
_space_group_IT_number       1

loop_
  _space_group_symop_operation_xyz
  'x, y, z'

loop_
  _atom_site_type_symbol
  _atom_site_label
  _atom_site_symmetry_multiplicity
  _atom_site_fract_x
  _atom_site_fract_y
  _atom_site_fract_z
  _atom_site_occupancy
  N   N1        1.0  0.7072621510890953  0.38733585305451457  0.5570753565876119  1.0000
  C   C1        1.0  0.6466815973992254  0.35214275248807003  0.5460548866392834  1.0000
  C   C2        1.0  0.5713260469745399  0.3083664110453683  0.532346618608869  1.0000
  C   C3        1.0  0.5532543362542421  0.23692018396148473  0.4273543679111207  1.0000
  C   C4        1.0  0.48008801020049446  0.19430520878023905  0.4139619077107395  1.0000
  C   C5        1.0  0.423944745447995  0.22275892008608023  0.5055292798115114  1.0000
  C   C6        1.0  0.3461877759394733  0.17758511799413879  0.4913786239880591  1.0000
  C   C7        1.0  0.2839951937824449  0.2593492206016499  0.5173095121918185  1.0000
  C   C8        1.0  0.2106865979318469  0.21653121060822778  0.5039307496396723  1.0000
  C   C9        1.0  0.1474434246706673  0.3009867822619705  0.5302252979248108  1.0000
  N   N2        1.0  0.09660890274570441  0.3688832192197242  0.5513653887829377  1.0000
  C   C10       1.0  0.1989870868056225  0.09169110964241822  0.46459577199226065  1.0000
  C   C11       1.0  0.260322302158449  0.00991315221777822  0.43865649562389075  1.0000
  C   C12       1.0  0.3335115495298765  0.05233656011000454  0.45183276187509813  1.0000
  C   C13       1.0  0.4427077583241898  0.29469957989340423  0.6107407089171704  1.0000
  C   C14       1.0  0.5159269999061388  0.33712411417072996  0.6239775411803525  1.0000
  H   H1        1.0  0.5956580557494013  0.214413769473361  0.3556466265635114  1.0000
  H   H2        1.0  0.4671905380248925  0.14059833376880215  0.33104958519782657  1.0000
  H   H3        1.0  0.2924734470761626  0.35682294704801953  0.5461770606902716  1.0000
  H   H4        1.0  0.1425288052917675  0.05765182333681018  0.45400422547874797  1.0000
  H   H5        1.0  0.2511456394292355  0.9132591747351855  0.4085885187545979  1.0000
  H   H6        1.0  0.3801653135870409  0.9865856910093971  0.43279074464365896  1.0000
  H   H7        1.0  0.4010209277935083  0.31666732426791055  0.6837429379040338  1.0000
  H   H8        1.0  0.529352675212997  0.3920512724569538  0.7058481790991677  1.0000
  C   C15       1.0  0.9020066262720913  0.996738435420035  0.5542583007571598  1.0000
  C   C16       1.0  0.8802509555691896  0.9866403692012885  0.6860095771890036  1.0000
  C   C17       1.0  0.8691675763204625  0.864390133047786  0.7527366754144709  1.0000
  C   C18       1.0  0.880115989235729  0.7513644540568789  0.6859457743634136  1.0000
  C   C19       1.0  0.9018716266510363  0.7594703068227263  0.5541935659464787  1.0000
  C   C20       1.0  0.9126968745889619  0.8826043412894046  0.4890881980411914  1.0000
  C   C21       1.0  0.8461558860194782  0.8547608379278493  0.892123317091325  1.0000
  C   C22       1.0  0.7913368100417415  0.7665053573702212  0.9379908116843385  1.0000
  C   C23       1.0  0.7697464801179987  0.7577129488127635  0.06904067234574196  1.0000
  C   C24       1.0  0.8024891038928402  0.8365309852531253  0.1559047722931044  1.0000
  C   C25       1.0  0.8575080586951686  0.9253866035411298  0.11190596885411841  1.0000
  C   C26       1.0  0.8788655229545542  0.9338287129182623  0.9803328470057973  1.0000
  O   O1        1.0  0.8922287897586301  0.006464534464983851  0.19526147246169923  1.0000
  C   C27       1.0  0.876113308453353  0.00824332597358457  0.330827892070903  1.0000
  H   H9        1.0  0.9103293454412765  0.3280361572846566  0.5040762178132379  1.0000
  H   H10       1.0  0.870878884105434  0.07412481314911656  0.7365735393489561  1.0000
  H   H11       1.0  0.8726231918003321  0.6568336267666446  0.7374212475753472  1.0000
  H   H12       1.0  0.9294810335471472  0.8896261488604835  0.38744764626226535  1.0000
  H   H13       1.0  0.9101241370836851  0.4351093100490392  0.503974879219977  1.0000
  H   H14       1.0  0.7644702010851786  0.7055313858013743  0.872178240257564  1.0000
  H   H15       1.0  0.7273145771018268  0.6897632015387659  0.10334025256622426  1.0000
  H   H16       1.0  0.7846785402898431  0.8276533622251473  0.2568280792449731  1.0000
  H   H17       1.0  0.9219034912546109  0.0013239436222325374  0.9475371688547323  1.0000
  H   H18       1.0  0.8890875157181645  0.9111133422454621  0.38125794678158065  1.0000
  H   H19       1.0  0.9115621383429464  0.08121392657190696  0.3725204555855888  1.0000
  H   H20       1.0  0.8161388570896269  0.036000382097379546  0.34614228490059384  1.0000
  C   C28       1.0  0.901964474909013  0.37798970843344115  0.17287416255474586  1.0000
  C   C29       1.0  0.8283562025869474  0.3323558658949757  0.17676459806511224  1.0000
  C   C30       1.0  0.7910376313808315  0.30933640546075925  0.06158933893080243  1.0000
  C   C31       1.0  0.8283050874092366  0.33258475402341614  0.9414604362570951  1.0000
  C   C32       1.0  0.9019137802911681  0.37821908405537763  0.9355777326997585  1.0000
  C   C33       1.0  0.9383320594533568  0.4006631116863111  0.051810341779167324  1.0000
  C   C34       1.0  0.7131664010856855  0.261051188043127  0.06675986526225652  1.0000
  C   C35       1.0  0.6593755966368307  0.31226736764408236  0.9763961557012046  1.0000
  C   C36       1.0  0.5861887495689733  0.2668061957061456  0.9815250125053225  1.0000
  C   C37       1.0  0.5657288056863506  0.16984247812702113  0.0765203276496298  1.0000
  C   C38       1.0  0.6187786950527706  0.11725682386418002  0.1677576081373393  1.0000
  C   C39       1.0  0.6920675519174737  0.16335270385623724  0.16217582368778993  1.0000
  O   O2        1.0  0.6011128201910528  0.019521720256641784  0.26484695909907296  1.0000
  C   C40       1.0  0.5291109589311418  0.9636609146459053  0.2819452849957311  1.0000
  H   H21       1.0  0.9300223864797607  0.3953193748228694  0.4988491565340034  1.0000
  H   H22       1.0  0.7994969346145042  0.31629487482904683  0.26946637882789193  1.0000
  H   H23       1.0  0.8001466262124668  0.31332495163127905  0.8525436642831337  1.0000
  H   H24       1.0  0.995118063830129  0.43586684766308514  0.048040638394911905  1.0000
  H   H25       1.0  0.9299467117659139  0.395669728569648  0.6058790131306546  1.0000
  H   H26       1.0  0.6736494860748349  0.38865657102654794  0.9028613807846946  1.0000
  H   H27       1.0  0.5451066896575314  0.30714841759146716  0.9117862658895666  1.0000
  H   H28       1.0  0.5086609804782753  0.1365131217876976  0.07818885550293064  1.0000
  H   H29       1.0  0.732818757861381  0.1212761520078165  0.2317458091355169  1.0000
  H   H30       1.0  0.5136350146849162  0.9159388916456013  0.19331595022398207  1.0000
  H   H31       1.0  0.5310545975188797  0.8890933665018712  0.36559518174214545  1.0000
  H   H32       1.0  0.4863089769001395  0.039947406514599715  0.30284356386686806  1.0000
  Zn  Zn1       1.0  0.8196192121855099  0.3820073584826129  0.5554350939703463  1.0000
  Zn  Zn2       1.0  0.984251824616168  0.37420113077177297  0.5530163284306828  1.0000
  C   C41       1.0  0.901922580935445  0.37300208476808705  0.791410904720028  1.0000
  C   C42       1.0  0.9019502533506871  0.3832079579091594  0.31704061858991306  1.0000
  C   C43       1.0  0.9018936029710111  0.6152963994014873  0.5490309578168446  1.0000
  C   C44       1.0  0.9019791754091271  0.1409120856494237  0.5594206356863041  1.0000
  O   O3        1.0  0.9644226998961444  0.38199116159719937  0.3645062897758722  1.0000
  O   O4        1.0  0.964402478083807  0.3682931550312061  0.7421090727097286  1.0000
  O   O5        1.0  0.9643782356984651  0.5639489186684423  0.5463855629665766  1.0000
  O   O6        1.0  0.964446886108358  0.186335409884691  0.5602297029733001  1.0000
  O   O7        1.0  0.839424094512289  0.5698730820349884  0.5482217202463044  1.0000
  O   O8        1.0  0.8394483366225941  0.3742188786893821  0.7439451606148231  1.0000
  O   O9        1.0  0.8394685585967381  0.3879168395272852  0.36634081635347915  1.0000
  O   O10       1.0  0.8394927448010491  0.19226107855534313  0.5620643269152061  1.0000
