data_image0
_chemical_formula_structural       NC9NC5H8C12OCH12C12SCH12Zn2C4O8
_chemical_formula_sum              "N2 C44 H32 O9 S1 Zn2"
_cell_length_a       17.807436237873137
_cell_length_b       10.29979075500242
_cell_length_c       10.299780138516091
_cell_angle_alpha    85.57237843546018
_cell_angle_beta     89.38476460054896
_cell_angle_gamma    88.37243818242351

_space_group_name_H-M_alt    "P 1"
_space_group_IT_number       1

loop_
  _space_group_symop_operation_xyz
  'x, y, z'

loop_
  _atom_site_type_symbol
  _atom_site_label
  _atom_site_symmetry_multiplicity
  _atom_site_fract_x
  _atom_site_fract_y
  _atom_site_fract_z
  _atom_site_occupancy
  N   N1        1.0  0.707280526473531  0.38734320226828656  0.5570724887632688  1.0000
  C   C1        1.0  0.6467001131273533  0.35215015783213954  0.5460519969116673  1.0000
  C   C2        1.0  0.5713447372749826  0.3083738862094332  0.53234370163596  1.0000
  C   C3        1.0  0.5532743636120137  0.23692819388008335  0.4273512422652681  1.0000
  C   C4        1.0  0.4801082081088248  0.19431328691033656  0.413958755447265  1.0000
  C   C5        1.0  0.4239637772623983  0.222766531838259  0.5055263095389257  1.0000
  C   C6        1.0  0.3462069879599199  0.17759280181951675  0.49137562559093073  1.0000
  C   C7        1.0  0.2840140755777189  0.25935677235385146  0.5173065653325397  1.0000
  C   C8        1.0  0.210705650103243  0.21653883050216227  0.5039277761899947  1.0000
  C   C9        1.0  0.1474621419857454  0.300994268230508  0.5302223767357594  1.0000
  N   N2        1.0  0.0966273508455477  0.36889059751593956  0.5513625096099875  1.0000
  C   C10       1.0  0.1990066399008467  0.09169892988025907  0.46459272036399857  1.0000
  C   C11       1.0  0.2603421855856676  0.009921104571518846  0.438653392441108  1.0000
  C   C12       1.0  0.3335312651597268  0.05234444535338145  0.45182968488025055  1.0000
  C   C13       1.0  0.442725450290067  0.29470665577471333  0.6107379477531467  1.0000
  C   C14       1.0  0.5159445233033504  0.3371311226331961  0.6239748063246395  1.0000
  H   H1        1.0  0.5956789962922932  0.21442214461929354  0.35564335839794614  1.0000
  H   H2        1.0  0.46721179180665884  0.14060683419426034  0.33104626814544313  1.0000
  H   H3        1.0  0.2924919612484261  0.3568303517698228  0.5461741712054775  1.0000
  H   H4        1.0  0.1425484932684214  0.05765969752032296  0.45400115279970255  1.0000
  H   H5        1.0  0.2511659057667029  0.9132672802334373  0.40858535581146915  1.0000
  H   H6        1.0  0.3801852717135376  0.9865936732390272  0.43278762980264895  1.0000
  H   H7        1.0  0.401037690089199  0.31667402832870306  0.683740321832528  1.0000
  H   H8        1.0  0.529369156002438  0.39205786392964703  0.7058456069620072  1.0000
  C   C15       1.0  0.9020250375312238  0.9967457989818506  0.5542554273338955  1.0000
  C   C16       1.0  0.8802676889996389  0.9866470617174609  0.6860069656224614  1.0000
  C   C17       1.0  0.8691834599933809  0.8643964857044161  0.7527341964685736  1.0000
  C   C18       1.0  0.8801327234786956  0.7513711468980168  0.6859431626700632  1.0000
  C   C19       1.0  0.901890038734555  0.759477670714254  0.5541906923945534  1.0000
  C   C20       1.0  0.9127161157775688  0.8826120367805543  0.48908519509182313  1.0000
  C   C21       1.0  0.8461699946287177  0.8547664806498116  0.8921211151774999  1.0000
  C   C22       1.0  0.7913503345367306  0.7665107664763642  0.9379887009325283  1.0000
  C   C23       1.0  0.7697583357167077  0.7577176904457676  0.06903882205658451  1.0000
  C   C24       1.0  0.8024998532929425  0.8365352844632749  0.155903094647045  1.0000
  C   C25       1.0  0.8575193684120771  0.9253911268493386  0.11190420376008303  1.0000
  C   C26       1.0  0.8788785082313795  0.933833906364724  0.9803308204091232  1.0000
  O   O1        1.0  0.8922390379582719  0.006468633220588771  0.195259873037398  1.0000
  C   C27       1.0  0.8761218302391531  0.00824673425196809  0.33082656208595196  1.0000
  H   H9        1.0  0.9103483957601618  0.32804377643768157  0.5040732446526797  1.0000
  H   H10       1.0  0.8708949736129675  0.07413124812906302  0.7365710282786955  1.0000
  H   H11       1.0  0.8726392705124548  0.6568400574289789  0.7374187381899135  1.0000
  H   H12       1.0  0.9295015691098031  0.8896343620350384  0.3874444413014828  1.0000
  H   H13       1.0  0.9101431886930991  0.43511692971820964  0.5039719058580074  1.0000
  H   H14       1.0  0.7644845636913653  0.7055371301091224  0.8721759987027384  1.0000
  H   H15       1.0  0.7273259959015835  0.689767768474534  0.10333847044775868  1.0000
  H   H16       1.0  0.7846880044498796  0.8276571474050176  0.2568266021847987  1.0000
  H   H17       1.0  0.9219168941784674  0.0013293041061415156  0.9475350770763835  1.0000
  H   H18       1.0  0.8890953952863361  0.9111164936696476  0.38125671702676955  1.0000
  H   H19       1.0  0.9115701291814887  0.08121712249854829  0.3725192084649436  1.0000
  H   H20       1.0  0.8161471838494032  0.03600371237533051  0.346140985353122  1.0000
  C   C28       1.0  0.9019877430261866  0.3779990144900178  0.17287053112743678  1.0000
  C   C29       1.0  0.83056616821208  0.3233725920774264  0.17741744718819796  1.0000
  C   C30       1.0  0.794346546735947  0.29580862459734814  0.06257491525426917  1.0000
  C   C31       1.0  0.8305046225916177  0.32360094717175714  0.9421144335832898  1.0000
  C   C32       1.0  0.9019273180655478  0.37822449299877414  0.9355756630372909  1.0000
  C   C33       1.0  0.9372688978015257  0.405118431496706  0.05148260537329885  1.0000
  C   C34       1.0  0.7187874771698769  0.2380335248491947  0.0684479942216547  1.0000
  C   C35       1.0  0.6631405427737743  0.28233167910879775  0.9783039641172961  1.0000
  C   C36       1.0  0.592040819900646  0.22792287581130322  0.9840679753569037  1.0000
  C   C37       1.0  0.575550952305065  0.12889491632522776  0.07988125933350876  1.0000
  C   C38       1.0  0.6305294093256971  0.0838295134473035  0.16962951231649526  1.0000
  C   C39       1.0  0.7016756411724958  0.1380626832404075  0.1642272420813624  1.0000
  S   S1        1.0  0.48435107303549996  0.05894627887575332  0.0868266200464225  1.0000
  C   C40       1.0  0.4458044062699624  0.17498801836328748  0.19611089913993873  1.0000
  H   H21       1.0  0.9292135964442821  0.39876614072408145  0.4985948007618879  1.0000
  H   H22       1.0  0.8024934168180469  0.3037808152175667  0.2703803213602063  1.0000
  H   H23       1.0  0.8032657662822194  0.30089057466257674  0.8534437916298492  1.0000
  H   H24       1.0  0.9923677773618163  0.4472595992393291  0.047206478620036574  1.0000
  H   H25       1.0  0.9291259824553949  0.39909775583566587  0.6056264882926037  1.0000
  H   H26       1.0  0.6742980246120486  0.36017043751752165  0.9044552300673101  1.0000
  H   H27       1.0  0.5497051402733524  0.26326248418560194  0.9143546287915316  1.0000
  H   H28       1.0  0.6182235597797394  0.006741152837498765  0.24361989140256823  1.0000
  H   H29       1.0  0.7436074798913064  0.10069123284024784  0.23384587529014556  1.0000
  H   H30       1.0  0.4775735761939764  0.16745227577239508  0.28865962805946954  1.0000
  H   H31       1.0  0.3861897891544581  0.15268470605976825  0.2177597165209213  1.0000
  H   H32       1.0  0.4486905539662119  0.27557290630565734  0.14946847593688894  1.0000
  Zn  Zn1       1.0  0.8196376084583934  0.3820147160506955  0.555432222885968  1.0000
  Zn  Zn2       1.0  0.9842702516915934  0.3742085006592961  0.5530134525389887  1.0000
  C   C41       1.0  0.9019379720990457  0.37300824044618497  0.7914085026394728  1.0000
  C   C42       1.0  0.9019716855341101  0.38321652968615405  0.3170372736945961  1.0000
  C   C43       1.0  0.9019120807994105  0.6153037895876043  0.5490280740041942  1.0000
  C   C44       1.0  0.9019975209268575  0.14091942291804127  0.5594177725232221  1.0000
  O   O2        1.0  0.9644435276128271  0.3819994916184202  0.3645030392189583  1.0000
  O   O3        1.0  0.9644184970973242  0.3682995618171523  0.7421065726413856  1.0000
  O   O4        1.0  0.9643967472154898  0.563956322328286  0.5463826738961828  1.0000
  O   O5        1.0  0.9644652213227629  0.18634274303250575  0.5602268414182454  1.0000
  O   O6        1.0  0.8394425826461829  0.5698804763427758  0.5482188348252877  1.0000
  O   O7        1.0  0.8394643322538639  0.3742252761236251  0.7439426641957199  1.0000
  O   O8        1.0  0.8394893629510566  0.3879251602047551  0.3663375694427018  1.0000
  O   O9        1.0  0.8395110566518499  0.1922684023589114  0.5620614690064816  1.0000
