data_image0
_chemical_formula_structural       NC10NC5H10C12SCH12C13NH13Zn2C4O8
_chemical_formula_sum              "N3 C45 H35 S1 Zn2 O8"
_cell_length_a       19.4436361288709
_cell_length_b       10.299776766347529
_cell_length_c       10.299780419254978
_cell_angle_alpha    85.57449051580876
_cell_angle_beta     89.69141269769756
_cell_angle_gamma    89.39962546058797

_space_group_name_H-M_alt    "P 1"
_space_group_IT_number       1

loop_
  _space_group_symop_operation_xyz
  'x, y, z'

loop_
  _atom_site_type_symbol
  _atom_site_label
  _atom_site_symmetry_multiplicity
  _atom_site_fract_x
  _atom_site_fract_y
  _atom_site_fract_z
  _atom_site_occupancy
  N   N1        1.0  0.6475801650905396  0.4089868970337631  0.5622138339180001  1.0000
  C   C1        1.0  0.5887416051412488  0.41888922564593356  0.5765977789992085  1.0000
  C   C2        1.0  0.5154090446271098  0.43123875887104735  0.5945900571726892  1.0000
  C   C3        1.0  0.4732368259569669  0.3992386498032343  0.4999181327272353  1.0000
  C   C4        1.0  0.3973299949603588  0.4096770190058041  0.5052465310964007  1.0000
  C   C5        1.0  0.3575880410739415  0.3849334318478099  0.6123139372416133  1.0000
  C   C6        1.0  0.281467658327671  0.38884951844559335  0.5993552115267673  1.0000
  C   C7        1.0  0.2408885438918959  0.446513698193165  0.6931253721350055  1.0000
  C   C8        1.0  0.1692252018673533  0.4501510132989688  0.6825820250721648  1.0000
  C   C9        1.0  0.1371462688844584  0.3957281525745753  0.5785550144311202  1.0000
  C   C10       1.0  0.0633536816828871  0.3994267044015387  0.567856393899081  1.0000
  N   N2        1.0  0.0040294466286146  0.4024001459995392  0.5592554122997908  1.0000
  C   C11       1.0  0.1770005905201729  0.3373569048831102  0.4851680404467371  1.0000
  C   C12       1.0  0.248680387613793  0.33366535698934197  0.49545961638904057  1.0000
  C   C13       1.0  0.38571926250995514  0.34447804240278335  0.7434019145233128  1.0000
  C   C14       1.0  0.44437220504110614  0.3876011758257738  0.7906448459337871  1.0000
  C   C15       1.0  0.4885674508999062  0.48545543496735966  0.7162848690327028  1.0000
  H   H1        1.0  0.4953468992825488  0.3701185257785127  0.40961310157816766  1.0000
  H   H2        1.0  0.3726338050333004  0.4321679376499796  0.41209260288862737  1.0000
  H   H3        1.0  0.2647460868548621  0.48980708907452986  0.7739729448714412  1.0000
  H   H4        1.0  0.1388676497944761  0.49546781079377533  0.7555025140861131  1.0000
  H   H5        1.0  0.15267110873143644  0.29425918164147524  0.40465494837386573  1.0000
  H   H6        1.0  0.2783726688467909  0.28610522291539175  0.4232353253584351  1.0000
  H   H7        1.0  0.3547607482528523  0.2802641357172957  0.8076433801625424  1.0000
  H   H8        1.0  0.4595215997456091  0.3535380062856279  0.8885741212634175  1.0000
  H   H9        1.0  0.4584442893100724  0.5761676716142741  0.6910383168379453  1.0000
  H   H10       1.0  0.5318439011184072  0.5110434726359565  0.7793688591779757  1.0000
  C   C16       1.0  0.8258729461153906  0.0243271286785256  0.5607324873282582  1.0000
  C   C17       1.0  0.8299891851770238  0.012718902967099543  0.697206128880157  1.0000
  C   C18       1.0  0.8320086958136917  0.88969952643169  0.7663643172801655  1.0000
  C   C19       1.0  0.8298576676112213  0.777433560158533  0.6972224100705691  1.0000
  C   C20       1.0  0.8257432655704654  0.7870498042508995  0.5607480039235264  1.0000
  C   C21       1.0  0.8237735492857589  0.9109351840955007  0.4932669913547809  1.0000
  C   C22       1.0  0.8363556326200172  0.8784833796107107  0.9107380945055772  1.0000
  C   C23       1.0  0.7969828065509383  0.7857665693234064  0.9851042582794824  1.0000
  C   C24       1.0  0.8010944397235245  0.7754449360048059  0.12097337597930036  1.0000
  C   C25       1.0  0.844407191372712  0.8575651093642965  0.18428434671227578  1.0000
  C   C26       1.0  0.8839439828338322  0.9497054007496679  0.11128982567473666  1.0000
  C   C27       1.0  0.8799332042362896  0.9603750569051093  0.9754094563872375  1.0000
  S   S1        1.0  0.849758828254886  0.8438590945517861  0.35862248827103127  1.0000
  C   C28       1.0  0.780642191051257  0.9612023417314239  0.3787239697452571  1.0000
  H   H11       1.0  0.8243315310565387  0.35620337156128734  0.5087296102696739  1.0000
  H   H12       1.0  0.8306856945170742  0.09954859655633719  0.7501563170276659  1.0000
  H   H13       1.0  0.8323475535874654  0.6823852641791223  0.7499615863508229  1.0000
  H   H14       1.0  0.8205985161246596  0.9191219396782139  0.3879833758325071  1.0000
  H   H15       1.0  0.8241411529146022  0.4632608956081621  0.508750296184358  1.0000
  H   H16       1.0  0.7623653551439377  0.722431961351848  0.9382795415934979  1.0000
  H   H17       1.0  0.7703370281762593  0.7039631056395337  0.17694766014025232  1.0000
  H   H18       1.0  0.9178292247036032  0.01310975948778359  0.15970948301453225  1.0000
  H   H19       1.0  0.9115585177173258  0.03147220544883611  0.920840948690026  1.0000
  H   H20       1.0  0.7944168940752214  0.057266899760941126  0.3297341685658036  1.0000
  H   H21       1.0  0.7726595096677858  0.9720520945071567  0.48406480288972464  1.0000
  H   H22       1.0  0.7322496880999981  0.9265549296200746  0.3370053973676197  1.0000
  C   C29       1.0  0.825854943203197  0.4056027311191679  0.1793856899197135  1.0000
  C   C30       1.0  0.875635091034506  0.50371102213146  0.17031283896751415  1.0000
  C   C31       1.0  0.9008060375324964  0.5535195345094313  0.04857207550938414  1.0000
  C   C32       1.0  0.8755405985677396  0.5038849991675214  0.9350134506037655  1.0000
  C   C33       1.0  0.825761268253973  0.4057741737281173  0.9420947413708856  1.0000
  C   C34       1.0  0.80119529868088  0.35718589347150953  0.06473292925392382  1.0000
  C   C35       1.0  0.9534714790841243  0.6573070641746368  0.040065335469634755  1.0000
  C   C36       1.0  0.9488042348811102  0.7619699238864674  0.9442797514506145  1.0000
  C   C37       1.0  0.9983964595169396  0.8595691506939025  0.9363585019464162  1.0000
  C   C38       1.0  0.05322309131501046  0.8548529639354845  0.02457786663267303  1.0000
  C   C39       1.0  0.05854972355313448  0.7498990849374059  0.11930120022665425  1.0000
  C   C40       1.0  0.00897172417353409  0.6522748965315834  0.1273951018712376  1.0000
  C   C41       1.0  0.10751790657257887  0.9580663859699481  0.013673774563840224  1.0000
  N   N3        1.0  0.1602491732208744  0.9244403780837804  0.920357631198625  1.0000
  H   H23       1.0  0.8069143361895746  0.3681714995455738  0.5102994567209445  1.0000
  H   H24       1.0  0.8942723371664092  0.542872091991548  0.2580287847739282  1.0000
  H   H25       1.0  0.8954728448625279  0.5406712932699491  0.8410412261989673  1.0000
  H   H26       1.0  0.7627924106712662  0.2814987635646429  0.07096365464087118  1.0000
  H   H27       1.0  0.8067800070196056  0.36841268753144796  0.6173378370468505  1.0000
  H   H28       1.0  0.906385037836947  0.7691001281222436  0.8763302282221339  1.0000
  H   H29       1.0  0.993953099307066  0.9390505522446371  0.8615576198927473  1.0000
  H   H30       1.0  0.10122420628914353  0.7434164159996413  0.18672209264034478  1.0000
  H   H31       1.0  0.014614000271750749  0.5717541928352894  0.20072012664677374  1.0000
  H   H32       1.0  0.08373644177647033  0.05353137538979791  0.980592412786208  1.0000
  H   H33       1.0  0.13123501160973672  0.9689383477004767  0.11033383071225655  1.0000
  H   H34       1.0  0.19494364093655325  0.0014899443714488925  0.9101316375344655  1.0000
  H   H35       1.0  0.18785621335816205  0.8436276842023682  0.9608994563933537  1.0000
  Zn  Zn1       1.0  0.750443728948593  0.4070826333098536  0.5613676091300712  1.0000
  Zn  Zn2       1.0  0.9011658747774647  0.40429380451351715  0.5601123176495868  1.0000
  C   C42       1.0  0.8257783010349847  0.4005681813548383  0.7979263371789165  1.0000
  C   C43       1.0  0.8258329482779102  0.41080986465175595  0.3235537033879339  1.0000
  C   C44       1.0  0.8257648550880631  0.6428778912771411  0.5555701057488318  1.0000
  C   C45       1.0  0.8258463430507249  0.1684985954046352  0.5659100044506855  1.0000
  O   O1        1.0  0.8830238363905187  0.41149341453587596  0.3714614290090008  1.0000
  O   O2        1.0  0.882982034345959  0.39776699514348746  0.7490655005177786  1.0000
  O   O3        1.0  0.882970405347864  0.5934351649008778  0.5533611353767482  1.0000
  O   O4        1.0  0.8830354139677375  0.21582525499839056  0.5671656972075672  1.0000
  O   O5        1.0  0.7685741383242496  0.5955511837780829  0.5543142299936294  1.0000
  O   O6        1.0  0.768585767062381  0.399884574298613  0.7500185259235308  1.0000
  O   O7        1.0  0.7686275693521892  0.413610948083462  0.3724128930716011  1.0000
  O   O8        1.0  0.7686391469162137  0.21794277927917394  0.5681172586341701  1.0000
