data_image0
_chemical_formula_structural       NC10NC3NH7C12NCOCH13C12IH9Zn2C4O8
_chemical_formula_sum              "N4 C43 H29 O9 I1 Zn2"
_cell_length_a       19.210446455230148
_cell_length_b       10.299155265289647
_cell_length_c       10.29977335064465
_cell_angle_alpha    85.52787819197464
_cell_angle_beta     89.99988081382295
_cell_angle_gamma    89.9251083167036

_space_group_name_H-M_alt    "P 1"
_space_group_IT_number       1

loop_
  _space_group_symop_operation_xyz
  'x, y, z'

loop_
  _atom_site_type_symbol
  _atom_site_label
  _atom_site_symmetry_multiplicity
  _atom_site_fract_x
  _atom_site_fract_y
  _atom_site_fract_z
  _atom_site_occupancy
  N   N1        1.0  0.6550505914251447  0.42070365101035323  0.5669702295440506  1.0000
  C   C1        1.0  0.5948214329558597  0.42291122695740246  0.5672008271470286  1.0000
  C   C2        1.0  0.5200162381599925  0.4256482169476261  0.5674865082859426  1.0000
  C   C3        1.0  0.4843735316601528  0.5418810144021393  0.5825692900307617  1.0000
  C   C4        1.0  0.4117080026631521  0.5420325765025245  0.5825166551277452  1.0000
  C   C5        1.0  0.3748492886530104  0.4263571994864128  0.5675728145552792  1.0000
  C   C6        1.0  0.2975275356028935  0.42500068913269273  0.5674225609439012  1.0000
  C   C7        1.0  0.2597365531628221  0.5285966162038109  0.5040352461305302  1.0000
  C   C8        1.0  0.1869585917048589  0.5271943353962301  0.5039265214948068  1.0000
  C   C9        1.0  0.1509701216640479  0.4224536680098354  0.5671540509378588  1.0000
  C   C10       1.0  0.0760409636160416  0.4211515507315422  0.5670175470137979  1.0000
  N   N2        1.0  0.0158034023680291  0.4201046042178209  0.5669078327456127  1.0000
  C   C11       1.0  0.1880374075490566  0.3189834484850733  0.6305163260888265  1.0000
  C   C12       1.0  0.260817302715604  0.32011142978304274  0.6306753646736178  1.0000
  C   C13       1.0  0.4131013615410694  0.31194467805477233  0.5527777428894227  1.0000
  N   N3        1.0  0.48387061876555704  0.31438974703941325  0.5529426960569923  1.0000
  H   H1        1.0  0.512449896747521  0.6313162394538832  0.5945953923692997  1.0000
  H   H2        1.0  0.3844145339954174  0.6320492755870553  0.5959373299808985  1.0000
  H   H3        1.0  0.2864345478454012  0.6098703280268634  0.45302459769287373  1.0000
  H   H4        1.0  0.1587832816685038  0.607639887362664  0.4542464669673991  1.0000
  H   H5        1.0  0.1606996544291805  0.23757447308842217  0.6800971363406865  1.0000
  H   H6        1.0  0.2883478650666153  0.2397846319302177  0.6817931096313277  1.0000
  H   H7        1.0  0.386860881648634  0.22106502128478867  0.5393110361359308  1.0000
  C   C14       1.0  0.8355080794734656  0.039006488745390255  0.5670577238013639  1.0000
  C   C15       1.0  0.8236055487934293  0.04877657907306632  0.4321351603661785  1.0000
  C   C16       1.0  0.8175032882820984  0.9365926932730045  0.3636088667166013  1.0000
  C   C17       1.0  0.823439082469519  0.8135172005051916  0.43182740563081734  1.0000
  C   C18       1.0  0.835352590153486  0.8017918277603724  0.5668315573919265  1.0000
  C   C19       1.0  0.8413168415306244  0.9150541353098524  0.6336155739519924  1.0000
  C   C20       1.0  0.8049127073345379  0.9479019370099071  0.22087708626612068  1.0000
  C   C21       1.0  0.8402077178143532  0.041984550172462054  0.13945372550865587  1.0000
  C   C22       1.0  0.8283648792885095  0.052496406879358526  0.005133608179380689  1.0000
  C   C23       1.0  0.7814230454485259  0.9682527816901043  0.9493913993223622  1.0000
  C   C24       1.0  0.7452777518955832  0.8759878913265015  0.030746747975033628  1.0000
  C   C25       1.0  0.7571459400760836  0.86521998700583  0.16502952561051787  1.0000
  N   N4        1.0  0.7673398211260959  0.9785683705915663  0.8118333548805281  1.0000
  C   C26       1.0  0.8181580646950481  0.015457062543825284  0.7136072485381142  1.0000
  O   O1        1.0  0.8820194975787617  0.01787496767601282  0.7414545025377972  1.0000
  C   C27       1.0  0.7959391779465574  0.04199226737438644  0.5750717826409142  1.0000
  H   H8        1.0  0.8401079081291161  0.3627246472242567  0.6189490149324182  1.0000
  H   H9        1.0  0.8180936687650688  0.14385010806358411  0.3803266928971587  1.0000
  H   H10       1.0  0.8196899907470816  0.7267439286514494  0.37919982562053134  1.0000
  H   H11       1.0  0.8504998554966328  0.906803391640372  0.7376837208289246  1.0000
  H   H12       1.0  0.8582555204746625  0.5723768395185933  0.8215139419867274  1.0000
  H   H13       1.0  0.8773815511228438  0.10695627026568544  0.17953944756991347  1.0000
  H   H14       1.0  0.8550641119438779  0.1279298805147815  0.9455488058003194  1.0000
  H   H15       1.0  0.7080370402951108  0.8117206552298798  0.9897940051813228  1.0000
  H   H16       1.0  0.7282100333889114  0.7934062654681914  0.2254476587755867  1.0000
  H   H17       1.0  0.7183089381918183  0.9497927693574542  0.7807685221877567  1.0000
  H   H18       1.0  0.7456909758721527  0.09552302858286432  0.5706268523089708  1.0000
  H   H19       1.0  0.7894939101933759  0.9484101651378255  0.5298490184827362  1.0000
  H   H20       1.0  0.8355615861694075  0.10203836140192046  0.5196698727371363  1.0000
  C   C28       1.0  0.8353971151418066  0.4205052815782633  0.18557542698677199  1.0000
  C   C29       1.0  0.8984835309193395  0.48940922587375946  0.17920683908426915  1.0000
  C   C30       1.0  0.9304834041998247  0.5242155025657933  0.05884981576035231  1.0000
  C   C31       1.0  0.8985505329363552  0.48919494200715286  0.943937277632823  1.0000
  C   C32       1.0  0.8354635337824979  0.4202930037772896  0.9483139068398478  1.0000
  C   C33       1.0  0.8042403558649829  0.38633293848279004  0.06960098337550469  1.0000
  C   C34       1.0  0.9972232962603796  0.5971078066777085  0.05316639961997116  1.0000
  C   C35       1.0  0.008152356728570842  0.7001165098410551  0.13294458194276415  1.0000
  C   C36       1.0  0.07100439670463388  0.76860954278659  0.12739354413299275  1.0000
  C   C37       1.0  0.12362590957949071  0.7351600493883497  0.04240498666962211  1.0000
  C   C38       1.0  0.1133681317556039  0.6330364956964389  0.9627691660450308  1.0000
  C   C39       1.0  0.05058675398586843  0.564317356507045  0.967914316997037  1.0000
  I   I1        1.0  0.21838403688885677  0.8386493082219744  0.03433962211400177  1.0000
  H   H21       1.0  0.8113380806026645  0.3943147934366751  0.5154506214153274  1.0000
  H   H22       1.0  0.9233700464057923  0.5146167876108307  0.2681719146998158  1.0000
  H   H23       1.0  0.9225176668662753  0.5173449765490683  0.8508119724720777  1.0000
  H   H24       1.0  0.755571667190293  0.33317781911819555  0.07374569928517904  1.0000
  H   H25       1.0  0.8114353478343483  0.3940024669188491  0.6225308575003052  1.0000
  H   H26       1.0  0.9677828537481875  0.7287636037539866  0.19833379020588526  1.0000
  H   H27       1.0  0.07869206216668578  0.8478796875037706  0.18895457083778933  1.0000
  H   H28       1.0  0.15407905214670925  0.6066252314961491  0.8970880949056577  1.0000
  H   H29       1.0  0.04410886512367518  0.4845042756717346  0.9065141514123862  1.0000
  Zn  Zn1       1.0  0.7591560604933267  0.4205273126446214  0.5669597232762127  1.0000
  Zn  Zn2       1.0  0.9116979204436503  0.4202703562787302  0.5669289779369802  1.0000
  C   C40       1.0  0.8354504776791318  0.41515906056297647  0.8041415060453045  1.0000
  C   C41       1.0  0.8354051686872125  0.425640244261968  0.32974732181284905  1.0000
  C   C42       1.0  0.8353779280650833  0.6576105802551055  0.5616991451948801  1.0000
  C   C43       1.0  0.8354776665735465  0.18318716421812975  0.5721897523750834  1.0000
  O   O2        1.0  0.8932967135583757  0.42726040487713624  0.37812106072690166  1.0000
  O   O3        1.0  0.8933346750990908  0.4133428963194019  0.7557440585743271  1.0000
  O   O4        1.0  0.8932753101165517  0.6091255656274541  0.5599701366245879  1.0000
  O   O5        1.0  0.8933560264783378  0.23147774497478846  0.5738948853096315  1.0000
  O   O6        1.0  0.7774979024035878  0.6093199240376657  0.5599938159072217  1.0000
  O   O7        1.0  0.7775572670587906  0.4135388151704251  0.7557676681488104  1.0000
  O   O8        1.0  0.7775193054376405  0.4274562789032663  0.3781431089128531  1.0000
  O   O9        1.0  0.7775786183651282  0.23167360968431683  0.5739170308662527  1.0000
