data_image0
_chemical_formula_structural       NC8NC6H8C16H10C12NH11Zn2C4O8
_chemical_formula_sum              "N3 C46 H29 Zn2 O8"
_cell_length_a       17.457602349358154
_cell_length_b       10.29914801576943
_cell_length_c       10.299774167527174
_cell_angle_alpha    85.55390253719857
_cell_angle_beta     92.86883644785563
_cell_angle_gamma    91.70309287404056

_space_group_name_H-M_alt    "P 1"
_space_group_IT_number       1

loop_
  _space_group_symop_operation_xyz
  'x, y, z'

loop_
  _atom_site_type_symbol
  _atom_site_label
  _atom_site_symmetry_multiplicity
  _atom_site_fract_x
  _atom_site_fract_y
  _atom_site_fract_z
  _atom_site_occupancy
  N   N1        1.0  0.722727044297799  0.4525508339633362  0.6259806205639336  1.0000
  C   C1        1.0  0.6616432577097832  0.406618569241465  0.6153841360397598  1.0000
  C   C2        1.0  0.5856524443273704  0.34948454961133124  0.6022116484565252  1.0000
  C   C3        1.0  0.5271244479246245  0.3896719361469827  0.6770893003145189  1.0000
  C   C4        1.0  0.4525719787507998  0.3346565411697271  0.6645303572828587  1.0000
  C   C5        1.0  0.3904531050227826  0.377088572962597  0.7438286826000693  1.0000
  C   C6        1.0  0.3159129002974179  0.39554208912951716  0.6880603649841912  1.0000
  C   C7        1.0  0.2573848673197559  0.4355455663805208  0.7630460402352262  1.0000
  C   C8        1.0  0.18140674556452194  0.45460433330182126  0.7050621227737777  1.0000
  N   N2        1.0  0.12033325125629442  0.46992120171024654  0.6584432067759236  1.0000
  C   C9        1.0  0.2729048764257104  0.45733883976883494  0.8943084267705597  1.0000
  C   C10       1.0  0.3466604063651747  0.4392744578510832  0.950464165016977  1.0000
  C   C11       1.0  0.4051768289199578  0.39945118537135693  0.8759361153424592  1.0000
  C   C12       1.0  0.4378361527461688  0.2387758595236411  0.5756611887719867  1.0000
  C   C13       1.0  0.49635244357542496  0.19886729480416032  0.5011834071081482  1.0000
  C   C14       1.0  0.5701201255845838  0.2539952372914336  0.5142922272936106  1.0000
  H   H1        1.0  0.5394747045858901  0.4648923482360081  0.7436861070501066  1.0000
  H   H2        1.0  0.3035727309357155  0.38054042394408616  0.5860469658055651  1.0000
  H   H3        1.0  0.2280443058094237  0.48824160854955045  0.9531288024278517  1.0000
  H   H4        1.0  0.3584871133853323  0.4558338061180698  0.05210368689042788  1.0000
  H   H5        1.0  0.4616571426714123  0.3844717051127533  0.9220464296061626  1.0000
  H   H6        1.0  0.3813457311319158  0.1934333025674313  0.5650283487391616  1.0000
  H   H7        1.0  0.4845162386018224  0.12476308580024553  0.43338788248605487  1.0000
  H   H8        1.0  0.6149805805611973  0.2222228472565264  0.4559833061895471  1.0000
  C   C15       1.0  0.9214791709186447  0.07983244920378096  0.6423732938868769  1.0000
  C   C16       1.0  0.9039709475306126  0.08862755709370096  0.5074759845028898  1.0000
  C   C17       1.0  0.8951502966456681  0.9759595186124561  0.43892019289097384  1.0000
  C   C18       1.0  0.9040733899520513  0.8533800997774738  0.5070797767012629  1.0000
  C   C19       1.0  0.9215884461579871  0.8426298728914463  0.6420623929527858  1.0000
  C   C20       1.0  0.930184864294279  0.9563673351787225  0.7088781303943856  1.0000
  C   C21       1.0  0.8766288971738685  0.9863092959983013  0.2962151236814403  1.0000
  C   C22       1.0  0.9129329363504882  0.9068854414785261  0.2139653917714548  1.0000
  C   C23       1.0  0.8954744305804163  0.9167503010816352  0.07965468701210177  1.0000
  C   C24       1.0  0.8415326490584316  0.005930969312462064  0.025774908009122077  1.0000
  C   C25       1.0  0.8050888044405458  0.0853286581808348  0.10672934358538977  1.0000
  C   C26       1.0  0.8224926080767346  0.07570268058355634  0.24105652780132902  1.0000
  C   C27       1.0  0.8235874143141078  0.015964380494963848  0.8874918994479857  1.0000
  C   C28       1.0  0.8085584736346884  0.024367267529084913  0.7716818748658856  1.0000
  C   C29       1.0  0.7909597615902816  0.034206933700170916  0.6360695189944527  1.0000
  C   C30       1.0  0.7759333432545508  0.04260855913251582  0.5202782072627103  1.0000
  H   H9        1.0  0.9281741267413876  0.40392235411449673  0.694271449354942  1.0000
  H   H10       1.0  0.8981868218409123  0.18341509175872472  0.45509604222192057  1.0000
  H   H11       1.0  0.8963089612708666  0.7661326809007482  0.4550327112723238  1.0000
  H   H12       1.0  0.943687162345228  0.9488674541982839  0.8129285601404519  1.0000
  H   H13       1.0  0.9541720728242871  0.615012114698638  0.8969744430636968  1.0000
  H   H14       1.0  0.9555493442955444  0.8383529880477667  0.25329285837568727  1.0000
  H   H15       1.0  0.9241821855975568  0.8550628802506876  0.017826628049733673  1.0000
  H   H16       1.0  0.7630827162932204  0.15445172828123366  0.06608187683929012  1.0000
  H   H17       1.0  0.7928905519862868  0.13696099113615823  0.30200882102447335  1.0000
  H   H18       1.0  0.7627389382421372  0.04998589857795266  0.41860367667552456  1.0000
  C   C31       1.0  0.9215598993193146  0.4611177769668857  0.2608679170599346  1.0000
  C   C32       1.0  0.8464143421938192  0.4085287842839882  0.25757409250995944  1.0000
  C   C33       1.0  0.8083106479542521  0.3819961801762184  0.13875502586611876  1.0000
  C   C34       1.0  0.8463616675519394  0.40875780390964245  0.022264983851263187  1.0000
  C   C35       1.0  0.9215077123810957  0.4613445912112708  0.0235677047916778  1.0000
  C   C36       1.0  0.95868590760629  0.4872305954478735  0.14335411645276097  1.0000
  C   C37       1.0  0.728811003794974  0.32636064062665526  0.13632369880902306  1.0000
  C   C38       1.0  0.7072352410878834  0.22695576569078635  0.22990217099105958  1.0000
  C   C39       1.0  0.6324066206175155  0.17464696935931734  0.22747978796252544  1.0000
  C   C40       1.0  0.5779700609413565  0.22079861323484318  0.13171036150551174  1.0000
  C   C41       1.0  0.5990394951945562  0.31979117399255963  0.03825007840676986  1.0000
  C   C42       1.0  0.6738450928209406  0.3722002350317313  0.040404259166772816  1.0000
  N   N3        1.0  0.5014377398578438  0.1672392347258964  0.1293695730851876  1.0000
  H   H19       1.0  0.9502068372014743  0.48110348990699214  0.5895817028400945  1.0000
  H   H20       1.0  0.8169568866477206  0.38973722976884173  0.3474620603216054  1.0000
  H   H21       1.0  0.8176262532687956  0.38682511532784636  0.9305971342836648  1.0000
  H   H22       1.0  0.01665741160556644  0.5277997024724415  0.14512717728234237  1.0000
  H   H23       1.0  0.9501302540308937  0.4814371229705514  0.6966055313212407  1.0000
  H   H24       1.0  0.7484990817227842  0.18848684229208112  0.3039378657757763  1.0000
  H   H25       1.0  0.6169191679041647  0.09791721395873099  0.3000655524265683  1.0000
  H   H26       1.0  0.5574551368441398  0.3565806421369342  0.9639188601670972  1.0000
  H   H27       1.0  0.6884357807987408  0.44975738210788774  0.9680769327620369  1.0000
  H   H28       1.0  0.46045802553897053  0.20100840542959575  0.058344330257422916  1.0000
  H   H29       1.0  0.4851910657447571  0.09342183364116985  0.1986449808136299  1.0000
  Zn  Zn1       1.0  0.8374676058795893  0.4575600660837449  0.6353561212288994  1.0000
  Zn  Zn2       1.0  0.00559267317166956  0.4649013239597677  0.6490783424492568  1.0000
  C   C43       1.0  0.9215151336300623  0.45612746668803505  0.8794031136121001  1.0000
  C   C44       1.0  0.9215469815677648  0.46633564232877367  0.4050316267043983  1.0000
  C   C45       1.0  0.9215642022125998  0.698443222441157  0.6369459019993078  1.0000
  C   C46       1.0  0.9214978553875978  0.22401832364624008  0.6474889035059963  1.0000
  O   O1        1.0  0.985345232286748  0.47086710845632207  0.45862179836165007  1.0000
  O   O2        1.0  0.9853199187217153  0.4571668655001986  0.836227416922491  1.0000
  O   O3        1.0  0.9853586820409123  0.6528398656171406  0.640441432368926  1.0000
  O   O4        1.0  0.9853064116058462  0.27519411509642366  0.6544076808591472  1.0000
  O   O5        1.0  0.8577538100725791  0.64726727244329  0.6300267781294568  1.0000
  O   O6        1.0  0.8577150469781784  0.45159583275196047  0.8258126928046639  1.0000
  O   O7        1.0  0.8577403606945578  0.46529602998597186  0.4482055129435476  1.0000
  O   O8        1.0  0.8577015400025276  0.2696230273652307  0.643991492807561  1.0000
