data_image0
_chemical_formula_structural       NC8NC6H8C12SCH12C12NCOH11Zn2C4O8
_chemical_formula_sum              "N3 C44 H31 S1 O9 Zn2"
_cell_length_a       17.457602349358154
_cell_length_b       10.299776766347529
_cell_length_c       10.299148425239203
_cell_angle_alpha    85.5384344644465
_cell_angle_beta     92.86184502014838
_cell_angle_gamma    91.66964631390691

_space_group_name_H-M_alt    "P 1"
_space_group_IT_number       1

loop_
  _space_group_symop_operation_xyz
  'x, y, z'

loop_
  _atom_site_type_symbol
  _atom_site_label
  _atom_site_symmetry_multiplicity
  _atom_site_fract_x
  _atom_site_fract_y
  _atom_site_fract_z
  _atom_site_occupancy
  N   N1        1.0  0.7223570710826978  0.45337052536286837  0.6264280538414004  1.0000
  C   C1        1.0  0.6612894550241751  0.4074508508167154  0.6158115335803513  1.0000
  C   C2        1.0  0.5853187550874627  0.35033248594067246  0.6026141249299122  1.0000
  C   C3        1.0  0.5267711828621758  0.390462108825403  0.6775164530214433  1.0000
  C   C4        1.0  0.4522380709452334  0.33546169896681577  0.6649335266628007  1.0000
  C   C5        1.0  0.3900985082722259  0.37783257086220523  0.7442579324624876  1.0000
  C   C6        1.0  0.3155567730138225  0.3963238002703511  0.6884911258102899  1.0000
  C   C7        1.0  0.2570092165120131  0.43626945707616227  0.7635014134617044  1.0000
  C   C8        1.0  0.1810295459981805  0.4553674495658133  0.705519014423545  1.0000
  N   N2        1.0  0.11995480859971361  0.4707158559217386  0.6589013166320303  1.0000
  C   C9        1.0  0.2725111095516153  0.4579668078243797  0.8947870568312601  1.0000
  C   C10       1.0  0.3462680084036049  0.439864393912192  0.9509414862774455  1.0000
  C   C11       1.0  0.4048038566200881  0.4000985960230299  0.8763889481282245  1.0000
  C   C12       1.0  0.4375415222576704  0.23965486125421998  0.5760152638773024  1.0000
  C   C13       1.0  0.496077262989198  0.19980374466475737  0.5015129641531153  1.0000
  C   C14       1.0  0.5698255047743566  0.25491629786775727  0.5146458738280497  1.0000
  H   H1        1.0  0.5390908840091244  0.46562681404771666  0.7441514350725502  1.0000
  H   H2        1.0  0.3032300385071462  0.38139647108270003  0.5864604476894186  1.0000
  H   H3        1.0  0.22763538302744193  0.48882427332064227  0.9536265429775832  1.0000
  H   H4        1.0  0.3580807928459065  0.45634950168277877  0.05259888668742074  1.0000
  H   H5        1.0  0.4612853432010625  0.38508790320539843  0.9224981274752109  1.0000
  H   H6        1.0  0.3810670778283911  0.194324855677255  0.5653626265599134  1.0000
  H   H7        1.0  0.4842713410457469  0.12575597421070217  0.4336795924809165  1.0000
  H   H8        1.0  0.6147013628987804  0.22318894209175255  0.4563175404698563  1.0000
  C   C15       1.0  0.9212319438348497  0.08068135396706122  0.642669298630677  1.0000
  C   C16       1.0  0.9258214216120781  0.06926324441441345  0.7795669961661451  1.0000
  C   C17       1.0  0.9280730815167679  0.9463357518158154  0.8489334752719695  1.0000
  C   C18       1.0  0.9256747214625572  0.8339690619055855  0.7795702059546774  1.0000
  C   C19       1.0  0.9210872927822642  0.8433953136504014  0.6426719263451539  1.0000
  C   C20       1.0  0.9188911516493131  0.9671910928193698  0.574987755761249  1.0000
  C   C21       1.0  0.9329197764909068  0.9353202175392104  0.9937551024487052  1.0000
  C   C22       1.0  0.8890007054874979  0.8399131319204395  0.06421562232466838  1.0000
  C   C23       1.0  0.8935850542612618  0.829781687496048  0.20050827220799528  1.0000
  C   C24       1.0  0.9418969188820567  0.9147696551720766  0.26813154813682516  1.0000
  C   C25       1.0  0.985998863912  0.009610363049331383  0.19905911923934283  1.0000
  C   C26       1.0  0.9815270124981396  0.020096608277402117  0.06276524174024922  1.0000
  S   S1        1.0  0.9478638705494385  0.9013127711747642  0.4430206789564096  1.0000
  C   C27       1.0  0.8707681417667654  0.01400318199803241  0.45625398540774065  1.0000
  H   H9        1.0  0.919513327015736  0.41248697069894913  0.5905075266889306  1.0000
  H   H10       1.0  0.9265975835654962  0.15610624299532594  0.8325921967996348  1.0000
  H   H11       1.0  0.9284512899663937  0.7390546023302804  0.8325626378660798  1.0000
  H   H12       1.0  0.9153510892271163  0.9752312134421379  0.4693770458223674  1.0000
  H   H13       1.0  0.9193009713784296  0.5195317006659849  0.5905092907923388  1.0000
  H   H14       1.0  0.8503876900177301  0.7742840710332971  0.013944734171063788  1.0000
  H   H15       1.0  0.8592762201990664  0.7561995968373114  0.2534312996044418  1.0000
  H   H16       1.0  0.02379512111397375  0.07525901020001458  0.2508523386013918  1.0000
  H   H17       1.0  0.016803918888702807  0.09335139539023851  0.01133441584542716  1.0000
  H   H18       1.0  0.8861336887767668  0.11102345560415716  0.40862807896351927  1.0000
  H   H19       1.0  0.8618624452658173  0.024250461971025983  0.5608128141885378  1.0000
  H   H20       1.0  0.81678981396732  0.9761333046333185  0.40972052378709234  1.0000
  C   C28       1.0  0.9212172802792419  0.4621966908796402  0.26127910076075356  1.0000
  C   C29       1.0  0.999048921754273  0.5011506623245412  0.2636671369266741  1.0000
  C   C30       1.0  0.0383893706283005  0.5206816251395059  0.14773583044991323  1.0000
  C   C31       1.0  0.9988872551563099  0.5008034625535407  0.02839677159999554  1.0000
  C   C32       1.0  0.9211019214644146  0.4618799846827566  0.024062061944405855  1.0000
  C   C33       1.0  0.8827232797099898  0.44279584531128746  0.14104631556609193  1.0000
  C   C34       1.0  0.12067955397680863  0.5618639654524273  0.1513509620545621  1.0000
  C   C35       1.0  0.17224247937091275  0.5067430440196432  0.07196316902025468  1.0000
  C   C36       1.0  0.2496403525983646  0.5456325420501287  0.07551109178309634  1.0000
  C   C37       1.0  0.2772877766645221  0.6391107003772925  0.15927988867789122  1.0000
  C   C38       1.0  0.22564836365646412  0.6960744819202922  0.23709307293308646  1.0000
  C   C39       1.0  0.14821579954242337  0.6572901379711187  0.23363916009753982  1.0000
  N   N3        1.0  0.3569564020512672  0.6787928680070607  0.15925200239629755  1.0000
  C   C40       1.0  0.4010787248683101  0.7173903797875107  0.2715864256488203  1.0000
  O   O1        1.0  0.3751227876602765  0.7020956444870399  0.3838264174517736  1.0000
  H   H21       1.0  0.7744360969972965  0.3879144435741553  0.46413463680517064  1.0000
  H   H22       1.0  0.029485118226419305  0.5146737422700511  0.35607960742752387  1.0000
  H   H23       1.0  0.02865088558783424  0.5174934335963239  0.9385950697610097  1.0000
  H   H24       1.0  0.822726405413034  0.41276969774214844  0.13841801449689317  1.0000
  H   H25       1.0  0.891185850093747  0.44687277113570323  0.6949218620028512  1.0000
  H   H26       1.0  0.15291404172606038  0.4323908064361923  0.008210310561839185  1.0000
  H   H27       1.0  0.2884133881804938  0.5017865444818548  0.013722053366636011  1.0000
  H   H28       1.0  0.24454103047375564  0.7725722247370586  0.29840377267003215  1.0000
  H   H29       1.0  0.1095327845430436  0.7038062889872188  0.2935430271752766  1.0000
  H   H30       1.0  0.38646471869396226  0.6711409487830116  0.07447881155548353  1.0000
  H   H31       1.0  0.4586767756076615  0.7569425033201254  0.2604674981073831  1.0000
  Zn  Zn1       1.0  0.8370951891051569  0.4583725273297403  0.6358066349223899  1.0000
  Zn  Zn2       1.0  0.005216676739076442  0.4657032019138536  0.6495333686718177  1.0000
  C   C41       1.0  0.9211230032545006  0.45676618849169004  0.879879622096398  1.0000
  C   C42       1.0  0.9211906981410553  0.46731125933947726  0.40546065887290816  1.0000
  C   C43       1.0  0.9211114481478395  0.6992281215931464  0.6374956092330362  1.0000
  C   C44       1.0  0.9212021961650948  0.22484776343364077  0.6478447362897002  1.0000
  O   O2        1.0  0.984983006391918  0.47180404239899  0.4590585307912405  1.0000
  O   O3        1.0  0.984931014293733  0.4578362382718135  0.836699649607364  1.0000
  O   O4        1.0  0.9849208231236751  0.6536272775381271  0.6409727740938564  1.0000
  O   O5        1.0  0.9849931402064642  0.2760130099616991  0.6547853042403411  1.0000
  O   O6        1.0  0.8573186682661572  0.6480627167817117  0.6305546946627743  1.0000
  O   O7        1.0  0.8573288591472245  0.4522732378195953  0.8262815009317599  1.0000
  O   O8        1.0  0.8573808515411504  0.4662409973421875  0.44863882062649596  1.0000
  O   O9        1.0  0.8573909853395961  0.2704499555756912  0.6443656914489118  1.0000
