data_image0
_chemical_formula_structural       NC8NC6H8C12OCH12C16H10Zn2C4O8
_chemical_formula_sum              "N2 C47 H30 O9 Zn2"
_cell_length_a       17.457602349358154
_cell_length_b       10.29979075500242
_cell_length_c       10.299151387937775
_cell_angle_alpha    85.5809823184421
_cell_angle_beta     92.86396087313608
_cell_angle_gamma    91.67079993281202

_space_group_name_H-M_alt    "P 1"
_space_group_IT_number       1

loop_
  _space_group_symop_operation_xyz
  'x, y, z'

loop_
  _atom_site_type_symbol
  _atom_site_label
  _atom_site_symmetry_multiplicity
  _atom_site_fract_x
  _atom_site_fract_y
  _atom_site_fract_z
  _atom_site_occupancy
  N   N1        1.0  0.7223225430616829  0.4522099547247638  0.6263616999704518  1.0000
  C   C1        1.0  0.6612541509543057  0.4062808978134158  0.6157507015830537  1.0000
  C   C2        1.0  0.5852824859935197  0.34915086945184504  0.6025601609353448  1.0000
  C   C3        1.0  0.5267378602077402  0.3893446404159029  0.6774535017801375  1.0000
  C   C4        1.0  0.4522038233746002  0.3343331062281343  0.6648771808233032  1.0000
  C   C5        1.0  0.3900673799531152  0.376771912449571  0.744192082294902  1.0000
  C   C6        1.0  0.3155238819098778  0.39521573069298244  0.688426859669885  1.0000
  C   C7        1.0  0.2569792739401311  0.4352256262933809  0.7634281726530292  1.0000
  C   C8        1.0  0.1809977694674066  0.4542743230698898  0.70544743407816  1.0000
  N   N2        1.0  0.119921557514375  0.46958309575520873  0.6588310719631691  1.0000
  C   C9        1.0  0.2724858980383275  0.4570350623210513  0.8947031994269967  1.0000
  C   C10       1.0  0.3462445765369102  0.4389803928490068  0.9508559792098845  1.0000
  C   C11       1.0  0.4047774936453499  0.3991507477209526  0.8763123677092131  1.0000
  C   C12       1.0  0.437503347771167  0.23844976950151398  0.5759746730250417  1.0000
  C   C13       1.0  0.49603615837098547  0.19853484788912268  0.5014813057722172  1.0000
  C   C14       1.0  0.5697853450810502  0.2536589951234709  0.5146075633265643  1.0000
  H   H1        1.0  0.5390605341700865  0.4645666979705896  0.7440763215418917  1.0000
  H   H2        1.0  0.3031934878273774  0.38020130664349305  0.5864042280753321  1.0000
  H   H3        1.0  0.227612480151791  0.48794291450342686  0.9535356960043735  1.0000
  H   H4        1.0  0.3580610215313542  0.4555522884739809  0.05250519228080075  1.0000
  H   H5        1.0  0.461260440213158  0.38417925746718273  0.922420207968933  1.0000
  H   H6        1.0  0.3810281312980586  0.19311035501983453  0.5653274976090705  1.0000
  H   H7        1.0  0.48422723214180236  0.124428711459176  0.43366005445011724  1.0000
  H   H8        1.0  0.614658904485446  0.2218816821762244  0.4562862789730724  1.0000
  C   C15       1.0  0.9211946568792512  0.07953194229544103  0.6426412667281476  1.0000
  C   C16       1.0  0.8989714620944524  0.06745079882604776  0.7722653960031609  1.0000
  C   C17       1.0  0.8876499228953123  0.9441902321026171  0.8379088051363626  1.0000
  C   C18       1.0  0.8988336383355935  0.8321624553695542  0.7721883552856765  1.0000
  C   C19       1.0  0.9210567991727329  0.8422513821899293  0.6425632907173262  1.0000
  C   C20       1.0  0.9321146570291974  0.9663722263437398  0.5785163760407757  1.0000
  C   C21       1.0  0.8641437155433972  0.9324633749196019  0.9750454944914433  1.0000
  C   C22       1.0  0.808160542946089  0.8391701561586434  0.015539566498228297  1.0000
  C   C23       1.0  0.7861062274503692  0.8284097843509848  0.1444784602666599  1.0000
  C   C24       1.0  0.8195385771726603  0.9102531043796132  0.23455742595343554  1.0000
  C   C25       1.0  0.87572577379102  0.004165119986321075  0.19595173364677698  1.0000
  C   C26       1.0  0.8975423136798406  0.014553690282852472  0.06646671902090007  1.0000
  O   O1        1.0  0.9111783267825696  0.08844985300026043  0.2827159115230967  1.0000
  C   C27       1.0  0.8947146760441393  0.0887651055397789  0.4167084445067071  1.0000
  H   H9        1.0  0.9296962185399152  0.4115883297262748  0.593272942861037  1.0000
  H   H10       1.0  0.8893982890767852  0.15408007346460395  0.8219127170415523  1.0000
  H   H11       1.0  0.8911795250694597  0.7369495141470167  0.8229315131501436  1.0000
  H   H12       1.0  0.9492595033184623  0.974923947430603  0.4785168851184225  1.0000
  H   H13       1.0  0.9294866658465244  0.5186425853560581  0.593151476628508  1.0000
  H   H14       1.0  0.7807277203681907  0.7757146006962963  0.947089329620427  1.0000
  H   H15       1.0  0.7427733311786731  0.7565604777264385  0.17461876454432912  1.0000
  H   H16       1.0  0.8013456071363475  0.8997510187057733  0.33373898831989535  1.0000
  H   H17       1.0  0.9414940471173661  0.08600446342878776  0.03788981899786581  1.0000
  H   H18       1.0  0.9079614052828205  0.992836171497408  0.46841314076672214  1.0000
  H   H19       1.0  0.9309127911566629  0.16500355599916228  0.4618791111185362  1.0000
  H   H20       1.0  0.8334683526211519  0.11100567798140304  0.42614243174267563  1.0000
  C   C28       1.0  0.9211702098840294  0.46072487272210716  0.2612349711762194  1.0000
  C   C29       1.0  0.8471375454354412  0.5114428288463702  0.25027601354382867  1.0000
  C   C30       1.0  0.8095556650080589  0.5373298202759271  0.12755988585751932  1.0000
  C   C31       1.0  0.8470040161743813  0.5118145868824908  0.014952741838215156  1.0000
  C   C32       1.0  0.9210812118985099  0.46105843237369215  0.023969650406351795  1.0000
  C   C33       1.0  0.9577090243015802  0.4358280195639208  0.14750015024050356  1.0000
  C   C34       1.0  0.7312380720032616  0.5909835864472825  0.11701204345373672  1.0000
  C   C35       1.0  0.7117333743147066  0.6899432257083562  0.020105715303829985  1.0000
  C   C36       1.0  0.6380082185955169  0.7404023861582991  0.010305329328070822  1.0000
  C   C37       1.0  0.5828205974388829  0.6926680953795981  0.09703047714457202  1.0000
  C   C38       1.0  0.6016298701370187  0.594236405965654  0.1937178727309059  1.0000
  C   C39       1.0  0.6753330313910291  0.5436886920041946  0.2037660351674082  1.0000
  C   C40       1.0  0.5069311126305742  0.7446624030871134  0.08681383616152272  1.0000
  C   C41       1.0  0.4433747399632445  0.7882068464950163  0.0782574583913429  1.0000
  C   C42       1.0  0.3689508884496801  0.8391970037648684  0.06823802753409236  1.0000
  C   C43       1.0  0.3054047865739969  0.8827346480325902  0.05968313898385569  1.0000
  H   H21       1.0  0.9496300413447809  0.4411532973809711  0.5929293738870305  1.0000
  H   H22       1.0  0.8189444031904654  0.5326052100646332  0.3372755570515944  1.0000
  H   H23       1.0  0.8178894844410145  0.5299213487031775  0.9202005562145503  1.0000
  H   H24       1.0  0.014811393274265061  0.39670436220842564  0.15523752619569664  1.0000
  H   H25       1.0  0.060705423699831895  0.3644921013729403  0.8337388084773867  1.0000
  H   H26       1.0  0.7537854205193077  0.7294825350404162  0.9529901303969117  1.0000
  H   H27       1.0  0.6241198420197386  0.8168444116708176  0.9353119858517474  1.0000
  H   H28       1.0  0.5592799416240348  0.5563252705536084  0.261140396337459  1.0000
  H   H29       1.0  0.6883149032072494  0.46644542333479744  0.27829239950077156  1.0000
  H   H30       1.0  0.24960606251124076  0.9209642319596649  0.05217124789496652  1.0000
  Zn  Zn1       1.0  0.8370610298083323  0.457219988561113  0.6357391581437184  1.0000
  Zn  Zn2       1.0  0.005183057202171382  0.46456241886639504  0.6494642473611114  1.0000
  C   C44       1.0  0.9210972657843609  0.4558217248565586  0.8797968368322058  1.0000
  C   C45       1.0  0.9211486568023637  0.46596240140739575  0.4054068458486675  1.0000
  C   C46       1.0  0.921079493017063  0.6980787597128819  0.6374025936168715  1.0000
  C   C47       1.0  0.9211663724753482  0.2237038037904575  0.6478011537783539  1.0000
  O   O2        1.0  0.9849428576361363  0.4705009122358692  0.45900084442307  1.0000
  O   O3        1.0  0.9849037938843237  0.4568549688622676  0.8366194896524792  1.0000
  O   O4        1.0  0.9848885819185798  0.6524805512955485  0.6408843529232051  1.0000
  O   O5        1.0  0.984958012242902  0.27487533654464413  0.6547358790936884  1.0000
  O   O6        1.0  0.8572860173958053  0.6469070683786637  0.6304675217206102  1.0000
  O   O7        1.0  0.8573012290840664  0.45128304620179693  0.8262025890450029  1.0000
  O   O8        1.0  0.8573402930772512  0.46492894363923054  0.4485823824301851  1.0000
  O   O9        1.0  0.8573554476711989  0.2693033587017488  0.644317514468929  1.0000
