data_image0
_chemical_formula_structural       NC12NC2H8C16H10C16H10Zn2C4O8
_chemical_formula_sum              "N2 C50 H28 Zn2 O8"
_cell_length_a       17.80743265337812
_cell_length_b       10.29914801576943
_cell_length_c       10.299151387937775
_cell_angle_alpha    85.56202673548964
_cell_angle_beta     91.5231079548936
_cell_angle_gamma    89.44985071264975

_space_group_name_H-M_alt    "P 1"
_space_group_IT_number       1

loop_
  _space_group_symop_operation_xyz
  'x, y, z'

loop_
  _atom_site_type_symbol
  _atom_site_label
  _atom_site_symmetry_multiplicity
  _atom_site_fract_x
  _atom_site_fract_y
  _atom_site_fract_z
  _atom_site_occupancy
  N   N1        1.0  0.7077686059309886  0.406138951852423  0.6008063872785212  1.0000
  C   C1        1.0  0.6569602744413735  0.4356677268117184  0.532097237373736  1.0000
  C   C2        1.0  0.5937496940596991  0.47239938116660585  0.4466317035909737  1.0000
  C   C3        1.0  0.6054974715315653  0.5263646877337214  0.31999293963992304  1.0000
  C   C4        1.0  0.5441937784256823  0.5615937601530603  0.23692393513772414  1.0000
  C   C5        1.0  0.470988112188101  0.5431207003858423  0.27983370039160316  1.0000
  C   C6        1.0  0.4582634947849863  0.489036802332417  0.40694064571821364  1.0000
  C   C7        1.0  0.52042450620432  0.4538109762771807  0.4899931375255846  1.0000
  C   C8        1.0  0.38048916054161597  0.4694508755701672  0.4527110925606239  1.0000
  C   C9        1.0  0.3616937274560157  0.4966996520988165  0.5797429503088474  1.0000
  C   C10       1.0  0.2884581167373489  0.47826818829511675  0.6226932617359602  1.0000
  C   C11       1.0  0.2330748473630707  0.43233405225136723  0.5394497694929614  1.0000
  C   C12       1.0  0.1577024095665842  0.4133503810408006  0.5838012009555149  1.0000
  N   N2        1.0  0.09710830712747462  0.3980887860972655  0.619456700780527  1.0000
  C   C13       1.0  0.2511787076640962  0.404916606633019  0.4129609383656929  1.0000
  C   C14       1.0  0.32436149184808266  0.4233627358059753  0.36975473813403514  1.0000
  H   H1        1.0  0.6619687486550947  0.5411733494369717  0.2855507293116435  1.0000
  H   H2        1.0  0.5534077582958872  0.6036479343378631  0.1391300548436245  1.0000
  H   H3        1.0  0.424359621086469  0.5727275642907466  0.21423241879550003  1.0000
  H   H4        1.0  0.5119087357571052  0.4103713198770549  0.5876631118900677  1.0000
  H   H5        1.0  0.4033683637165388  0.5339131018363017  0.6453006186233627  1.0000
  H   H6        1.0  0.2750075599986488  0.5001620387137276  0.7206921596297013  1.0000
  H   H7        1.0  0.2087873203185709  0.36897073966977456  0.3478157262638115  1.0000
  H   H8        1.0  0.3372834161489499  0.39993335496657134  0.27205976713487035  1.0000
  C   C15       1.0  0.9023885374479518  0.020713609908025843  0.6102946829333082  1.0000
  C   C16       1.0  0.8852506112356981  0.03060897464793766  0.4759992849748318  1.0000
  C   C17       1.0  0.87661654425025  0.9184951609482084  0.40774670854723216  1.0000
  C   C18       1.0  0.885350942877435  0.7953549098687038  0.47559949935930823  1.0000
  C   C19       1.0  0.9024955558549993  0.7835040014193824  0.6099799708233045  1.0000
  C   C20       1.0  0.9109101331757394  0.8967013284510051  0.6765002013449994  1.0000
  C   C21       1.0  0.8584868705952278  0.9300088652825257  0.26567838245652786  1.0000
  C   C22       1.0  0.8940401406656192  0.8482517538507499  0.18216347337243666  1.0000
  C   C23       1.0  0.876950870956774  0.8592137750788306  0.048452980416556546  1.0000
  C   C24       1.0  0.8241329060705131  0.9518360627935275  0.9964447316567968  1.0000
  C   C25       1.0  0.7884427977091134  0.03357576303591969  0.07866914045052154  1.0000
  C   C26       1.0  0.8054785015903134  0.022856124128653565  0.21239801413147297  1.0000
  C   C27       1.0  0.8065672121257533  0.9629971909549314  0.8587786575612459  1.0000
  C   C28       1.0  0.7918561327513868  0.9723445288762783  0.743485308968399  1.0000
  C   C29       1.0  0.7746296325499761  0.9832901358559181  0.608477974569734  1.0000
  C   C30       1.0  0.7599210222059726  0.9926360535623565  0.4932032520780827  1.0000
  H   H9        1.0  0.908941880785038  0.3443828335499366  0.6619626888285237  1.0000
  H   H10       1.0  0.8795891874835186  0.1257588781076724  0.4238178249789013  1.0000
  H   H11       1.0  0.8777503646279076  0.7085965389171631  0.423819732665196  1.0000
  H   H12       1.0  0.9241268581251575  0.8883529347139217  0.7800864393544036  1.0000
  H   H13       1.0  0.9343898600829141  0.5538391664674648  0.8637720177970092  1.0000
  H   H14       1.0  0.9357688361396468  0.7769998039539682  0.22001219483759682  1.0000
  H   H15       1.0  0.9050647970027095  0.7956817696116723  0.9856246225171614  1.0000
  H   H16       1.0  0.7473117976368004  0.10537911339270534  0.03947915247252198  1.0000
  H   H17       1.0  0.7764889054078142  0.08601608045138787  0.27438163522770154  1.0000
  H   H18       1.0  0.7470056782162725  0.0008425575828665544  0.3919823284114905  1.0000
  C   C31       1.0  0.9024855663046764  0.4019391496055369  0.2287684904282863  1.0000
  C   C32       1.0  0.8300078995736767  0.4573952922589848  0.22036554943452158  1.0000
  C   C33       1.0  0.793215441507493  0.4856875842201709  0.09894691138950384  1.0000
  C   C34       1.0  0.8298772639335394  0.4577756191682183  0.9850467991154486  1.0000
  C   C35       1.0  0.9023985241550713  0.4022784274444562  0.9915061560155003  1.0000
  C   C36       1.0  0.9382569545857277  0.37470377593573057  0.1137721049673841  1.0000
  C   C37       1.0  0.716542847863211  0.5443537779302674  0.09110302493565325  1.0000
  C   C38       1.0  0.6974749944391377  0.6445687145622117  0.994842992955991  1.0000
  C   C39       1.0  0.6252983621859978  0.699746376664051  0.9875880219637017  1.0000
  C   C40       1.0  0.5712427676085263  0.6555371982989557  0.0762456475896347  1.0000
  C   C41       1.0  0.5896298192484641  0.5558947238122769  0.172310740595905  1.0000
  C   C42       1.0  0.6617848861296317  0.5006299074338434  0.17981428024241097  1.0000
  C   C43       1.0  0.49694728292602697  0.7123885317959451  0.06864912958495961  1.0000
  C   C44       1.0  0.43472586285383213  0.7600006657615914  0.06228706785481286  1.0000
  C   C45       1.0  0.36186522696910584  0.8157540463828317  0.0548371582420597  1.0000
  C   C46       1.0  0.29965386203393063  0.8633587238836258  0.04847623105226728  1.0000
  H   H19       1.0  0.930347597831085  0.3805461020814709  0.5594803260856696  1.0000
  H   H20       1.0  0.8024075184710898  0.48036222164667386  0.3083378906357084  1.0000
  H   H21       1.0  0.8013736764207796  0.47774559900823643  0.8913003904814887  1.0000
  H   H22       1.0  0.9941599319998533  0.33192549257196435  0.11953799297070788  1.0000
  H   H23       1.0  0.039089749726091805  0.29677589144918803  0.7964550040829614  1.0000
  H   H24       1.0  0.7386654601653163  0.6814222049711265  0.9262538891708814  1.0000
  H   H25       1.0  0.6117229387432397  0.7770827271469307  0.91305298211467  1.0000
  H   H26       1.0  0.5481481799210394  0.5206885881624146  0.24121661652666426  1.0000
  H   H27       1.0  0.6744723938882652  0.4225502154386622  0.25391408901760415  1.0000
  H   H28       1.0  0.2450271471862724  0.9051594987745049  0.042890819199679076  1.0000
  Zn  Zn1       1.0  0.8201236354937127  0.4038123836749341  0.6061959532476058  1.0000
  Zn  Zn2       1.0  0.9847532723756426  0.4004047646593325  0.614077732231316  1.0000
  C   C47       1.0  0.9024125825162955  0.3970402668535098  0.8473344434631589  1.0000
  C   C48       1.0  0.9024661233189624  0.40717848308035065  0.37293945487478974  1.0000
  C   C49       1.0  0.9024720569798776  0.6393181686555747  0.6048640806149232  1.0000
  C   C50       1.0  0.9024065924519497  0.16489902204131712  0.6154098849159959  1.0000
  O   O1        1.0  0.9649356865024536  0.4076380113928222  0.4243156439471054  1.0000
  O   O2        1.0  0.9648931043608752  0.3939934545859598  0.8019399688258646  1.0000
  O   O3        1.0  0.9649402883807247  0.5896359423467423  0.6061433944286834  1.0000
  O   O4        1.0  0.9648884463180752  0.2119955340424935  0.6201121182762908  1.0000
  O   O5        1.0  0.8399884053712654  0.5922216154560365  0.6001615645061349  1.0000
  O   O6        1.0  0.8399412215748324  0.39658068809648683  0.795958069013849  1.0000
  O   O7        1.0  0.8399838039381882  0.4102251989480048  0.4183321827558468  1.0000
  O   O8        1.0  0.8399365637383244  0.21458271235148696  0.6141287544565319  1.0000
