data_image0
_chemical_formula_structural       NC11NC3H8C12SCH12C13F3H9Zn2C4O8
_chemical_formula_sum              "N2 C44 H29 S1 F3 Zn2 O8"
_cell_length_a       17.807433833752565
_cell_length_b       10.299776766347529
_cell_length_c       10.2985328690268
_cell_angle_alpha    85.58005012136331
_cell_angle_beta     88.52982223362811
_cell_angle_gamma    90.66624570658541

_space_group_name_H-M_alt    "P 1"
_space_group_IT_number       1

loop_
  _space_group_symop_operation_xyz
  'x, y, z'

loop_
  _atom_site_type_symbol
  _atom_site_label
  _atom_site_symmetry_multiplicity
  _atom_site_fract_x
  _atom_site_fract_y
  _atom_site_fract_z
  _atom_site_occupancy
  N   N1        1.0  0.7070610807540019  0.4379849576811874  0.5346177157450862  1.0000
  C   C1        1.0  0.6562519079332093  0.40328004117236493  0.601182999301483  1.0000
  C   C2        1.0  0.5930401702958834  0.3601099847508904  0.6839817173190819  1.0000
  C   C3        1.0  0.604786196499597  0.2965999715100982  0.8067055653489439  1.0000
  C   C4        1.0  0.5434814079571961  0.25510893347285024  0.8872202737911252  1.0000
  C   C5        1.0  0.4702763408616603  0.2768148497163787  0.8456519589693137  1.0000
  C   C6        1.0  0.4575534659885271  0.3404792650654631  0.7224678900693602  1.0000
  C   C7        1.0  0.3797797718467093  0.3635143915907624  0.6781187971514779  1.0000
  C   C8        1.0  0.3609918198967114  0.34660113177539653  0.5485292468802778  1.0000
  C   C9        1.0  0.2877568149113788  0.36826830664417476  0.5069168560489448  1.0000
  C   C10       1.0  0.23236658149809192  0.4071670017963407  0.5940737007784378  1.0000
  C   C11       1.0  0.1569946541493448  0.4294921963072733  0.5510999536408481  1.0000
  N   N2        1.0  0.09640099849215622  0.44743999409442003  0.5165521885616327  1.0000
  C   C12       1.0  0.2504629001482577  0.42429066557817907  0.7231320908783063  1.0000
  C   C13       1.0  0.3236451646816608  0.4025886427777088  0.7649999263200409  1.0000
  C   C14       1.0  0.5197155682132998  0.3819657434855859  0.6419695983424103  1.0000
  H   H1        1.0  0.6612571483357463  0.27919644052442494  0.8400725725055846  1.0000
  H   H2        1.0  0.5526941602714719  0.2056877376128028  0.9819605797175397  1.0000
  H   H3        1.0  0.4236471589551142  0.24227966154892266  0.9090937610439267  1.0000
  H   H4        1.0  0.4026720617703652  0.31493796307527666  0.479806925677295  1.0000
  H   H5        1.0  0.2743121152465714  0.3543559321343428  0.4068752065266965  1.0000
  H   H6        1.0  0.2080660718464031  0.4547306660206605  0.791339559368337  1.0000
  H   H7        1.0  0.3365611346759735  0.4180463395995959  0.8648588733286398  1.0000
  H   H8        1.0  0.5112010542293561  0.43274934140956955  0.5474636800577919  1.0000
  C   C15       1.0  0.9018054643345665  0.06134914372048472  0.525579880489301  1.0000
  C   C16       1.0  0.9063275589943083  0.04994006880182744  0.6618933673261271  1.0000
  C   C17       1.0  0.9085466105571725  0.9270186238938121  0.7309732112052834  1.0000
  C   C18       1.0  0.9061839088105972  0.8146488086747921  0.661915224147259  1.0000
  C   C19       1.0  0.901663820536155  0.8240659845720453  0.5256008947792983  1.0000
  C   C20       1.0  0.8994994779874452  0.9478558445994986  0.45819629208160184  1.0000
  C   C21       1.0  0.9133221973935483  0.9160128150223978  0.8751778840581934  1.0000
  C   C22       1.0  0.8703304466349078  0.8215315956605564  0.9512205224307884  1.0000
  C   C23       1.0  0.8748473950900524  0.8114088442806004  0.08692961728566306  1.0000
  C   C24       1.0  0.9221688873396956  0.8954847650454244  0.14841155724014643  1.0000
  C   C25       1.0  0.9653399949546871  0.9893969844923014  0.07373375619254774  1.0000
  C   C26       1.0  0.9609332052383626  0.9998722965452403  0.9380091341928471  1.0000
  S   S1        1.0  0.9280475980132493  0.8820373565168967  0.3225411529387139  1.0000
  C   C27       1.0  0.8525570888459902  0.9962720416053661  0.34557401413270816  1.0000
  H   H9        1.0  0.9001118966720644  0.3931507188786709  0.4736368828252091  1.0000
  H   H10       1.0  0.9070984383416772  0.13680650142538697  0.7148195837840114  1.0000
  H   H11       1.0  0.9089136075567209  0.7197179415443559  0.7145544004579216  1.0000
  H   H12       1.0  0.8960113878809687  0.9558889849768967  0.3530362091817645  1.0000
  H   H13       1.0  0.8999039554195559  0.5001996770226688  0.4736656394375267  1.0000
  H   H14       1.0  0.8325097541468786  0.7566342531263035  0.9058580430134173  1.0000
  H   H15       1.0  0.8412625341629728  0.7385484703981763  0.1442133141039703  1.0000
  H   H16       1.0  0.002361217829337958  0.05433128697393985  0.12072237557494647  1.0000
  H   H17       1.0  0.9954663214978978  0.07238719188593024  0.8820945780455469  1.0000
  H   H18       1.0  0.8675935018080405  0.09295154397800842  0.2959952864198593  1.0000
  H   H19       1.0  0.8438579022972488  0.006773260051928354  0.4512642024528173  1.0000
  H   H20       1.0  0.7996912321762069  0.9594424657637185  0.30590202272011047  1.0000
  C   C28       1.0  0.9017130606364566  0.44258509933819834  0.14419389308954722  1.0000
  C   C29       1.0  0.977051500803363  0.4035237372172449  0.14291048809303786  1.0000
  C   C30       1.0  0.015226030752268471  0.38384971714081395  0.025089325042404687  1.0000
  C   C31       1.0  0.9770958043471187  0.40378042723845375  0.9076077606969415  1.0000
  C   C32       1.0  0.9017561957184846  0.44283005627195626  0.9069868704653947  1.0000
  C   C33       1.0  0.8645459562953943  0.4619778488352102  0.02575497683585115  1.0000
  C   C34       1.0  0.09487670030847983  0.34256472854372944  0.02466689875091066  1.0000
  C   C35       1.0  0.14674007809870404  0.3984241075761821  0.9307197803729186  1.0000
  C   C36       1.0  0.22170201758351205  0.35967151756407345  0.9303437095979143  1.0000
  C   C37       1.0  0.24616496636292773  0.2628705292677871  0.022678281509835196  1.0000
  C   C38       1.0  0.19473611667593427  0.20884072883864535  0.11818259887185767  1.0000
  C   C39       1.0  0.11977906133811  0.2476264920884006  0.11866936462554256  1.0000
  C   C40       1.0  0.3276240399992525  0.2245626169951167  0.025181303433375657  1.0000
  F   F1        1.0  0.36613667723654375  0.30481162677413387  0.1028804786966171  1.0000
  F   F2        1.0  0.359615950969675  0.23651258476730863  0.9008398641421347  1.0000
  F   F3        1.0  0.33460518448793675  0.09661237600644057  0.07474104262943104  1.0000
  H   H21       1.0  0.7594944659541932  0.5172185379765162  0.3538743582027486  1.0000
  H   H22       1.0  0.006474071372077894  0.3900788624010749  0.23362400216013257  1.0000
  H   H23       1.0  0.0059508947697259895  0.3870998259640419  0.8166378627382107  1.0000
  H   H24       1.0  0.8064808866106328  0.49207795794134457  0.02601100953369695  1.0000
  H   H25       1.0  0.7592541360866325  0.5158730920353756  0.6985512128653522  1.0000
  H   H26       1.0  0.12960654855044162  0.47377148873834307  0.8587869307034266  1.0000
  H   H27       1.0  0.2606420670503231  0.4058429850451608  0.8580524426122427  1.0000
  H   H28       1.0  0.21246972378018603  0.13639942577881503  0.1925305373842432  1.0000
  H   H29       1.0  0.08110941952947481  0.20241560817061566  0.19196777961601064  1.0000
  Zn  Zn1       1.0  0.8194161716755828  0.4407100047647954  0.5294118798010783  1.0000
  Zn  Zn2       1.0  0.9840458953811919  0.4447043309715313  0.5217686109921698  1.0000
  C   C41       1.0  0.9017473292024816  0.4376100928454576  0.7628025919014669  1.0000
  C   C42       1.0  0.9017165353086103  0.4478059251456734  0.28837794294829  1.0000
  C   C43       1.0  0.901686414564158  0.6798945159187952  0.5204215391276787  1.0000
  C   C44       1.0  0.9017773940640413  0.20551994045150646  0.5307590675308811  1.0000
  O   O1        1.0  0.9641938246639399  0.45106824229863185  0.33386684638275144  1.0000
  O   O2        1.0  0.9642201910280326  0.4373783970325682  0.7115122503942193  1.0000
  O   O3        1.0  0.96417015955558  0.6330261127686077  0.5157878745321725  1.0000
  O   O4        1.0  0.9642437999521868  0.2554205344584175  0.5295911274714764  1.0000
  O   O5        1.0  0.8392182109245422  0.6299937999162533  0.521589365923212  1.0000
  O   O6        1.0  0.8392682420998419  0.43434764443938634  0.7173136725778966  1.0000
  O   O7        1.0  0.8392418757058108  0.4480374439499397  0.33966670704930335  1.0000
  O   O8        1.0  0.8392918509982179  0.25238972685224415  0.5353910855127917  1.0000
