data_image0
_chemical_formula_structural       NC11NC3H8C12NCOCH13C13NH9Zn2C4O8
_chemical_formula_sum              "N4 C45 H30 O9 Zn2"
_cell_length_a       17.807433833752565
_cell_length_b       10.299155265289647
_cell_length_c       10.298528502251457
_cell_angle_alpha    85.52481818200185
_cell_angle_beta     88.52196449538943
_cell_angle_gamma    90.66237101144992

_space_group_name_H-M_alt    "P 1"
_space_group_IT_number       1

loop_
  _space_group_symop_operation_xyz
  'x, y, z'

loop_
  _atom_site_type_symbol
  _atom_site_label
  _atom_site_symmetry_multiplicity
  _atom_site_fract_x
  _atom_site_fract_y
  _atom_site_fract_z
  _atom_site_occupancy
  N   N1        1.0  0.7071355805570291  0.4390634348380076  0.5340858048843402  1.0000
  C   C1        1.0  0.6563219743339628  0.4043121030627814  0.6006656404781883  1.0000
  C   C2        1.0  0.5931047221637533  0.36108431184121836  0.6834824598658651  1.0000
  C   C3        1.0  0.6048425584265575  0.2974887644343509  0.8062329881081347  1.0000
  C   C4        1.0  0.5435323907401185  0.25594162527102404  0.8867651453594667  1.0000
  C   C5        1.0  0.4703300910397826  0.2776765294841643  0.8451877326209261  1.0000
  C   C6        1.0  0.4576154396909307  0.34142679271245013  0.7219769097492923  1.0000
  C   C7        1.0  0.3798447022834742  0.36449283607250704  0.6776181488542761  1.0000
  C   C8        1.0  0.36106827640243766  0.34766283321584335  0.5480267853983432  1.0000
  C   C9        1.0  0.2878360438631112  0.3693590215972553  0.5064053063885696  1.0000
  C   C10       1.0  0.2324371152118036  0.40820403609758804  0.5935547311404628  1.0000
  C   C11       1.0  0.1570680527519376  0.43055918902865575  0.5505716144569957  1.0000
  N   N2        1.0  0.09647670025806092  0.4485310712023838  0.5160163169554108  1.0000
  C   C12       1.0  0.2505219454493896  0.42524480769834816  0.7226148391883842  1.0000
  C   C13       1.0  0.3237014171536398  0.40351360153612004  0.7644917877861643  1.0000
  C   C14       1.0  0.5197829198292834  0.3829693611478069  0.6414611715466787  1.0000
  H   H1        1.0  0.6613112881855336  0.28006196639234227  0.8396072919515738  1.0000
  H   H2        1.0  0.5527388340474878  0.2064543657494451  0.9815261711508128  1.0000
  H   H3        1.0  0.4236967337548416  0.2430969813407371  0.9086438617919674  1.0000
  H   H4        1.0  0.4027554083806738  0.31604190776512375  0.47931062613503594  1.0000
  H   H5        1.0  0.27440027151149093  0.3555108485568721  0.4063625256544505  1.0000
  H   H6        1.0  0.20811831245172221  0.4556427984504654  0.7908165013876522  1.0000
  H   H7        1.0  0.3366084223079938  0.41890734623490844  0.8643513708984336  1.0000
  H   H8        1.0  0.5112746483626999  0.4338189841516402  0.5469341186294314  1.0000
  C   C15       1.0  0.9018936352305845  0.062401851730862434  0.5251656965392806  1.0000
  C   C16       1.0  0.8890643214603463  0.07184742378951414  0.3908196194414888  1.0000
  C   C17       1.0  0.8824868334344695  0.9594971255237471  0.32258896675889837  1.0000
  C   C18       1.0  0.8888847008230595  0.8365834174274933  0.39052013372321426  1.0000
  C   C19       1.0  0.901725851537502  0.8251828646543037  0.5249472618881619  1.0000
  C   C20       1.0  0.908154606116205  0.9386078319396489  0.5914422985608871  1.0000
  C   C21       1.0  0.8689158959813773  0.9704630920954714  0.18046699635122265  1.0000
  C   C22       1.0  0.9070178292063253  0.06553519284854303  0.09727122818825973  1.0000
  C   C23       1.0  0.8942528645279609  0.07572416296048812  0.9635246963730268  1.0000
  C   C24       1.0  0.8435978621292858  0.9901737939267277  0.9101183243678013  1.0000
  C   C25       1.0  0.8045782723862784  0.8968956930496378  0.9932885137867253  1.0000
  C   C26       1.0  0.8173706001359874  0.8864513848023374  0.1269964356890252  1.0000
  N   N3        1.0  0.8284153642240343  0.00010416206926056049  0.7732452720920606  1.0000
  C   C27       1.0  0.8832727367180097  0.038416458890286886  0.6724697133805919  1.0000
  O   O1        1.0  0.952191553284266  0.04261481626161667  0.6971329356580216  1.0000
  C   C28       1.0  0.8593099748871184  0.06433947617943936  0.5350252070357282  1.0000
  H   H9        1.0  0.9068516572126022  0.3862454370508115  0.5768341671369206  1.0000
  H   H10       1.0  0.883121961367633  0.16677007088494245  0.33927950877161916  1.0000
  H   H11       1.0  0.8848449232340234  0.7497084997235187  0.33807281311310855  1.0000
  H   H12       1.0  0.918052653000733  0.9306074614071161  0.695065672452589  1.0000
  H   H13       1.0  0.9264127059575582  0.5963925953374145  0.7785197223818459  1.0000
  H   H14       1.0  0.9471326623659029  0.13154196899092185  0.1355066411750967  1.0000
  H   H15       1.0  0.9230751746369602  0.1519060301216899  0.9025994027620987  1.0000
  H   H16       1.0  0.7643913667755541  0.8315915836392279  0.9541893050114876  1.0000
  H   H17       1.0  0.786134266402498  0.8138268093258713  0.18886681355538681  1.0000
  H   H18       1.0  0.7755027551564796  0.9699621299781688  0.7446237772472792  1.0000
  H   H19       1.0  0.8050803336222289  0.11646833508980348  0.5330878566458281  1.0000
  H   H20       1.0  0.8523594567738392  0.9705800745223614  0.4901182508474795  1.0000
  H   H21       1.0  0.9020790637132672  0.12549434294099981  0.47763828665021446  1.0000
  C   C29       1.0  0.9018203819072216  0.44391908298660443  0.1436390808527741  1.0000
  C   C30       1.0  0.8237142935125153  0.4618831925322393  0.14476804209990224  1.0000
  C   C31       1.0  0.7841450897004791  0.4708456986082472  0.028193285702601045  1.0000
  C   C32       1.0  0.8236919257079743  0.46161776958049905  0.9095094551349532  1.0000
  C   C33       1.0  0.9017990806979979  0.44366556649668243  0.9064738639209353  1.0000
  C   C34       1.0  0.9403631648161394  0.4349284182027777  0.02402868520306045  1.0000
  C   C35       1.0  0.70157124572592  0.489831652192396  0.030394498190125185  1.0000
  C   C36       1.0  0.6683824294640069  0.5769621640915343  0.11282478046305355  1.0000
  C   C37       1.0  0.5906557651832218  0.5947865991743189  0.11477731283513282  1.0000
  C   C38       1.0  0.5450836583885806  0.5258148413745944  0.03456341122281015  1.0000
  C   C39       1.0  0.5775309490476832  0.4389026496276318  0.9522714807400998  1.0000
  C   C40       1.0  0.6552496148304015  0.4209836484242704  0.9500827373354173  1.0000
  C   C41       1.0  0.4650639651509628  0.5442158140712445  0.03669419510592742  1.0000
  N   N4        1.0  0.4007335276069259  0.5590090783081421  0.03840723665744017  1.0000
  H   H22       1.0  0.049348203378210886  0.4091640444494682  0.3488962403289937  1.0000
  H   H23       1.0  0.7933727951883861  0.46715364668941883  0.23669004928044068  1.0000
  H   H24       1.0  0.7936322815979538  0.4702347148544499  0.8191978034117553  1.0000
  H   H25       1.0  0.000561035886765815  0.42108784484995154  0.02242369252878329  1.0000
  H   H26       1.0  0.04946535712103417  0.41055679906250186  0.6933461700281951  1.0000
  H   H27       1.0  0.7026382902289436  0.6325675053446165  0.1745217267509791  1.0000
  H   H28       1.0  0.5661495001918558  0.6625860569064812  0.17860142323100892  1.0000
  H   H29       1.0  0.542755524474352  0.3847349430098441  0.8900264889168628  1.0000
  H   H30       1.0  0.679018509722583  0.3520359884398139  0.8868399639373172  1.0000
  Zn  Zn1       1.0  0.8194910178258724  0.4417921128123372  0.5288788274560106  1.0000
  Zn  Zn2       1.0  0.9841212502694149  0.44579176937830756  0.521233884784404  1.0000
  C   C42       1.0  0.9018025670650893  0.43853943271987883  0.7622833395897248  1.0000
  C   C43       1.0  0.9018114984231411  0.4490461318382588  0.2878294161815709  1.0000
  C   C44       1.0  0.9017538230488702  0.681002613918704  0.5198129141592887  1.0000
  C   C45       1.0  0.9018601866039203  0.2065813888403505  0.5302999139149398  1.0000
  O   O2        1.0  0.9642848335259204  0.4522789989553542  0.3333197956334375  1.0000
  O   O3        1.0  0.9642797693286737  0.43834123272409475  0.7109902519290279  1.0000
  O   O4        1.0  0.9642395656707965  0.6341332969974778  0.5151937065991148  1.0000
  O   O5        1.0  0.964324981007327  0.2564869426403895  0.5291162461823418  1.0000
  O   O6        1.0  0.8392872309077417  0.6310969381867853  0.5209964686600841  1.0000
  O   O7        1.0  0.8393274342208401  0.4353064343490147  0.7167929442890757  1.0000
  O   O8        1.0  0.8393324985216182  0.44924415584127786  0.33912092640490266  1.0000
  O   O9        1.0  0.8393726459992765  0.2534520902044253  0.5349174743368275  1.0000
