data_image0
_chemical_formula_structural       NC8NC6H8C16H10C12IH9Zn2C4O8
_chemical_formula_sum              "N2 C46 H27 I1 Zn2 O8"
_cell_length_a       17.457602349358154
_cell_length_b       10.29914801576943
_cell_length_c       10.29977335064465
_cell_angle_alpha    85.52085607386434
_cell_angle_beta     92.8856157993103
_cell_angle_gamma    91.70309287404056

_space_group_name_H-M_alt    "P 1"
_space_group_IT_number       1

loop_
  _space_group_symop_operation_xyz
  'x, y, z'

loop_
  _atom_site_type_symbol
  _atom_site_label
  _atom_site_symmetry_multiplicity
  _atom_site_fract_x
  _atom_site_fract_y
  _atom_site_fract_z
  _atom_site_occupancy
  N   N1        1.0  0.7225013192275148  0.4533358707910966  0.625900227986671  1.0000
  C   C1        1.0  0.6614157918400242  0.4074096603001345  0.615303123472188  1.0000
  C   C2        1.0  0.5854228144701671  0.35028316668311277  0.6021298651791351  1.0000
  C   C3        1.0  0.5269071190316443  0.3904277723707177  0.6770118980578788  1.0000
  C   C4        1.0  0.4523525866639951  0.3354195528619781  0.664452220214313  1.0000
  C   C5        1.0  0.3902467401321903  0.377806278084442  0.7437551852017061  1.0000
  C   C6        1.0  0.3156973737402567  0.39629165710847003  0.6879836046341914  1.0000
  C   C7        1.0  0.2571816594729927  0.43625229179298075  0.7629736672263234  1.0000
  C   C8        1.0  0.1811940120705659  0.4553441874396156  0.7049863571805826  1.0000
  N   N2        1.0  0.12011285916723591  0.470687691255427  0.6583647135539465  1.0000
  C   C9        1.0  0.2727232324752573  0.4579705692903544  0.894243733800024  1.0000
  C   C10       1.0  0.3464879877270806  0.43987410316529574  0.950402757665693  1.0000
  C   C11       1.0  0.404992166750584  0.4000934117907349  0.8758703474253196  1.0000
  C   C12       1.0  0.4376021611569053  0.23958964602385868  0.5755778520522552  1.0000
  C   C13       1.0  0.49610621671295346  0.19972363368925006  0.5010957127636948  1.0000
  C   C14       1.0  0.5698760522502226  0.25484408653935553  0.5142052999338558  1.0000
  H   H1        1.0  0.5392683162728652  0.4656101348174444  0.743612601309783  1.0000
  H   H2        1.0  0.3033404455307213  0.3813482765997174  0.5859642367478473  1.0000
  H   H3        1.0  0.2278723249202258  0.48883973144091253  0.9530675509819884  1.0000
  H   H4        1.0  0.35833139217419  0.4563753803679138  0.052048226371654516  1.0000
  H   H5        1.0  0.46148005554361643  0.38508758671096066  0.9219833595599976  1.0000
  H   H6        1.0  0.3811099927706637  0.19425316407003557  0.5649443899019939  1.0000
  H   H7        1.0  0.4842588742330032  0.12565815920712042  0.4332962214894325  1.0000
  H   H8        1.0  0.614726928187769  0.22310501091845025  0.45589296722984285  1.0000
  C   C15       1.0  0.9212561388506526  0.08060812018673813  0.6422938604294612  1.0000
  C   C16       1.0  0.9037257544180984  0.08948030075657609  0.5073886583312013  1.0000
  C   C17       1.0  0.8948938411294995  0.9768514311706011  0.4388288555846127  1.0000
  C   C18       1.0  0.9038281317501832  0.8542330698110393  0.5069924273478299  1.0000
  C   C19       1.0  0.9213653630149253  0.8434057215055834  0.6419829413048499  1.0000
  C   C20       1.0  0.9299727576972953  0.9571050090659592  0.7088025880721953  1.0000
  C   C21       1.0  0.8763489979477646  0.9872827421479764  0.29611543683614694  1.0000
  C   C22       1.0  0.9126395250685907  0.9079058804651214  0.21386089257196472  1.0000
  C   C23       1.0  0.8951589546219025  0.9178474775955001  0.0795423294200217  1.0000
  C   C24       1.0  0.8412083216840759  0.007058929679467418  0.02565939796201744  1.0000
  C   C25       1.0  0.804777776329602  0.08641036576985961  0.10661857010591569  1.0000
  C   C26       1.0  0.8222036473496663  0.07670764122988372  0.24095361367864254  1.0000
  C   C27       1.0  0.8232403696896945  0.017171347938578663  0.887368298592544  1.0000
  C   C28       1.0  0.8081924036411064  0.025640402259479833  0.7715514980751932  1.0000
  C   C29       1.0  0.7905714130837336  0.03555754964753577  0.635931207652793  1.0000
  C   C30       1.0  0.7755259724529971  0.04402533167519862  0.5201331210806694  1.0000
  H   H9        1.0  0.9279596205464405  0.404668373431732  0.6941950524096281  1.0000
  H   H10       1.0  0.8979330237070061  0.18429776235301176  0.4550056513492393  1.0000
  H   H11       1.0  0.8960551527328984  0.7670153876787518  0.4549423166942077  1.0000
  H   H12       1.0  0.9434921492411884  0.9495456795649848  0.8128591057107157  1.0000
  H   H13       1.0  0.9539908668492543  0.6156423210094919  0.8969099060792587  1.0000
  H   H14       1.0  0.9552623937632521  0.8393509575480586  0.25319066018915604  1.0000
  H   H15       1.0  0.9238565524730208  0.8561953818145488  0.01771065295626917  1.0000
  H   H16       1.0  0.7627650105819274  0.15555665952985764  0.06596872511489549  1.0000
  H   H17       1.0  0.7926116045537015  0.137931127095416  0.3019094731629439  1.0000
  H   H18       1.0  0.7623148642623707  0.05146076218699913  0.4184526416126473  1.0000
  C   C31       1.0  0.9212741932240947  0.46211141850781345  0.26076616208293846  1.0000
  C   C32       1.0  0.9908316449110035  0.5341563116599319  0.2600792886716252  1.0000
  C   C33       1.0  0.026113825061279128  0.570555795456893  0.1426042643825114  1.0000
  C   C34       1.0  0.9909054138431415  0.5339453561368053  0.02481578825493891  1.0000
  C   C35       1.0  0.9213473199130403  0.4619024400746303  0.023510650185250892  1.0000
  C   C36       1.0  0.8869215032225284  0.4263878377579522  0.14198567893596215  1.0000
  C   C37       1.0  0.09969950453650456  0.6467709477877357  0.14293160379110947  1.0000
  C   C38       1.0  0.11178311015349873  0.7503261810837478  0.22368563370325534  1.0000
  C   C39       1.0  0.18108208814157822  0.8219484897027738  0.22379521630987664  1.0000
  C   C40       1.0  0.2390677569106312  0.7911165284208701  0.14355431513597594  1.0000
  C   C41       1.0  0.22772434609800363  0.688479870436103  0.06300309015345595  1.0000
  C   C42       1.0  0.15850316685187904  0.6166349657345402  0.06249401283712697  1.0000
  I   I1        1.0  0.3435456166574169  0.8993236082993952  0.1440230963151421  1.0000
  H   H19       1.0  0.8947473555668751  0.4347230805346629  0.5884745338500164  1.0000
  H   H20       1.0  0.018270147540311532  0.5606028722924674  0.3512858869298068  1.0000
  H   H21       1.0  0.01733168212382985  0.5632887191005522  0.9338488378400003  1.0000
  H   H22       1.0  0.8332606654155785  0.3708095999205592  0.14174717542422388  1.0000
  H   H23       1.0  0.8948544459103613  0.43441558576027806  0.6955635688915818  1.0000
  H   H24       1.0  0.06729950075266622  0.7769652684734059  0.2854323183719114  1.0000
  H   H25       1.0  0.18958438430629676  0.9016032509810501  0.28604203681913054  1.0000
  H   H26       1.0  0.2725850788975621  0.6640936602257255  0.0009951186346133234  1.0000
  H   H27       1.0  0.15133405322230176  0.5364974517422789  0.0005171818138998141  1.0000
  Zn  Zn1       1.0  0.8372434210245149  0.4583397462815981  0.6352762772033336  1.0000
  Zn  Zn2       1.0  0.005370742614748014  0.4656731640578542  0.6489993012979047  1.0000
  C   C43       1.0  0.9213310410221082  0.4567677122610263  0.8793375485457577  1.0000
  C   C44       1.0  0.9212849588091698  0.4672469168936668  0.4049383066100092  1.0000
  C   C45       1.0  0.92134027852806  0.6992219943283475  0.6368661509903148  1.0000
  C   C46       1.0  0.9212756637162974  0.2247910718596886  0.647409769358072  1.0000
  O   O1        1.0  0.9850920133670542  0.4717477646333037  0.4585316137776334  1.0000
  O   O2        1.0  0.9851287331736499  0.45783177922014096  0.8361593256868789  1.0000
  O   O3        1.0  0.9851353326050695  0.6536166403563193  0.6403618858801163  1.0000
  O   O4        1.0  0.9850853565571636  0.2759629103124783  0.6543289515223567  1.0000
  O   O5        1.0  0.8575287497084954  0.6480499975258542  0.6299466222890551  1.0000
  O   O6        1.0  0.8575221504903922  0.45226669685521337  0.8257439922133718  1.0000
  O   O7        1.0  0.8574854305786515  0.4661826374383029  0.4481147189125001  1.0000
  O   O8        1.0  0.8574787737736278  0.2703977738010048  0.643912154029437  1.0000
