data_image0
_chemical_formula_structural       NC9NC5H8C12OCH12C16H10Zn2C4O8
_chemical_formula_sum              "N2 C47 H30 O9 Zn2"
_cell_length_a       17.807436237873137
_cell_length_b       10.29979075500242
_cell_length_c       10.299151387937775
_cell_angle_alpha    85.5809823184421
_cell_angle_beta     89.38153663469635
_cell_angle_gamma    88.37243818242351

_space_group_name_H-M_alt    "P 1"
_space_group_IT_number       1

loop_
  _space_group_symop_operation_xyz
  'x, y, z'

loop_
  _atom_site_type_symbol
  _atom_site_label
  _atom_site_symmetry_multiplicity
  _atom_site_fract_x
  _atom_site_fract_y
  _atom_site_fract_z
  _atom_site_occupancy
  N   N1        1.0  0.7073310532454089  0.38712345458478925  0.5570004083366329  1.0000
  C   C1        1.0  0.6467510258021081  0.3519287318054569  0.5459793659641301  1.0000
  C   C2        1.0  0.5713961299710155  0.3081503725060599  0.5322703859001963  1.0000
  C   C3        1.0  0.5533294328129313  0.23668869056562314  0.4272726817052108  1.0000
  C   C4        1.0  0.4801637462724044  0.1940717440145867  0.41387952587496923  1.0000
  C   C5        1.0  0.424016109018947  0.2225389340352033  0.5054516541592442  1.0000
  C   C6        1.0  0.3462598152288033  0.1773630489670952  0.49130026332380816  1.0000
  C   C7        1.0  0.2840659948268529  0.25913096860067086  0.5172324984272321  1.0000
  C   C8        1.0  0.2107580378353894  0.21631098925375158  0.5038530409567068  1.0000
  C   C9        1.0  0.1475136089638878  0.30077043146431337  0.5301489550307055  1.0000
  N   N2        1.0  0.0966780775628919  0.36866998024288766  0.5512901439453686  1.0000
  C   C10       1.0  0.1990604050226242  0.09146509818026205  0.4645160201757259  1.0000
  C   C11       1.0  0.260396859020922  0.009683322494820512  0.4385753964719954  1.0000
  C   C12       1.0  0.333585477202765  0.05210866993309371  0.4517523471235376  1.0000
  C   C13       1.0  0.4427740978667788  0.2944950809621365  0.6106685481466838  1.0000
  C   C14       1.0  0.5159927073670111  0.33692156370082493  0.6239060679561153  1.0000
  H   H1        1.0  0.5957365764772085  0.2141717206998508  0.35556121572109967  1.0000
  H   H2        1.0  0.4672702333041197  0.14035266431144722  0.33096289673829316  1.0000
  H   H3        1.0  0.2925428696450223  0.3566089443494236  0.546101546361071  1.0000
  H   H4        1.0  0.1426026292734998  0.05742425279928498  0.4539239235171384  1.0000
  H   H5        1.0  0.2512216320897952  0.9130249190068196  0.40850585781478244  1.0000
  H   H6        1.0  0.3802401505493049  0.9863549978480481  0.4327093408134983  1.0000
  H   H7        1.0  0.401083781352948  0.31647357126283815  0.6836745690081989  1.0000
  H   H8        1.0  0.5294144732087998  0.39186077334280633  0.7057809583916137  1.0000
  C   C15       1.0  0.9020756629477106  0.9965256222797655  0.5541832061829421  1.0000
  C   C16       1.0  0.8803137008926691  0.9864469498454593  0.6859413260267255  1.0000
  C   C17       1.0  0.8692271353091785  0.8642065359190686  0.7526718901846152  1.0000
  C   C18       1.0  0.8801787376059039  0.7511710253092756  0.6858775198870954  1.0000
  C   C19       1.0  0.9019406664178552  0.7592574841534941  0.5541184680098117  1.0000
  C   C20       1.0  0.9127690232501064  0.8823819351117216  0.4890097184078597  1.0000
  C   C21       1.0  0.8462087890541105  0.8545977585091366  0.8920657718688054  1.0000
  C   C22       1.0  0.7913875228238912  0.7663490296455112  0.9379356489067456  1.0000
  C   C23       1.0  0.769790935041829  0.7575759116241113  0.06899231654721938  1.0000
  C   C24       1.0  0.8025294109051216  0.8364067344577106  0.15586092838118215  1.0000
  C   C25       1.0  0.857550466726686  0.9252558761230008  0.11185983956064294  1.0000
  C   C26       1.0  0.8789142138310211  0.9336786179400433  0.98027988355407  1.0000
  O   O1        1.0  0.892267217420164  0.006346076974803383  0.1952196728116552  1.0000
  C   C27       1.0  0.876145262583038  0.008144823856820471  0.3307931339985932  1.0000
  H   H9        1.0  0.9104007783984612  0.327815957343091  0.5039985166861662  1.0000
  H   H10       1.0  0.8709392149119525  0.07393883680719338  0.7365079145750646  1.0000
  H   H11       1.0  0.8726834821273114  0.6566477752073502  0.7373556668330334  1.0000
  H   H12       1.0  0.9295580357210641  0.88938878119624  0.3873638872253151  1.0000
  H   H13       1.0  0.9101955748799634  0.43488909519043617  0.5038971728291861  1.0000
  H   H14       1.0  0.7645240565318497  0.705365370467874  0.8721196590498104  1.0000
  H   H15       1.0  0.7273573941611654  0.689631213247424  0.10329367835314929  1.0000
  H   H16       1.0  0.7847140280390376  0.8275439673378728  0.2567894774816091  1.0000
  H   H17       1.0  0.9219537481816354  0.0011690211210482193  0.9474825019330912  1.0000
  H   H18       1.0  0.8891170617252018  0.9110222634314311  0.38122580814225016  1.0000
  H   H19       1.0  0.9115921015803545  0.08112156159940076  0.37248786310434356  1.0000
  H   H20       1.0  0.8161700799304719  0.035904134258839315  0.34610832228698174  1.0000
  C   C28       1.0  0.9020517233392281  0.3777207555580151  0.17277925816284978  1.0000
  C   C29       1.0  0.8295555746007109  0.43510959170849417  0.16892931474934425  1.0000
  C   C30       1.0  0.7927536897350281  0.46438298314618187  0.04982200114963575  1.0000
  C   C31       1.0  0.8294248166813134  0.4354933816995248  0.9336188652408315  1.0000
  C   C32       1.0  0.9019645724681402  0.3780623345735987  0.935522483457738  1.0000
  C   C33       1.0  0.9378321905758678  0.3495314902045483  0.05553578394320402  1.0000
  C   C34       1.0  0.716061544266438  0.5250937324852827  0.04679463482768709  1.0000
  C   C35       1.0  0.6969616580842884  0.6258108864757945  0.9517612525488461  1.0000
  C   C36       1.0  0.6247666358654083  0.6829132181850717  0.9490403521515276  1.0000
  C   C37       1.0  0.5707244097521675  0.6401517323487591  0.04106491187534189  1.0000
  C   C38       1.0  0.5891433041867226  0.5400251910409359  0.13594614003471817  1.0000
  C   C39       1.0  0.6613167884259699  0.4828362876809813  0.13891692891950336  1.0000
  C   C40       1.0  0.49640997815186716  0.6989842330644322  0.03813558697884023  1.0000
  C   C41       1.0  0.4341726903210191  0.748255566624447  0.03568223360144862  1.0000
  C   C42       1.0  0.3612934734347007  0.8059518527123513  0.03280938084691587  1.0000
  C   C43       1.0  0.2990662432296915  0.8552154616593632  0.03035653043286879  1.0000
  H   H21       1.0  0.9299208833920125  0.3555847429829222  0.5017407949417301  1.0000
  H   H22       1.0  0.8019475687451698  0.4588123795280743  0.258636115257616  1.0000
  H   H23       1.0  0.8009145443749561  0.45622357399727664  0.8416624133869872  1.0000
  H   H24       1.0  0.9937494247480928  0.30526249524075966  0.05778988361781945  1.0000
  H   H25       1.0  0.03869094455861455  0.26891484939422905  0.7318841745087847  1.0000
  H   H26       1.0  0.738140932383201  0.661561001441054  0.880607604219136  1.0000
  H   H27       1.0  0.6111665064971972  0.760606687159554  0.875380645216449  1.0000
  H   H28       1.0  0.5476723299970125  0.505930091352218  0.20743533132384084  1.0000
  H   H29       1.0  0.674029227146133  0.40442325820334113  0.21219670416929626  1.0000
  H   H30       1.0  0.2444255973850154  0.8984729153330027  0.028202732635803418  1.0000
  Zn  Zn1       1.0  0.8196881926672107  0.38179471856627334  0.5553600605210067  1.0000
  Zn  Zn2       1.0  0.9843209205981218  0.3739881348132088  0.55294116934606  1.0000
  C   C44       1.0  0.9019802931625819  0.37282418048491084  0.7913481283032155  1.0000
  C   C45       1.0  0.9020306175823863  0.38296022633228644  0.3169532024780042  1.0000
  C   C46       1.0  0.9019628892613293  0.6150828167964737  0.5489555917244902  1.0000
  C   C47       1.0  0.9020479655742931  0.14070003240472007  0.5593458092535832  1.0000
  O   O2        1.0  0.9645007975596547  0.3817504169658825  0.3644213391212219  1.0000
  O   O3        1.0  0.964462544558999  0.3681079935196485  0.7420437354619707  1.0000
  O   O4        1.0  0.9644476483109794  0.5637349466613757  0.5463100594673811  1.0000
  O   O5        1.0  0.9645156376391566  0.18612347573467103  0.5601549185650732  1.0000
  O   O6        1.0  0.839493419445106  0.5696593803102254  0.5481463121206109  1.0000
  O   O7        1.0  0.8395083154214018  0.3740339874499161  0.7438799187369645  1.0000
  O   O8        1.0  0.83954656865842  0.387676364938232  0.3662559609876297  1.0000
  O   O9        1.0  0.8395614087253699  0.1920494144619196  0.5619896378008371  1.0000
