data_image0
_chemical_formula_structural       NC12NC2H8C12ClH9C12SCH12Zn2C4O8
_chemical_formula_sum              "N2 C43 H29 Cl1 S1 Zn2 O8"
_cell_length_a       19.240039667572717
_cell_length_b       10.299768534541528
_cell_length_c       10.299780138516091
_cell_angle_alpha    85.57853540926422
_cell_angle_beta     89.99202709574732
_cell_angle_gamma    90.01670575511149

_space_group_name_H-M_alt    "P 1"
_space_group_IT_number       1

loop_
  _space_group_symop_operation_xyz
  'x, y, z'

loop_
  _atom_site_type_symbol
  _atom_site_label
  _atom_site_symmetry_multiplicity
  _atom_site_fract_x
  _atom_site_fract_y
  _atom_site_fract_z
  _atom_site_occupancy
  N   N1        1.0  0.6548055999622213  0.42085498106057884  0.5675979685579524  1.0000
  C   C1        1.0  0.5946572311641477  0.42085506501784087  0.5675978866296023  1.0000
  C   C2        1.0  0.5198391940515118  0.42085518226357377  0.5675977493379389  1.0000
  C   C3        1.0  0.48334772036372936  0.3564197239028579  0.6710013179896432  1.0000
  C   C4        1.0  0.4106769485146272  0.35630886817343366  0.6710878497690183  1.0000
  C   C5        1.0  0.373506959145577  0.42085527476354345  0.5675975216718974  1.0000
  C   C6        1.0  0.4107126481784442  0.4854018683930392  0.4641073881179263  1.0000
  C   C7        1.0  0.4833833128471884  0.48529077720107416  0.4641940423783226  1.0000
  C   C8        1.0  0.296301868700775  0.4208551960762368  0.5675974262558665  1.0000
  C   C9        1.0  0.2590932649302727  0.30760735404190376  0.6094593332814502  1.0000
  C   C10       1.0  0.18642260002957156  0.3077142274410283  0.609368018485289  1.0000
  C   C11       1.0  0.1499695817528822  0.42085506692182784  0.5675974871554992  1.0000
  C   C12       1.0  0.0751515445616662  0.42085495325020505  0.5675977357982038  1.0000
  N   N2        1.0  0.015003227687680398  0.4208549124858132  0.567597944205732  1.0000
  C   C13       1.0  0.1864640743485782  0.5339959822145743  0.5258269029419746  1.0000
  C   C14       1.0  0.2591347940901091  0.5341030356870116  0.525735425569569  1.0000
  H   H1        1.0  0.5110487858668257  0.3065325813721498  0.7517359128097356  1.0000
  H   H2        1.0  0.3835698828185559  0.3072201169271347  0.752937950637385  1.0000
  H   H3        1.0  0.38363318309439454  0.5344906466771697  0.3822572364050656  1.0000
  H   H4        1.0  0.5111120187709948  0.5351778195479824  0.3834597233351673  1.0000
  H   H5        1.0  0.2861703040501643  0.21846164023226833  0.6406200690212449  1.0000
  H   H6        1.0  0.1586915854413652  0.21946797562134202  0.6415617301276502  1.0000
  H   H7        1.0  0.15876526548408176  0.6222422095017486  0.4936332058478876  1.0000
  H   H8        1.0  0.2862442338031183  0.6232488286598588  0.4945746450651123  1.0000
  C   C15       1.0  0.8348421991177858  0.03948956321397423  0.5675958176168607  1.0000
  C   C16       1.0  0.8394298042897603  0.04901663096477238  0.43113322161708756  1.0000
  C   C17       1.0  0.8418211971184374  0.9367047068313413  0.36199392744472014  1.0000
  C   C18       1.0  0.8395625468789905  0.8137289178803987  0.4311487108307206  1.0000
  C   C19       1.0  0.8349733066762884  0.8022103210747268  0.5676112447839565  1.0000
  C   C20       1.0  0.8326393446368674  0.9156475416379375  0.6350706070613659  1.0000
  C   C21       1.0  0.8466754250624245  0.9478372181049218  0.21762787695479902  1.0000
  C   C22       1.0  0.8071409164279829  0.041356223423203  0.14316753524751058  1.0000
  C   C23       1.0  0.811771779551248  0.05163866763701974  0.007294090204860382  1.0000
  C   C24       1.0  0.8558701575065089  0.9689237624146483  0.9441892075471854  1.0000
  C   C25       1.0  0.8953933875248208  0.8757165737508161  0.017138398847407865  1.0000
  C   C26       1.0  0.8908859492544069  0.8650418824248378  0.15302648645224903  1.0000
  Cl  Cl1       1.0  0.8616028222297475  0.982070659440203  0.7737121180883055  1.0000
  H   H9        1.0  0.8330584344892817  0.3633130308040229  0.6195915312783677  1.0000
  H   H10       1.0  0.8421132871631094  0.1440140722262151  0.37840307798677153  1.0000
  H   H11       1.0  0.8404322459055837  0.7268801434387094  0.37820502214925744  1.0000
  H   H12       1.0  0.8290995145367545  0.9075296587096978  0.7403452181165016  1.0000
  H   H13       1.0  0.833252264054386  0.4703674520189554  0.6196147590543877  1.0000
  H   H14       1.0  0.7719961909943536  0.10534537977355907  0.18990883957391214  1.0000
  H   H15       1.0  0.7809172557400157  0.12373670685884508  0.9511849394598078  1.0000
  H   H16       1.0  0.929763124301613  0.8116803241787565  0.968707695068713  1.0000
  H   H17       1.0  0.9226225348737327  0.7932367291620335  0.20764140121033248  1.0000
  C   C27       1.0  0.8349356661400597  0.4207386609638353  0.18625143282899081  1.0000
  C   C28       1.0  0.7688417260840668  0.36272767390807403  0.18974468456372895  1.0000
  C   C29       1.0  0.7353239245163821  0.33344731034598385  0.07436782867445557  1.0000
  C   C30       1.0  0.7687848638586072  0.362953110747001  0.9544407926537732  1.0000
  C   C31       1.0  0.8348798397264632  0.4209612743466449  0.9489557025645086  1.0000
  C   C32       1.0  0.8675850968850959  0.44952999979498864  0.06538401549490591  1.0000
  C   C33       1.0  0.6654011281166669  0.2720915759930289  0.07912620561664663  1.0000
  C   C34       1.0  0.6139342868048984  0.3137521674474768  0.9881705846506108  1.0000
  C   C35       1.0  0.5481381808217769  0.2559740517785747  0.9928856766896099  1.0000
  C   C36       1.0  0.5328493556098626  0.1561651941429536  0.08844638341606537  1.0000
  C   C37       1.0  0.5836974981597713  0.11370567747668736  0.17899633781801416  1.0000
  C   C38       1.0  0.6495365729247075  0.1713103649358616  0.17464365017304484  1.0000
  S   S1        1.0  0.4484523923512448  0.0818947281446396  0.09404627452079817  1.0000
  C   C39       1.0  0.412829929114343  0.1961089000207663  0.20277755644792106  1.0000
  H   H18       1.0  0.8601306100451936  0.4427959811755957  0.512377352476757  1.0000
  H   H19       1.0  0.7428636698074075  0.3418055585675812  0.28229361098771566  1.0000
  H   H20       1.0  0.7435772380778953  0.338951939989909  0.865368100654456  1.0000
  H   H21       1.0  0.9185739196616903  0.494282223377964  0.06192074839684669  1.0000
  H   H22       1.0  0.8600496653524853  0.44312344193021747  0.6194077903900852  1.0000
  H   H23       1.0  0.6242827479433014  0.3921192354734344  0.9144939178009164  1.0000
  H   H24       1.0  0.5089832276455668  0.28930701635451284  0.922555055606264  1.0000
  H   H25       1.0  0.5722868775667054  0.03603457773243579  0.25279788352997756  1.0000
  H   H26       1.0  0.6883172310549032  0.13592643152154915  0.24487341458509548  1.0000
  H   H27       1.0  0.442218618080285  0.1900788484700744  0.29579153950674897  1.0000
  H   H28       1.0  0.35767003458377283  0.17098039405372067  0.22354940301328874  1.0000
  H   H29       1.0  0.41553380794507955  0.2968299518569586  0.15618830647062198  1.0000
  Zn  Zn1       1.0  0.7587508626541595  0.4208514962867511  0.5676054495561842  1.0000
  Zn  Zn2       1.0  0.9110579811701158  0.4208478069706041  0.567601061425701  1.0000
  C   C40       1.0  0.834887945428346  0.4157455588792429  0.8047881367081988  1.0000
  C   C41       1.0  0.8349225618572488  0.42595538297947355  0.3304185017198473  1.0000
  C   C42       1.0  0.8349453201156295  0.6580383873073175  0.5624334219252116  1.0000
  C   C43       1.0  0.8348651349249323  0.1836609942846983  0.5727732857082608  1.0000
  O   O1        1.0  0.8927179206879662  0.42769909677793216  0.3788006216344715  1.0000
  O   O2        1.0  0.8926901652633769  0.4139980651526338  0.7564023124546251  1.0000
  O   O3        1.0  0.8927357167817296  0.6096525887323212  0.5606991656173894  1.0000
  O   O4        1.0  0.892672317206236  0.23204458246122073  0.5745036711030127  1.0000
  O   O5        1.0  0.7771364746430954  0.6096547207988054  0.560702839873539  1.0000
  O   O6        1.0  0.7770909233948319  0.4140017574884889  0.7564059175000148  1.0000
  O   O7        1.0  0.777118678972165  0.427702743402542  0.3788026653470127  1.0000
  O   O8        1.0  0.7770730754788686  0.23204821982552515  0.5745058121789153  1.0000
