data_image0
_chemical_formula_structural       NC12NC2H8C12ClH9C13NH9Zn2C4O8
_chemical_formula_sum              "N3 C43 H26 Cl1 Zn2 O8"
_cell_length_a       19.240039667572717
_cell_length_b       10.299768534541528
_cell_length_c       10.298528502251457
_cell_angle_alpha    85.54291766685282
_cell_angle_beta     89.99709375093414
_cell_angle_gamma    90.01670575511149

_space_group_name_H-M_alt    "P 1"
_space_group_IT_number       1

loop_
  _space_group_symop_operation_xyz
  'x, y, z'

loop_
  _atom_site_type_symbol
  _atom_site_label
  _atom_site_symmetry_multiplicity
  _atom_site_fract_x
  _atom_site_fract_y
  _atom_site_fract_z
  _atom_site_occupancy
  N   N1        1.0  0.6547379325079683  0.42174809328280616  0.567354755545441  1.0000
  C   C1        1.0  0.5945895637060246  0.4217481772911511  0.5673546736031803  1.0000
  C   C2        1.0  0.5197715265869028  0.421748294622486  0.5673545362882051  1.0000
  C   C3        1.0  0.48328493774017606  0.3572483634469059  0.6707756622268195  1.0000
  C   C4        1.0  0.4106141699788824  0.3571374537643397  0.6708622086987561  1.0000
  C   C5        1.0  0.3734392916702129  0.4217483872644072  0.5673543085835075  1.0000
  C   C6        1.0  0.41064009177265115  0.48635950768256153  0.4638466030444415  1.0000
  C   C7        1.0  0.4833107605349901  0.48624836246108694  0.46393327201819545  1.0000
  C   C8        1.0  0.2962342012209034  0.4217483086365932  0.5673542131512754  1.0000
  C   C9        1.0  0.25902757502975127  0.30847436542396656  0.6092232280699601  1.0000
  C   C10       1.0  0.1863569058152894  0.3085812957584757  0.6091318977691107  1.0000
  C   C11       1.0  0.1499019142758876  0.4217481794442124  0.5673542740612487  1.0000
  C   C12       1.0  0.0750838770964176  0.4217480656175594  0.5673545227461716  1.0000
  N   N2        1.0  0.014935560232277  0.42174802472322415  0.5673547311890859  1.0000
  C   C13       1.0  0.1863944336063728  0.5349151389748699  0.5255765974606721  1.0000
  C   C14       1.0  0.25906514902646277  0.5350222494840591  0.5254851045559739  1.0000
  H   H1        1.0  0.5109898171896238  0.3073108823577426  0.7515239652821624  1.0000
  H   H2        1.0  0.38351097092627734  0.307997668434123  0.7527262072084058  1.0000
  H   H3        1.0  0.3835567600427335  0.5354993200823115  0.3819825536816639  1.0000
  H   H4        1.0  0.5110356525254728  0.536185743194501  0.38318524478661486  1.0000
  H   H5        1.0  0.2861060861998173  0.21930922268772268  0.640389254710106  1.0000
  H   H6        1.0  0.1586274120756032  0.2203149709448149  0.6413310757047477  1.0000
  H   H7        1.0  0.15869410389404356  0.6231814392469477  0.49337743407577994  1.0000
  H   H8        1.0  0.2861731166871829  0.6241874714114266  0.4943190331435652  1.0000
  C   C15       1.0  0.8347745315619212  0.04038267677732765  0.5673526042391333  1.0000
  C   C16       1.0  0.8393556901663336  0.04999482986708026  0.4308668377339151  1.0000
  C   C17       1.0  0.8417438168169945  0.9377260145447974  0.3617158041366868  1.0000
  C   C18       1.0  0.8394884334872827  0.8147071071250785  0.4308823295775208  1.0000
  C   C19       1.0  0.8349056398492115  0.8031034250191386  0.5673680340256659  1.0000
  C   C20       1.0  0.8325748646269068  0.9164985842199447  0.6348388504858826  1.0000
  C   C21       1.0  0.8465912248299129  0.9489485390139311  0.2173252411835931  1.0000
  C   C22       1.0  0.8070531986482633  0.04251397085199571  0.1428522565704573  1.0000
  C   C23       1.0  0.811677643035779  0.052881133065214136  0.0069557410565539435  1.0000
  C   C24       1.0  0.8557730398819194  0.9702055741581558  0.9438401435798003  1.0000
  C   C25       1.0  0.8952997160598684  0.8769529011869004  0.016801721201869846  1.0000
  C   C26       1.0  0.8907986972169266  0.8661934827317845  0.15271288176418096  1.0000
  Cl  Cl1       1.0  0.861497651174348  0.9834587647862489  0.7733341081647005  1.0000
  H   H9        1.0  0.8329932232393273  0.3641737246930421  0.6193571464514795  1.0000
  H   H10       1.0  0.8420366820388997  0.14502514872484173  0.3781277408510899  1.0000
  H   H11       1.0  0.840355631425108  0.7278913434264721  0.3779296513849184  1.0000
  H   H12       1.0  0.8290400077569144  0.9083150618694199  0.7401313365193649  1.0000
  H   H13       1.0  0.8331870539017244  0.4712281314253018  0.6193803781714318  1.0000
  H   H14       1.0  0.7719106812993776  0.10647398368729011  0.18960149728146636  1.0000
  H   H15       1.0  0.7808204685976222  0.12501415671683636  0.950837063324466  1.0000
  H   H16       1.0  0.9296671649437643  0.8129468484817303  0.9683627941889812  1.0000
  H   H17       1.0  0.9225378628746526  0.7943542767052894  0.20733706979726296  1.0000
  C   C27       1.0  0.8348499836671918  0.4218695452950709  0.18594346953148277  1.0000
  C   C28       1.0  0.7625978488412067  0.44173130132004146  0.18345378950220903  1.0000
  C   C29       1.0  0.7259942554265425  0.45165518277295047  0.06504575507546839  1.0000
  C   C30       1.0  0.7625770559046378  0.44146644460709816  0.9481940805140825  1.0000
  C   C31       1.0  0.8348301819477301  0.4216165681063848  0.9487771838418144  1.0000
  C   C32       1.0  0.870503985948236  0.4119424650686023  0.06811871429278793  1.0000
  C   C33       1.0  0.6496092155611802  0.4726473308188357  0.06342133414657636  1.0000
  C   C34       1.0  0.6189377027786948  0.5605774922416915  0.14433917236477778  1.0000
  C   C35       1.0  0.5470365350300956  0.580290359823602  0.1426906255075362  1.0000
  C   C36       1.0  0.5048501738938115  0.5124325049726999  0.06034020225142367  1.0000
  C   C37       1.0  0.534835755422945  0.4247386756023348  0.9795263762093818  1.0000
  C   C38       1.0  0.6067294879601948  0.40493144435186146  0.9809383109197687  1.0000
  C   C39       1.0  0.4308278552894833  0.5327776168999283  0.058763686851309505  1.0000
  N   N3        1.0  0.3713189025869817  0.5491338379723276  0.05749630980548237  1.0000
  H   H18       1.0  0.9713204701622798  0.38353027621884084  0.398035305776413  1.0000
  H   H19       1.0  0.7345297666670028  0.4477390690243743  0.27396953926925827  1.0000
  H   H20       1.0  0.7347709839316497  0.4508135681539036  0.8564903104767576  1.0000
  H   H21       1.0  0.9261901036941269  0.3966393385209823  0.06930267984334648  1.0000
  H   H22       1.0  0.971429376333689  0.38492006487941577  0.7424911130062091  1.0000
  H   H23       1.0  0.6506499615601962  0.6153452127429182  0.20764330095520478  1.0000
  H   H24       1.0  0.524390319949092  0.6486799783776167  0.2053990607693783  1.0000
  H   H25       1.0  0.5026433683185917  0.37142110187525823  0.9156505484234128  1.0000
  H   H26       1.0  0.6286931032081696  0.33541164953760627  0.9187766328984979  1.0000
  Zn  Zn1       1.0  0.7586831955533132  0.4217446038445263  0.5673622378138998  1.0000
  Zn  Zn2       1.0  0.9109903138619718  0.42174091726440754  0.5673578489383393  1.0000
  C   C40       1.0  0.8348314829671749  0.4164907814493215  0.8045851971203737  1.0000
  C   C41       1.0  0.83484368991545  0.4269963781815105  0.3301350170996662  1.0000
  C   C42       1.0  0.8348774086853734  0.6589347196588231  0.5621893320045994  1.0000
  C   C43       1.0  0.8347977119554879  0.18455087966215777  0.5725309514326173  1.0000
  O   O1        1.0  0.8926413343439357  0.4287099254054425  0.3785253519992442  1.0000
  O   O2        1.0  0.8926314170294428  0.41477345660691856  0.7561911572528723  1.0000
  O   O3        1.0  0.892667723424258  0.6105500024042043  0.5604547812307745  1.0000
  O   O4        1.0  0.892604975981143  0.23293338893184257  0.5742616306361155  1.0000
  O   O5        1.0  0.7770684814591978  0.6105521321797653  0.5604584561107899  1.0000
  O   O6        1.0  0.7770321753312018  0.4147771466950039  0.7561947629103771  1.0000
  O   O7        1.0  0.7770420927246805  0.4287135707557841  0.37852739605879515  1.0000
  O   O8        1.0  0.777005734354921  0.23293702496117197  0.5742637720755592  1.0000
