data_image0
_chemical_formula_structural       NC10NC3NH7C12NH11C12OCH12Zn2C4O8
_chemical_formula_sum              "N4 C42 H30 O9 Zn2"
_cell_length_a       19.210446455230148
_cell_length_b       10.299770795358612
_cell_length_c       10.299794127170987
_cell_angle_alpha    85.57261220462476
_cell_angle_beta     89.98403246644892
_cell_angle_gamma    89.96457025778629

_space_group_name_H-M_alt    "P 1"
_space_group_IT_number       1

loop_
  _space_group_symop_operation_xyz
  'x, y, z'

loop_
  _atom_site_type_symbol
  _atom_site_label
  _atom_site_symmetry_multiplicity
  _atom_site_fract_x
  _atom_site_fract_y
  _atom_site_fract_z
  _atom_site_occupancy
  N   N1        1.0  0.6557879366744084  0.4197696878666586  0.5673316029961386  1.0000
  C   C1        1.0  0.5955595590540044  0.42197722784987723  0.5675626476033167  1.0000
  C   C2        1.0  0.5207553324001057  0.4247141731261701  0.5678488829557411  1.0000
  C   C3        1.0  0.4851533022184427  0.5409467711104152  0.5829550631864631  1.0000
  C   C4        1.0  0.4124878369974361  0.541098291308642  0.5829024621635006  1.0000
  C   C5        1.0  0.3755886318509966  0.4254231511689197  0.5679353322136398  1.0000
  C   C6        1.0  0.2982664002556583  0.42406665798640053  0.5677848043260492  1.0000
  C   C7        1.0  0.2605230801541313  0.5276181572498166  0.5044219246637236  1.0000
  C   C8        1.0  0.1877446170848528  0.5262159210311239  0.5043129143256835  1.0000
  C   C9        1.0  0.1517080857661876  0.42151967694344994  0.5675157786971645  1.0000
  C   C10       1.0  0.0767784672145224  0.42021758059691927  0.5673790111347585  1.0000
  N   N2        1.0  0.0165405357000601  0.41917065093580796  0.5672690848905482  1.0000
  C   C11       1.0  0.1887277594449689  0.3180938611942261  0.6308536459300496  1.0000
  C   C12       1.0  0.2615080474738848  0.3192218478523434  0.6310129109951115  1.0000
  C   C13       1.0  0.4138006577888599  0.3110108557475284  0.5531172260960533  1.0000
  N   N3        1.0  0.4845707932977367  0.313455832803744  0.5532826785723348  1.0000
  H   H1        1.0  0.5132609031992696  0.630382084962166  0.5949991498650287  1.0000
  H   H2        1.0  0.385225611840217  0.6311158379349591  0.5963411769360576  1.0000
  H   H3        1.0  0.2872586574952394  0.6088562761405367  0.4534305059695851  1.0000
  H   H4        1.0  0.159606386353593  0.6066267097293105  0.45465185580883904  1.0000
  H   H5        1.0  0.1613525860376004  0.2367196655629995  0.6804152650262725  1.0000
  H   H6        1.0  0.2890013608871139  0.23893063221933009  0.682111617565125  1.0000
  H   H7        1.0  0.3875286225964766  0.22013039089944986  0.5396323026302301  1.0000
  C   C14       1.0  0.836104480012554  0.03810175781215608  0.5673399465451741  1.0000
  C   C15       1.0  0.8159088224315582  0.04727301228745562  0.43593917585084196  1.0000
  C   C16       1.0  0.8057393733955389  0.9347838854867412  0.36932226478558516  1.0000
  C   C17       1.0  0.8160362361644147  0.811991167716934  0.43587060412372725  1.0000
  C   C18       1.0  0.836230634015332  0.8008286236773275  0.5672719255580205  1.0000
  C   C19       1.0  0.8461520055303847  0.9144386604793266  0.632270641818439  1.0000
  C   C20       1.0  0.784373844596069  0.9455399450793742  0.2303078759798085  1.0000
  C   C21       1.0  0.7336903130574864  0.03678908643429857  0.18513160756931257  1.0000
  C   C22       1.0  0.713610924719599  0.046783414560295  0.05429019882624875  1.0000
  C   C23       1.0  0.7438350634120563  0.9659480819724491  0.9665450825889126  1.0000
  C   C24       1.0  0.7943516115403687  0.8748970450533551  0.010830862687517984  1.0000
  C   C25       1.0  0.8144867641001192  0.8646465899986563  0.14164229015025054  1.0000
  N   N4        1.0  0.7232667921470821  0.9763024240477004  0.832719392389472  1.0000
  H   H8        1.0  0.8437703552288536  0.36205939761518136  0.6174268687609523  1.0000
  H   H9        1.0  0.8089629278794994  0.142175181093118  0.3845905344461249  1.0000
  H   H10       1.0  0.8073429578289565  0.7249622595768359  0.3854623248681319  1.0000
  H   H11       1.0  0.8617315114276878  0.9065954178343265  0.7336405171928522  1.0000
  H   H12       1.0  0.8439559006734954  0.4691226816958802  0.6173272175384794  1.0000
  H   H13       1.0  0.7089243807940978  0.09926021345437164  0.25133603931646653  1.0000
  H   H14       1.0  0.6743676859215765  0.11732033793068464  0.021386965385207013  1.0000
  H   H15       1.0  0.8182567167164021  0.8120815956732841  0.9439373391841994  1.0000
  H   H16       1.0  0.8542637285868631  0.7946186407902402  0.17310595569361165  1.0000
  H   H17       1.0  0.7455010822308672  0.9164512994256284  0.7665790081984025  1.0000
  H   H18       1.0  0.68565290865977  0.043896330455838184  0.7987927564619448  1.0000
  C   C26       1.0  0.8361910196382998  0.4193516711618952  0.18595453362004433  1.0000
  C   C27       1.0  0.767972455880211  0.3703424273913809  0.188777378990729  1.0000
  C   C28       1.0  0.7333864450065809  0.34561167644085034  0.07306086338760909  1.0000
  C   C29       1.0  0.7679251692750291  0.37056897195990945  0.9534724753716377  1.0000
  C   C30       1.0  0.8361441228736606  0.4195787225095695  0.9486573680532508  1.0000
  C   C31       1.0  0.8698957567462897  0.44369275659061036  0.06541817609225187  1.0000
  C   C32       1.0  0.6612170606683619  0.2937555744020781  0.07710197105574124  1.0000
  C   C33       1.0  0.6113927579675393  0.34250523518210163  0.9859579502518501  1.0000
  C   C34       1.0  0.5435647328861279  0.2936879868715756  0.9900253292835233  1.0000
  C   C35       1.0  0.5245751326402113  0.19578592575219855  0.08472404677535361  1.0000
  C   C36       1.0  0.5737124713483863  0.1456328133355993  0.176730894101085  1.0000
  C   C37       1.0  0.6416352251744775  0.19508944834880282  0.1722120659462001  1.0000
  O   O1        1.0  0.5573115294231535  0.04708748802318108  0.27356417602313643  1.0000
  C   C38       1.0  0.4905780557295565  0.9879249283357139  0.2896182301634358  1.0000
  H   H19       1.0  0.8621944672561789  0.43796796878318234  0.5123364704212265  1.0000
  H   H20       1.0  0.7412269099873636  0.3529580605278291  0.2810605912505453  1.0000
  H   H21       1.0  0.7418279191150283  0.3500179246963484  0.8641473054868203  1.0000
  H   H22       1.0  0.9225238040083839  0.4815004872404487  0.06247207821545908  1.0000
  H   H23       1.0  0.8621244644314853  0.43831485296670003  0.6193652287655547  1.0000
  H   H24       1.0  0.6246437415027551  0.41954908751917386  0.9126300816159101  1.0000
  H   H25       1.0  0.505512443548636  0.332146437435356  0.9196906274976739  1.0000
  H   H26       1.0  0.47168657492830984  0.15983965456682547  0.08556487811950864  1.0000
  H   H27       1.0  0.6793803823993109  0.15488149379202376  0.24237321062767503  1.0000
  H   H28       1.0  0.47622272300665963  0.9394931788448628  0.2007645037302992  1.0000
  H   H29       1.0  0.4923544163552194  0.9134463942966419  0.3732964486381618  1.0000
  H   H30       1.0  0.4509439719819234  0.06224883530431935  0.3098955442869469  1.0000
  Zn  Zn1       1.0  0.7598933421943027  0.41959335693145694  0.5673210606533723  1.0000
  Zn  Zn2       1.0  0.9124351118355015  0.4193364025029753  0.5672902634659147  1.0000
  C   C39       1.0  0.8361505586827598  0.4143621189352218  0.8044906768015609  1.0000
  C   C40       1.0  0.8361795613616203  0.42456927634867436  0.3301207742959966  1.0000
  C   C41       1.0  0.8362035277087778  0.6566554690574313  0.5621098880195903  1.0000
  C   C42       1.0  0.8361265400214174  0.18227436603419855  0.5725016324629828  1.0000
  O   O2        1.0  0.8940645215228727  0.42621717371222134  0.3784925947745017  1.0000
  O   O3        1.0  0.894041271963836  0.4125182192734702  0.7560951082287941  1.0000
  O   O4        1.0  0.8940832646703587  0.6081731654312499  0.5603709064402713  1.0000
  O   O5        1.0  0.8940224767717037  0.23056223690334954  0.5742166992025031  1.0000
  O   O6        1.0  0.7783059252030814  0.6083675226201806  0.560394624920463  1.0000
  O   O7        1.0  0.7782639327557253  0.41271413674376456  0.7561187573276491  1.0000
  O   O8        1.0  0.7782871824496235  0.4264130454617763  0.37851468254829523  1.0000
  O   O9        1.0  0.7782451376880819  0.23075809939309444  0.5742388843404969  1.0000
