data_image0
_chemical_formula_structural       NC8NC6H8C12ClH9C12BrH9Zn2C4O8
_chemical_formula_sum              "N2 C42 H26 Cl1 Br1 Zn2 O8"
_cell_length_a       17.457602349358154
_cell_length_b       10.299768534541528
_cell_length_c       10.299148005577397
_cell_angle_alpha    85.55407396339785
_cell_angle_beta     92.84953389996222
_cell_angle_gamma    91.70638861519478

_space_group_name_H-M_alt    "P 1"
_space_group_IT_number       1

loop_
  _space_group_symop_operation_xyz
  'x, y, z'

loop_
  _atom_site_type_symbol
  _atom_site_label
  _atom_site_symmetry_multiplicity
  _atom_site_fract_x
  _atom_site_fract_y
  _atom_site_fract_z
  _atom_site_occupancy
  N   N1        1.0  0.7230772219706505  0.4530291148897392  0.6265177511275648  1.0000
  C   C1        1.0  0.6619934871888891  0.40710581657477496  0.6159000740513303  1.0000
  C   C2        1.0  0.5860027365549301  0.34998294637461336  0.6027012262113438  1.0000
  C   C3        1.0  0.5274611899724337  0.3901332441613121  0.6776025275741666  1.0000
  C   C4        1.0  0.45290875547160225  0.33512852941773685  0.6650182115061933  1.0000
  C   C5        1.0  0.39077552564747214  0.3775212946137638  0.7443415258203332  1.0000
  C   C6        1.0  0.31624765613545985  0.39599796457659453  0.6885770493412859  1.0000
  C   C7        1.0  0.2577060422157179  0.43596432191665313  0.7635863009566188  1.0000
  C   C8        1.0  0.1817407398064925  0.4550471743162323  0.7056063205286436  1.0000
  N   N2        1.0  0.12067755192504082  0.4703834079700904  0.658990567088513  1.0000
  C   C9        1.0  0.2732000417953689  0.4576970725075731  0.8948685701898447  1.0000
  C   C10       1.0  0.3469431748128296  0.43960932815599274  0.9510206700132886  1.0000
  C   C11       1.0  0.4054730924635506  0.39982295495598397  0.8764691595089513  1.0000
  C   C12       1.0  0.4381867777818909  0.2392963179395966  0.5760996083270338  1.0000
  C   C13       1.0  0.49671654940541593  0.19942463797211718  0.5015983319259469  1.0000
  C   C14       1.0  0.5704840887691754  0.254541644723723  0.5147326178630776  1.0000
  H   H1        1.0  0.5398012251818887  0.4653170224135903  0.7442378737226434  1.0000
  H   H2        1.0  0.3039277903672154  0.38104315720018556  0.5865490561241153  1.0000
  H   H3        1.0  0.2283287958906289  0.48857076767912266  0.9537072282198846  1.0000
  H   H4        1.0  0.3587497274156679  0.4561218413743735  0.0526754475368828  1.0000
  H   H5        1.0  0.4619432201234648  0.3848243049920195  0.9225764212264842  1.0000
  H   H6        1.0  0.3816964427966564  0.19396268912031767  0.5654458344040765  1.0000
  H   H7        1.0  0.4848908643829052  0.12535749401674723  0.4337646695233892  1.0000
  H   H8        1.0  0.6153550734371978  0.22279818065223433  0.45640506859035757  1.0000
  C   C15       1.0  0.9218086948282849  0.08033785367837143  0.6427464273034582  1.0000
  C   C16       1.0  0.9268990697846842  0.09014555459240259  0.5066866651662145  1.0000
  C   C17       1.0  0.9295521568420982  0.9779790455183109  0.4377575144285677  1.0000
  C   C18       1.0  0.9270455932745213  0.8548642302751382  0.5067141227339018  1.0000
  C   C19       1.0  0.9219534135189604  0.8430649215576226  0.6427736754169051  1.0000
  C   C20       1.0  0.9193640457743902  0.9563602278155385  0.7100279394480231  1.0000
  C   C21       1.0  0.9349383692643619  0.9894084878076168  0.2938177118948724  1.0000
  C   C22       1.0  0.8913130281212613  0.0810552440996708  0.21578735142013494  1.0000
  C   C23       1.0  0.8964510389439666  0.0916201483204917  0.08032068649168567  1.0000
  C   C24       1.0  0.9451407677608608  0.011057463288437486  0.021186429728845102  1.0000
  C   C25       1.0  0.9887539514277159  0.9197226402702354  0.09770450392926544  1.0000
  C   C26       1.0  0.9837521789750737  0.9087714291460106  0.23319693968599697  1.0000
  Cl  Cl1       1.0  0.9515016839028467  0.024555018851456945  0.8512127245299821  1.0000
  H   H9        1.0  0.9198296477550048  0.4040526694830786  0.6945854262128248  1.0000
  H   H10       1.0  0.9298714032713943  0.18529531680174083  0.45419429065842354  1.0000
  H   H11       1.0  0.9280158421872535  0.7680804820224105  0.453844668417416  1.0000
  H   H12       1.0  0.9154362788380292  0.9480258154067942  0.8149917192640181  1.0000
  H   H13       1.0  0.9200435999522631  0.5111164192530632  0.6946261301226215  1.0000
  H   H14       1.0  0.8525098580035746  0.14333071395055597  0.2593639385557751  1.0000
  H   H15       1.0  0.8624034564267195  0.16225612459682814  0.02142548899255603  1.0000
  H   H16       1.0  0.026701985396176964  0.8573634761532855  0.05236851673004783  1.0000
  H   H17       1.0  0.018773705007157915  0.8384714891640878  0.29067730392217417  1.0000
  C   C27       1.0  0.9219856312466491  0.46175801381788895  0.2613804218603262  1.0000
  C   C28       1.0  0.8498335975824086  0.5193880626671115  0.25005181789370545  1.0000
  C   C29       1.0  0.8131429392214318  0.5485497490331288  0.1271608831381592  1.0000
  C   C30       1.0  0.8495775317640677  0.5193040816408139  0.014753868094032008  1.0000
  C   C31       1.0  0.9217764559411525  0.4616448129000137  0.024139689402615128  1.0000
  C   C32       1.0  0.9575357834086159  0.43322484382300464  0.14784040308798452  1.0000
  C   C33       1.0  0.7368153442307326  0.6095173414446962  0.1162215484521083  1.0000
  C   C34       1.0  0.7207193683824911  0.7101317014055737  0.19498702322484607  1.0000
  C   C35       1.0  0.6488451559783552  0.7674030224841168  0.18449326379928754  1.0000
  C   C36       1.0  0.59225001812435  0.7249894147045535  0.09550556786608144  1.0000
  C   C37       1.0  0.6075755893249912  0.6251282874259083  0.016824723198545444  1.0000
  C   C38       1.0  0.6793845341560896  0.5676321540181697  0.02692060912844374  1.0000
  Br  Br1       1.0  0.4941150301310498  0.8033760290706027  0.08144212301199727  1.0000
  H   H18       1.0  0.9497540888125346  0.4396443824796925  0.5932106607455854  1.0000
  H   H19       1.0  0.8215278936216321  0.5400986425319745  0.3370799897002035  1.0000
  H   H20       1.0  0.8220298358512573  0.5431964410146062  0.9196880260832567  1.0000
  H   H21       1.0  0.013189559087748881  0.38877733570826356  0.1558624870837182  1.0000
  H   H22       1.0  0.05826249700848196  0.3535605552827894  0.8345235599261449  1.0000
  H   H23       1.0  0.764014562049784  0.7456382546657057  0.26343129014550515  1.0000
  H   H24       1.0  0.6372744705930262  0.8449636651849441  0.2453543481490872  1.0000
  H   H25       1.0  0.5638269630297796  0.5917539110097128  0.9480364661219833  1.0000
  H   H26       1.0  0.6896713314216263  0.48932618736963773  0.9661557471149704  1.0000
  Zn  Zn1       1.0  0.8378160858708883  0.4580337051872805  0.6358962029174775  1.0000
  Zn  Zn2       1.0  0.005938668838981753  0.46536816828478855  0.6496227477443952  1.0000
  C   C39       1.0  0.9218133110429937  0.4564924553043499  0.8799615594748698  1.0000
  C   C40       1.0  0.921943279836192  0.4669111368589123  0.40555766860912157  1.0000
  C   C41       1.0  0.9219235224053476  0.6988939009079858  0.637592921515356  1.0000
  C   C42       1.0  0.9218330107903315  0.22450812844118473  0.6479263710694712  1.0000
  O   O1        1.0  0.9857307092991945  0.47141829681151504  0.45915402171601616  1.0000
  O   O2        1.0  0.9856270318776439  0.45755100346876176  0.8367829623893597  1.0000
  O   O3        1.0  0.9857151684995694  0.6532931986565178  0.6410685022641676  1.0000
  O   O4        1.0  0.9856425153368851  0.2756761084256696  0.6548683797801915  1.0000
  O   O5        1.0  0.8581121820010006  0.647725762544922  0.6306505661906538  1.0000
  O   O6        1.0  0.8580240456905973  0.4519851276697793  0.8263649571239828  1.0000
  O   O7        1.0  0.8581277235827629  0.46585237599058726  0.44873445500854015  1.0000
  O   O8        1.0  0.858039529588853  0.27011017830135353  0.6444489104427049  1.0000
