data_image0
_chemical_formula_structural       NC12NC2H8C16H10C12BrH9Zn2C4O8
_chemical_formula_sum              "N2 C46 H27 Br1 Zn2 O8"
_cell_length_a       17.80743265337812
_cell_length_b       10.29914801576943
_cell_length_c       10.299148005577397
_cell_angle_alpha    85.52895802354352
_cell_angle_beta     91.50743167608279
_cell_angle_gamma    89.44985071264975

_space_group_name_H-M_alt    "P 1"
_space_group_IT_number       1

loop_
  _space_group_symop_operation_xyz
  'x, y, z'

loop_
  _atom_site_type_symbol
  _atom_site_label
  _atom_site_symmetry_multiplicity
  _atom_site_fract_x
  _atom_site_fract_y
  _atom_site_fract_z
  _atom_site_occupancy
  N   N1        1.0  0.7079846633811312  0.40694458920716325  0.6007532342887394  1.0000
  C   C1        1.0  0.6571869416624546  0.4365129259949807  0.5320414742400046  1.0000
  C   C2        1.0  0.5939895585003333  0.47329379028474206  0.44657269376671804  1.0000
  C   C3        1.0  0.6057568909845864  0.5273320137933517  0.31992911902403365  1.0000
  C   C4        1.0  0.5444660250365286  0.5626089162573957  0.2368569588713889  1.0000
  C   C5        1.0  0.47125373285784644  0.5441111496094024  0.27976835419439716  1.0000
  C   C6        1.0  0.45850948814779363  0.48995406504177974  0.4068801280980574  1.0000
  C   C7        1.0  0.520657674959121  0.45468041844963136  0.48993577492858487  1.0000
  C   C8        1.0  0.3807280862291945  0.4703417842557662  0.4526523136820335  1.0000
  C   C9        1.0  0.3619130374313566  0.49751741750466305  0.5796889971548567  1.0000
  C   C10       1.0  0.28867079451062344  0.47906122347423175  0.6226409401913795  1.0000
  C   C11       1.0  0.2333003792378157  0.4331750179429432  0.539394285669442  1.0000
  C   C12       1.0  0.15792109288434264  0.4141658097590817  0.5837474019675766  1.0000
  N   N2        1.0  0.0973214846765491  0.39888368484578396  0.6194042562844899  1.0000
  C   C13       1.0  0.2514237713992474  0.40583040293673256  0.41290064944623284  1.0000
  C   C14       1.0  0.32461322729854725  0.424301409673842  0.36969280788438397  1.0000
  H   H1        1.0  0.6622334865258624  0.5421605068701643  0.2854856002946602  1.0000
  H   H2        1.0  0.5536951058164461  0.6047193988775101  0.13905936355381265  1.0000
  H   H3        1.0  0.42463537162351706  0.5737557858729652  0.21416458051698473  1.0000
  H   H4        1.0  0.5121268227352137  0.4111845249576054  0.5876094596095687  1.0000
  H   H5        1.0  0.4035775505591521  0.5346931199954454  0.6452491558938871  1.0000
  H   H6        1.0  0.27520510520427627  0.5008986474110828  0.720643560896868  1.0000
  H   H7        1.0  0.2090424434967383  0.3699220457333059  0.347752962588348  1.0000
  H   H8        1.0  0.33755023723597977  0.400928280319073  0.27199412561913894  1.0000
  C   C15       1.0  0.9026031297563538  0.021513784026411686  0.6102418903877691  1.0000
  C   C16       1.0  0.8854859408609266  0.03148647429738727  0.47594139077513264  1.0000
  C   C17       1.0  0.8768624131443077  0.9194119595371524  0.40768622154803436  1.0000
  C   C18       1.0  0.8855863342358359  0.7962326397094741  0.4755415899724318  1.0000
  C   C19       1.0  0.9027101967598891  0.7843043567448786  0.6099271663223864  1.0000
  C   C20       1.0  0.9111145023131925  0.8974633822990884  0.6764499238347002  1.0000
  C   C21       1.0  0.8587546770681894  0.9310074649527379  0.26561249852282653  1.0000
  C   C22       1.0  0.8943208431510711  0.8492984403116849  0.18209441684913164  1.0000
  C   C23       1.0  0.8772522204405416  0.8603374502901907  0.04837884445863927  1.0000
  C   C24       1.0  0.8244422864440096  0.9529896836732886  0.99636861999381  1.0000
  C   C25       1.0  0.7887394813436156  0.034682040178121376  0.07859615235322259  1.0000
  C   C26       1.0  0.8057545353882273  0.023885401937049577  0.21233010616703885  1.0000
  C   C27       1.0  0.8068978503013652  0.9642300781569252  0.8586973161978344  1.0000
  C   C28       1.0  0.7922045740292203  0.9736438004782115  0.7433995878064201  1.0000
  C   C29       1.0  0.7749989210787945  0.984667142912592  0.6083871247083383  1.0000
  C   C30       1.0  0.7603081109608504  0.9940794342943049  0.4931080231256946  1.0000
  H   H9        1.0  0.9091484947425481  0.3451532579073058  0.6619118590628059  1.0000
  H   H10       1.0  0.8798325747450091  0.12666642315828414  0.4237579484941305  1.0000
  H   H11       1.0  0.8779937515948212  0.7095040828693541  0.42375985625289525  1.0000
  H   H12       1.0  0.9243152319219725  0.8890553449629927  0.7800400969094166  1.0000
  H   H13       1.0  0.9345653115132116  0.5544933916566318  0.863728854425065  1.0000
  H   H14       1.0  0.9360436941885769  0.7780246976168487  0.2199445761229608  1.0000
  H   H15       1.0  0.9053758481708478  0.7968416205685479  0.9855480998165982  1.0000
  H   H16       1.0  0.7476145328204211  0.10650795561665083  0.03940467561411709  1.0000
  H   H17       1.0  0.7767553679619756  0.08700966890265449  0.27431608191579704  1.0000
  H   H18       1.0  0.7474083970701373  0.0023442199968106703  0.39188325424806614  1.0000
  C   C31       1.0  0.9027590722441624  0.40295900150811126  0.22870120435045327  1.0000
  C   C32       1.0  0.8321038456046227  0.4652068999454124  0.21985397551346297  1.0000
  C   C33       1.0  0.7961743481560758  0.49671683542460165  0.09822493016024803  1.0000
  C   C34       1.0  0.8318531050167687  0.4651392800462968  0.9845649595335271  1.0000
  C   C35       1.0  0.9025542490431708  0.40285916143198786  0.9914677894665918  1.0000
  C   C36       1.0  0.9375717363248165  0.3721505497541633  0.11393864403668275  1.0000
  C   C37       1.0  0.7214301828584204  0.5625695204892578  0.08991057095948984  1.0000
  C   C38       1.0  0.7056641366288584  0.6642224172003133  0.16919082473493918  1.0000
  C   C39       1.0  0.6352809740089408  0.7260937938004157  0.16116894636543977  1.0000
  C   C40       1.0  0.5798638905123421  0.6872940142341872  0.07416632410539514  1.0000
  C   C41       1.0  0.5948755080182212  0.5864436705254541  0.9949971344368489  1.0000
  C   C42       1.0  0.6651947696263133  0.524351632422535  0.002623506292280142  1.0000
  Br  Br1       1.0  0.4837647304994688  0.7719614305783373  0.06347783079163838  1.0000
  H   H19       1.0  0.9299514651299484  0.37906814920300236  0.5595764311990192  1.0000
  H   H20       1.0  0.8043854347804309  0.48772891074021696  0.3078564453123207  1.0000
  H   H21       1.0  0.8048768052815674  0.4907949176888282  0.8904456735065822  1.0000
  H   H22       1.0  0.9920709641121557  0.3241411083368122  0.12004674109078661  1.0000
  H   H23       1.0  0.03620882014980187  0.28603966006320625  0.7971573673604557  1.0000
  H   H24       1.0  0.7480579815821745  0.6969646892074879  0.23611516116554787  1.0000
  H   H25       1.0  0.6239472228353444  0.8044014936570096  0.22239777015399476  1.0000
  H   H26       1.0  0.5520375566186698  0.5558627645695764  0.9277436197279965  1.0000
  H   H27       1.0  0.6752713475687045  0.445380610738376  0.9415358413816342  1.0000
  Zn  Zn1       1.0  0.8203388607102958  0.40461491778818526  0.6061430049982846  1.0000
  Zn  Zn2       1.0  0.9849672805218687  0.4012027605474846  0.614025083397397  1.0000
  C   C43       1.0  0.9025905721660111  0.397703956582669  0.8472906556556739  1.0000
  C   C44       1.0  0.9027173669991873  0.4081153232300332  0.3728776456071208  1.0000
  C   C45       1.0  0.9026874878584952  0.6401214696436424  0.6048110817700221  1.0000
  C   C46       1.0  0.9026203948928968  0.165696250893403  0.6153572866882953  1.0000
  O   O1        1.0  0.9651789968928834  0.40854526980579253  0.42425578637363204  1.0000
  O   O2        1.0  0.9650781036298111  0.3946832818590116  0.8018944565593586  1.0000
  O   O3        1.0  0.9651555217132141  0.5904385067226725  0.6060904441827422  1.0000
  O   O4        1.0  0.9651015226604037  0.21279005541020313  0.6200596986784523  1.0000
  O   O5        1.0  0.8402045623921628  0.5930276240912833  0.6001083870206307  1.0000
  O   O6        1.0  0.8401271445429681  0.3972739596690962  0.7959123295051258  1.0000
  O   O7        1.0  0.8402280382689192  0.41113590255955446  0.41827209788084163  1.0000
  O   O8        1.0  0.8401505640059183  0.21538067886171053  0.6140761075608603  1.0000
