data_image0
_chemical_formula_structural       NC10NC5H10C12ClH9C15H12Zn2C4O8
_chemical_formula_sum              "N2 C46 H31 Cl1 Zn2 O8"
_cell_length_a       19.4436361288709
_cell_length_b       10.299768534541528
_cell_length_c       10.299157797200024
_cell_angle_alpha    85.54593967103355
_cell_angle_beta     89.72702837822627
_cell_angle_gamma    89.43641405984484

_space_group_name_H-M_alt    "P 1"
_space_group_IT_number       1

loop_
  _space_group_symop_operation_xyz
  'x, y, z'

loop_
  _atom_site_type_symbol
  _atom_site_label
  _atom_site_symmetry_multiplicity
  _atom_site_fract_x
  _atom_site_fract_y
  _atom_site_fract_z
  _atom_site_occupancy
  N   N1        1.0  0.6475823251193366  0.40970837938862714  0.5620729906541218  1.0000
  C   C1        1.0  0.5887519064470333  0.41960335546763217  0.576458310201889  1.0000
  C   C2        1.0  0.5154295169736675  0.431943691921981  0.5944523076914872  1.0000
  C   C3        1.0  0.47321499852270893  0.3999917894422691  0.4997712890349564  1.0000
  C   C4        1.0  0.397313486226046  0.41042739697926445  0.5051001868121257  1.0000
  C   C5        1.0  0.3575986441614687  0.3856296334066731  0.6121779656378477  1.0000
  C   C6        1.0  0.2814752933534873  0.3895522719873652  0.5992179831560074  1.0000
  C   C7        1.0  0.2409469090056665  0.4471685586066778  0.6929971139514233  1.0000
  C   C8        1.0  0.1692813055933323  0.4508112019389474  0.6824527437208194  1.0000
  C   C9        1.0  0.1371493415066048  0.3964414194514334  0.5784157679555939  1.0000
  C   C10       1.0  0.0633544622221702  0.40014537793142724  0.5677161091763983  1.0000
  N   N2        1.0  0.0040283845026335  0.40312316611972077  0.5591142928951562  1.0000
  C   C11       1.0  0.1769528197009029  0.3381178744652553  0.485019861797896  1.0000
  C   C12       1.0  0.2486347761898175  0.33442112637272126  0.4953124366783037  1.0000
  C   C13       1.0  0.3857596038723104  0.3451079700815556  0.7432786573439942  1.0000
  C   C14       1.0  0.4444428912398609  0.38820689521368834  0.7905260878156612  1.0000
  C   C15       1.0  0.48864674693793286  0.48609832806953257  0.7161587907471654  1.0000
  H   H1        1.0  0.4952852007535861  0.3709176405223571  0.4094575811378518  1.0000
  H   H2        1.0  0.3725940351606526  0.43296544637602397  0.4119372324737276  1.0000
  H   H3        1.0  0.2648460057724515  0.4904206926201353  0.7738524299336926  1.0000
  H   H4        1.0  0.1389633651281411  0.49609075261878144  0.7553802077297518  1.0000
  H   H5        1.0  0.1525819616549682  0.29506123731169587  0.40449905849052237  1.0000
  H   H6        1.0  0.2782869137722968  0.2868978985204411  0.42308124109943246  1.0000
  H   H7        1.0  0.3548005647856072  0.2808618340380922  0.8075264177893342  1.0000
  H   H8        1.0  0.4596131954309605  0.3540942373226683  0.8884648669880009  1.0000
  H   H9        1.0  0.45854606320137437  0.5768228632839734  0.6909096704284172  1.0000
  H   H10       1.0  0.5319528340450586  0.5116542196760443  0.7792488346154629  1.0000
  C   C16       1.0  0.8257437739687943  0.025051520898490498  0.5605920550293486  1.0000
  C   C17       1.0  0.8302451828722895  0.034573276091433014  0.42407781709558323  1.0000
  C   C18       1.0  0.8325922055236645  0.9222574342397623  0.35491180748060747  1.0000
  C   C19       1.0  0.8303765472571908  0.7992831272808408  0.424092217572813  1.0000
  C   C20       1.0  0.8258735203349686  0.7877698729604906  0.5606064068835079  1.0000
  C   C21       1.0  0.8235828574036455  0.9012109283861774  0.6280918410197645  1.0000
  C   C22       1.0  0.8373552353762788  0.9333843083752995  0.2104911165391219  1.0000
  C   C23       1.0  0.7982115328946784  0.027668951485293025  0.13634788597394465  1.0000
  C   C24       1.0  0.8027559150491327  0.037944953135717  0.0004225039559393462  1.0000
  C   C25       1.0  0.8463772274079295  0.9544601662619824  0.9369489503836372  1.0000
  C   C26       1.0  0.8855093433512785  0.8604884159372935  0.009580968589765648  1.0000
  C   C27       1.0  0.8810871046547821  0.8498179022834045  0.14551998088096196  1.0000
  Cl  Cl1       1.0  0.8520021944535865  0.9676003980281618  0.7664073339832811  1.0000
  H   H11       1.0  0.8239932248712387  0.3488776666683404  0.6126077393912235  1.0000
  H   H12       1.0  0.832885872562589  0.12955201325464905  0.3713202375269964  1.0000
  H   H13       1.0  0.8312222842362605  0.7124489313988784  0.37113596916340064  1.0000
  H   H14       1.0  0.8201095310880927  0.8930971567203443  0.7334062972313655  1.0000
  H   H15       1.0  0.8241850421663388  0.4559285309057149  0.6126293774663534  1.0000
  H   H16       1.0  0.7634460109642903  0.09227371831042319  0.18338264370036383  1.0000
  H   H17       1.0  0.7722069579584973  0.110639377693867  0.9445610460471703  1.0000
  H   H18       1.0  0.9195074728558233  0.7958516968363348  0.9608630041848834  1.0000
  H   H19       1.0  0.9125085159123317  0.7774010979648603  0.19987980486233115  1.0000
  C   C28       1.0  0.8257289179515686  0.40651844103429324  0.17920789059196207  1.0000
  C   C29       1.0  0.7540875782274563  0.3898627943032691  0.1799773395534039  1.0000
  C   C30       1.0  0.717910552836938  0.3813061864724576  0.06322392654281828  1.0000
  C   C31       1.0  0.754291897727083  0.38965028981677285  0.9447083447523812  1.0000
  C   C32       1.0  0.8258883447748425  0.4063029712413819  0.9419905851146573  1.0000
  C   C33       1.0  0.8611887765923978  0.41463404402111337  0.05977411345960659  1.0000
  C   C34       1.0  0.6421696139800129  0.36370279391491755  0.06508370495026727  1.0000
  C   C35       1.0  0.6112071628845256  0.27729664104742024  0.984231898971506  1.0000
  C   C36       1.0  0.5399317819711379  0.26082415878291054  0.9860142892444572  1.0000
  C   C37       1.0  0.4983492438302791  0.3297722157943035  0.0691909085378204  1.0000
  C   C38       1.0  0.5289437556748688  0.41703070501365835  0.1490690704062616  1.0000
  C   C39       1.0  0.6002184438322687  0.43350739839175656  0.14743463669595536  1.0000
  C   C40       1.0  0.42156590366730723  0.3143757652814878  0.06876494280896583  1.0000
  C   C41       1.0  0.3906497486974424  0.4087134448413219  0.9716125570235468  1.0000
  C   C42       1.0  0.3652412850057123  0.4862869986813747  0.891726322389196  1.0000
  H   H20       1.0  0.9610027749124835  0.4371593948968693  0.38510978783037464  1.0000
  H   H21       1.0  0.7264216049934682  0.3817491383417875  0.27174453723011616  1.0000
  H   H22       1.0  0.7265275245237367  0.3849252453333438  0.8543063897120438  1.0000
  H   H23       1.0  0.916413282414718  0.4274749800017523  0.05839355693785575  1.0000
  H   H24       1.0  0.8534295551865413  0.4126666621970576  0.6134728550720285  1.0000
  H   H25       1.0  0.642195026757414  0.2213590960617089  0.9206014701990597  1.0000
  H   H26       1.0  0.5171491596469779  0.19409001900500988  0.9226429002181953  1.0000
  H   H27       1.0  0.4975541845767004  0.47266649584186027  0.2123578279678835  1.0000
  H   H28       1.0  0.6224404446496467  0.502359102518737  0.2091694809806186  1.0000
  H   H29       1.0  0.4078220693496507  0.21439046542312834  0.04543173414948809  1.0000
  H   H30       1.0  0.3996748922791011  0.3302249764545122  0.16616827821698  1.0000
  H   H31       1.0  0.34295410514742003  0.5543935596187621  0.8215933412348888  1.0000
  Zn  Zn1       1.0  0.750444960445574  0.4078045556393137  0.5612266869081732  1.0000
  Zn  Zn2       1.0  0.9011657411201153  0.4050163793003654  0.5599712782494222  1.0000
  C   C43       1.0  0.8258558141364885  0.4011701340853844  0.7978082633924735  1.0000
  C   C44       1.0  0.8257565336008139  0.4116524089707705  0.3233898155609838  1.0000
  C   C45       1.0  0.8258443676929128  0.643601431598428  0.5554282842040468  1.0000
  C   C46       1.0  0.8257679283629902  0.169219552106334  0.5657698643910467  1.0000
  O   O1        1.0  0.8829635514792735  0.41231165144848747  0.3713021655484101  1.0000
  O   O2        1.0  0.8830423811037317  0.39839375067564964  0.7489427133947002  1.0000
  O   O3        1.0  0.8830323671850436  0.5941601032618871  0.5532191717694466  1.0000
  O   O4        1.0  0.8829735139483927  0.2165453091312768  0.5670256102218252  1.0000
  O   O5        1.0  0.76863713618369  0.5962756267612856  0.5541723553573481  1.0000
  O   O6        1.0  0.7686471503501707  0.4005108344793247  0.7498958277625438  1.0000
  O   O7        1.0  0.7685683204373461  0.41442869043694786  0.37225371842242394  1.0000
  O   O8        1.0  0.7685782829224275  0.21866233880359376  0.5679772604692559  1.0000
