data_image0
_chemical_formula_structural       NC10NC5H10C16H10C13F3H9Zn2C4O8
_chemical_formula_sum              "N2 C48 H29 F3 Zn2 O8"
_cell_length_a       19.4436361288709
_cell_length_b       10.29914801576943
_cell_length_c       10.2985328690268
_cell_angle_alpha    85.55501211268866
_cell_angle_beta     89.71035499971406
_cell_angle_gamma    89.43179634642199

_space_group_name_H-M_alt    "P 1"
_space_group_IT_number       1

loop_
  _space_group_symop_operation_xyz
  'x, y, z'

loop_
  _atom_site_type_symbol
  _atom_site_label
  _atom_site_symmetry_multiplicity
  _atom_site_fract_x
  _atom_site_fract_y
  _atom_site_fract_z
  _atom_site_occupancy
  N   N1        1.0  0.6477495564183827  0.4089776762757664  0.561431558389111  1.0000
  C   C1        1.0  0.588916464091572  0.41888224176946265  0.5758127515160607  1.0000
  C   C2        1.0  0.5155907317927255  0.43123456972095253  0.593801603639524  1.0000
  C   C3        1.0  0.473392427474256  0.3992227027186259  0.4991331689968681  1.0000
  C   C4        1.0  0.3974896424573952  0.40966250557813866  0.5044575637549431  1.0000
  C   C5        1.0  0.3577590040293449  0.384926770409435  0.6115478817237654  1.0000
  C   C6        1.0  0.2816375266937207  0.38884198898711486  0.5985859768249848  1.0000
  C   C7        1.0  0.2410919998498593  0.44652013542447944  0.6923412341900306  1.0000
  C   C8        1.0  0.1694279019019037  0.4501567846181853  0.681795101652497  1.0000
  C   C9        1.0  0.1373145572576315  0.3957192828308491  0.5777804154532109  1.0000
  C   C10       1.0  0.0635212052889908  0.39941715962411783  0.5670789650438037  1.0000
  N   N2        1.0  0.0041963554279604  0.4023900585443514  0.5584757083881862  1.0000
  C   C11       1.0  0.177135147203576  0.33733404127692435  0.48440869934256114  1.0000
  C   C12       1.0  0.2488156400609776  0.3336431307847425  0.4947030564339989  1.0000
  C   C13       1.0  0.38590104712111195  0.34448008653056506  0.7426683897232669  1.0000
  C   C14       1.0  0.4445751111128566  0.3876115140753875  0.7898976103650119  1.0000
  C   C15       1.0  0.48878657401470843  0.48546752904670964  0.7154861629921878  1.0000
  H   H1        1.0  0.4954780373963197  0.3700914885772739  0.40883084784755597  1.0000
  H   H2        1.0  0.3727838948637373  0.4321466786441579  0.4112832767526393  1.0000
  H   H3        1.0  0.2649765844077417  0.489824994135442  0.7731787891248283  1.0000
  H   H4        1.0  0.1390966107808555  0.49548448570288994  0.7547037921319635  1.0000
  H   H5        1.0  0.1527787406366846  0.29422489912961103  0.40390557632861834  1.0000
  H   H6        1.0  0.27848111241474843  0.2860719580769202  0.4224916308292712  1.0000
  H   H7        1.0  0.3549345885073725  0.28026647930420223  0.8069453631180556  1.0000
  H   H8        1.0  0.4597314437975709  0.3535545047739448  0.8878528808084638  1.0000
  H   H9        1.0  0.4586860759855185  0.5761854994241566  0.6901967953988242  1.0000
  H   H10       1.0  0.5320816791114633  0.5110637826819175  0.7785659477920406  1.0000
  C   C16       1.0  0.8259272769762616  0.024283392936750747  0.560119597808654  1.0000
  C   C17       1.0  0.8102163611830547  0.03413114737322176  0.4267661445459756  1.0000
  C   C18       1.0  0.8023011273847774  0.9219934223682892  0.35898807815308587  1.0000
  C   C19       1.0  0.8103081531703595  0.7988775103103057  0.42636076349702545  1.0000
  C   C20       1.0  0.8260252040555315  0.787074226635989  0.5597989249734725  1.0000
  C   C21       1.0  0.8337392223276284  0.90029485677252  0.6258567083336735  1.0000
  C   C22       1.0  0.7856810429886676  0.9334567614399727  0.21791620566097203  1.0000
  C   C23       1.0  0.8182173138499828  0.8518439092757188  0.13242248177477234  1.0000
  C   C24       1.0  0.8025510349512871  0.8627584297914498  0.9996512731254659  1.0000
  C   C25       1.0  0.754187598593316  0.9551885252071829  0.9505707353964383  1.0000
  C   C26       1.0  0.7215258493335704  0.03678361344882286  0.0347814650845768  1.0000
  C   C27       1.0  0.7371430911255642  0.02611127140535774  0.16757402847864844  1.0000
  C   C28       1.0  0.7380845307603363  0.9663008570372996  0.8138701159452166  1.0000
  C   C29       1.0  0.7245983850708831  0.9756073284936487  0.6993853252468099  1.0000
  C   C30       1.0  0.7088062677184598  0.9865050813486561  0.5653248025803994  1.0000
  C   C31       1.0  0.6953223853597187  0.995810139539877  0.45085850222965007  1.0000
  H   H11       1.0  0.8319349974011261  0.34797078263167913  0.6114274365254551  1.0000
  H   H12       1.0  0.8050251206099994  0.12926630509698045  0.37489531744934834  1.0000
  H   H13       1.0  0.8033416626175894  0.7120970471614269  0.3749992751878428  1.0000
  H   H14       1.0  0.845855443293785  0.8919831777224975  0.7287165222245293  1.0000
  H   H15       1.0  0.8552643939752309  0.5574975108576451  0.8118382422842487  1.0000
  H   H16       1.0  0.8564262140948578  0.7807442074534959  0.16795795161674598  1.0000
  H   H17       1.0  0.828279755867041  0.799340094627663  0.9352583767193439  1.0000
  H   H18       1.0  0.6838639347271325  0.10843713303201818  0.9978714666332387  1.0000
  H   H19       1.0  0.7106125545315468  0.08915436886507555  0.23117072785860615  1.0000
  H   H20       1.0  0.6834824510687045  0.0039807656715775686  0.35034743825445913  1.0000
  C   C32       1.0  0.8259564605110993  0.40555722600133826  0.17856198040772164  1.0000
  C   C33       1.0  0.8949177807582339  0.3633879101618742  0.18022038582359445  1.0000
  C   C34       1.0  0.9298610135508057  0.3421390781676217  0.06388980698470248  1.0000
  C   C35       1.0  0.8949584176357883  0.36364279751128414  0.9449192651193079  1.0000
  C   C36       1.0  0.825996024150335  0.4058004273634268  0.9413565242881639  1.0000
  C   C37       1.0  0.7919354504237579  0.426483249402168  0.058671711575934093  1.0000
  C   C38       1.0  0.002769552573852474  0.29756824356508305  0.06657756938749948  1.0000
  C   C39       1.0  0.050267584099570994  0.35129548597721993  0.9746191340698251  1.0000
  C   C40       1.0  0.1188843069462171  0.30945048426331434  0.9771701220760258  1.0000
  C   C41       1.0  0.14125145285092056  0.21163280310956778  0.07049699927778863  1.0000
  C   C42       1.0  0.09415178151064474  0.15971739725160283  0.16402869524802455  1.0000
  C   C43       1.0  0.0255395400423577  0.2015953739072207  0.16158857719789  1.0000
  C   C44       1.0  0.21581648958773103  0.1699647921719012  0.07617909880080687  1.0000
  F   F1        1.0  0.2510990844937775  0.2486339874685013  0.15533793886197333  1.0000
  F   F2        1.0  0.24510892068249301  0.180597540665838  0.9530742988176346  1.0000
  F   F3        1.0  0.22216959955493665  0.04171544543562078  0.1260662403095416  1.0000
  H   H21       1.0  0.6957764105731312  0.4860577205911474  0.3826887082622319  1.0000
  H   H22       1.0  0.9218503799275465  0.3487294211469696  0.2720819926115112  1.0000
  H   H23       1.0  0.9213705182368503  0.34577167696497924  0.8550768569031724  1.0000
  H   H24       1.0  0.7387853722188344  0.4589787294850478  0.05666042565791618  1.0000
  H   H25       1.0  0.6955559850016417  0.4847220576588147  0.7273568265163433  1.0000
  H   H26       1.0  0.03460418055823844  0.42735562017638706  0.9019879591602504  1.0000
  H   H27       1.0  0.1545480309122047  0.3540214795370116  0.90637013262949  1.0000
  H   H28       1.0  0.11036542844064212  0.08653887353042289  0.2390969726944152  1.0000
  H   H29       1.0  0.9901236632569317  0.1579739053819018  0.23340578830080405  1.0000
  Zn  Zn1       1.0  0.7506124041488116  0.40707316283772865  0.5605860780860314  1.0000
  Zn  Zn2       1.0  0.9013334984047551  0.40428396682856893  0.5593318751253338  1.0000
  C   C45       1.0  0.8259863488815755  0.40058036280788145  0.7971742024110273  1.0000
  C   C46       1.0  0.8259611997586649  0.41077837519605254  0.32274386389142573  1.0000
  C   C47       1.0  0.8260028908208071  0.6428889481297593  0.5546839897206679  1.0000
  C   C48       1.0  0.8259446061921075  0.16846823041654968  0.5652341469095867  1.0000
  O   O1        1.0  0.8831606593465069  0.41146648900272864  0.37065666000132147  1.0000
  O   O2        1.0  0.883180712240078  0.3977743338452384  0.7483091218123539  1.0000
  O   O3        1.0  0.8831932990806163  0.5934415956023869  0.5524965652549343  1.0000
  O   O4        1.0  0.8831480210712102  0.2157992374572879  0.5664691196009022  1.0000
  O   O5        1.0  0.7687978300486439  0.5955578931622378  0.5534488340316281  1.0000
  O   O6        1.0  0.7687852434017188  0.3998921918159415  0.7492613206824124  1.0000
  O   O7        1.0  0.7687651904670834  0.4135843012150664  0.3716072973732607  1.0000
  O   O8        1.0  0.7687525521928321  0.21791704041114546  0.5674198543518463  1.0000
