data_image0
_chemical_formula_structural       NC8NC6H8C12NH11C13F3H9Zn2C4O8
_chemical_formula_sum              "N3 C43 H28 F3 Zn2 O8"
_cell_length_a       17.457602349358154
_cell_length_b       10.299770795358612
_cell_length_c       10.2985328690268
_cell_angle_alpha    85.57387741516429
_cell_angle_beta     92.88104695485512
_cell_angle_gamma    91.70596819880058

_space_group_name_H-M_alt    "P 1"
_space_group_IT_number       1

loop_
  _space_group_symop_operation_xyz
  'x, y, z'

loop_
  _atom_site_type_symbol
  _atom_site_label
  _atom_site_symmetry_multiplicity
  _atom_site_fract_x
  _atom_site_fract_y
  _atom_site_fract_z
  _atom_site_occupancy
  N   N1        1.0  0.7226102779902046  0.4523940786797407  0.6262872758832738  1.0000
  C   C1        1.0  0.6615233591105439  0.40646542045970224  0.6156741041754481  1.0000
  C   C2        1.0  0.5855286505852392  0.34933588707429686  0.6024808608761651  1.0000
  C   C3        1.0  0.5270116792473725  0.3895217574301111  0.6773815982937854  1.0000
  C   C4        1.0  0.4524554751645224  0.3345106854655764  0.6648026853812297  1.0000
  C   C5        1.0  0.3903482724075489  0.3769411223503998  0.744125416527079  1.0000
  C   C6        1.0  0.3158017463044147  0.3953916897875027  0.6883560394218866  1.0000
  C   C7        1.0  0.2572847448485404  0.4353936690579998  0.7633647528775316  1.0000
  C   C8        1.0  0.181300045580395  0.45444938087863496  0.7053796911908008  1.0000
  N   N2        1.0  0.12022126272196451  0.4697637935277006  0.6587598531281418  1.0000
  C   C9        1.0  0.27282218055633556  0.4571883853915055  0.8946513839972892  1.0000
  C   C10       1.0  0.3465840959959435  0.43912692908664086  0.950808361602979  1.0000
  C   C11       1.0  0.4050895518553125  0.39930515083364204  0.876257393004116  1.0000
  C   C12       1.0  0.4377046818059054  0.2386358643525286  0.5758900500883593  1.0000
  C   C13       1.0  0.49621000895571066  0.19872880230437961  0.5013893275601167  1.0000
  C   C14       1.0  0.5699814997066142  0.2538524260324486  0.5145182262773853  1.0000
  H   H1        1.0  0.5393732837616334  0.46473749377811346  0.7440121017178158  1.0000
  H   H2        1.0  0.3034481090852021  0.38038874006249634  0.5863244434382053  1.0000
  H   H3        1.0  0.2279702446773729  0.48809001931137574  0.9534896723168285  1.0000
  H   H4        1.0  0.3584242845080993  0.4556874212667459  0.05246655135189615  1.0000
  H   H5        1.0  0.46157510311175937  0.38432808519068584  0.9223686760564751  1.0000
  H   H6        1.0  0.3812111463443634  0.19329686328798457  0.5652407148145453  1.0000
  H   H7        1.0  0.4843623483607766  0.12462914501437639  0.43356032341921225  1.0000
  H   H8        1.0  0.6148333505612449  0.22208125693108305  0.4561911686769393  1.0000
  C   C15       1.0  0.9213499154734431  0.07970751698247303  0.6425577821776414  1.0000
  C   C16       1.0  0.8990743354834594  0.0878692084094328  0.5093184150936672  1.0000
  C   C17       1.0  0.887857492548892  0.9748717073726154  0.4417756265559012  1.0000
  C   C18       1.0  0.8992147585662942  0.852593708277059  0.5092613254119538  1.0000
  C   C19       1.0  0.9214889501877358  0.8424406645552812  0.6425011296970942  1.0000
  C   C20       1.0  0.9324321659297758  0.9565466743039304  0.7084031381144429  1.0000
  C   C21       1.0  0.8642915576975435  0.9845597230351677  0.3008161369678142  1.0000
  C   C22       1.0  0.8084239690904559  0.07328312226982714  0.251062967063588  1.0000
  C   C23       1.0  0.7862766079733048  0.08227369408379048  0.11839352116145485  1.0000
  C   C24       1.0  0.8195777441532294  0.002941362086307464  0.03336272537650187  1.0000
  C   C25       1.0  0.8752611765936383  0.9144077253626999  0.08221023060933286  1.0000
  C   C26       1.0  0.8974699956419774  0.9051638033439738  0.21485472049657162  1.0000
  N   N3        1.0  0.7968911754501031  0.012267514469688656  0.8976645162658019  1.0000
  H   H9        1.0  0.9298053147760929  0.4040483729131983  0.6933426269782768  1.0000
  H   H10       1.0  0.891412319297103  0.18242398758221867  0.45733661850733154  1.0000
  H   H11       1.0  0.889626945112857  0.7651304012920199  0.4580624233275632  1.0000
  H   H12       1.0  0.9496161837070467  0.949482237469157  0.8111913596180238  1.0000
  H   H13       1.0  0.9300098050304481  0.5111208960476274  0.6932596964389615  1.0000
  H   H14       1.0  0.7811360015531508  0.13452251929372094  0.3150425140057933  1.0000
  H   H15       1.0  0.7430197189837444  0.15085504364236835  0.08194675694581344  1.0000
  H   H16       1.0  0.9016002790067965  0.8527811100442236  0.017463866436960407  1.0000
  H   H17       1.0  0.9413149605917384  0.8371179723611455  0.24990986318694453  1.0000
  H   H18       1.0  0.8213888488439489  0.9535220233133781  0.8335207047098327  1.0000
  H   H19       1.0  0.755429985749577  0.07798697510994201  0.8603411617276349  1.0000
  C   C27       1.0  0.9213973626184913  0.4609511769230845  0.26113020575675105  1.0000
  C   C28       1.0  0.9983210684750687  0.42342029555473637  0.2696292589660816  1.0000
  C   C29       1.0  0.037298908097229244  0.4045217840751152  0.1567649286956445  1.0000
  C   C30       1.0  0.9983664082793314  0.4236778926203748  0.03433226253568189  1.0000
  C   C31       1.0  0.9214415047844884  0.4611970168541282  0.023928763335073988  1.0000
  C   C32       1.0  0.8834482364459627  0.4795888894708178  0.13786524903942365  1.0000
  C   C33       1.0  0.1186255854714433  0.3648548783513619  0.16668488901435707  1.0000
  C   C34       1.0  0.17161104980543107  0.4217699283459291  0.07946564259500999  1.0000
  C   C35       1.0  0.24815037492540104  0.3845401734278573  0.08882313378717832  1.0000
  C   C36       1.0  0.2730967809906981  0.2882340291894854  0.1843406720699119  1.0000
  C   C37       1.0  0.2205557524430024  0.2331574367741831  0.27317338005866487  1.0000
  C   C38       1.0  0.14402142752369929  0.27042046504756234  0.2639272152644825  1.0000
  C   C39       1.0  0.35627137094234085  0.25158103544626265  0.19742059226640585  1.0000
  F   F1        1.0  0.39563166708501774  0.3326149384385826  0.2801127320840546  1.0000
  F   F2        1.0  0.3889470685439793  0.2641816278450988  0.07723098617964275  1.0000
  F   F3        1.0  0.36335316333489365  0.12376948943098998  0.24789646248198705  1.0000
  H   H20       1.0  0.7761865485092514  0.5326955044476058  0.4523439665354789  1.0000
  H   H21       1.0  0.028363419844446014  0.4105731780801878  0.36416306026247347  1.0000
  H   H22       1.0  0.027828025548991775  0.40758343174818923  0.9471092403254429  1.0000
  H   H23       1.0  0.8241613640087959  0.5085094217029744  0.1305817164810963  1.0000
  H   H24       1.0  0.7759406148058083  0.531345139316939  0.7969897292413144  1.0000
  H   H25       1.0  0.15414172127515657  0.49677091695478093  0.005302898858222438  1.0000
  H   H26       1.0  0.2879344830642505  0.431504365892873  0.0215829576357236  1.0000
  H   H27       1.0  0.2386389820586281  0.16107479755376763  0.3498288810675432  1.0000
  H   H28       1.0  0.10451382641244211  0.22442237707599078  0.3322095655488402  1.0000
  Zn  Zn1       1.0  0.8373522191451968  0.4574031228683668  0.6356656595537811  1.0000
  Zn  Zn2       1.0  0.005479305991413774  0.4647441048719996  0.6493921036217198  1.0000
  C   C40       1.0  0.9214305082560517  0.45597674198297833  0.8797437390519027  1.0000
  C   C41       1.0  0.9214028531292066  0.4661722045927179  0.4053143013709324  1.0000
  C   C42       1.0  0.9214584256179273  0.6982660168188011  0.6373359712111195  1.0000
  C   C43       1.0  0.9213748781168819  0.22388136696083905  0.6477221338877759  1.0000
  O   O1        1.0  0.9852080480183935  0.47070462780512035  0.4589129154053193  1.0000
  O   O2        1.0  0.9852298818869288  0.4570149744027858  0.8365628046536979  1.0000
  O   O3        1.0  0.9852515654881441  0.6526665908792286  0.6408167467245114  1.0000
  O   O4        1.0  0.98518630704285  0.27505301808260185  0.6546588712674914  1.0000
  O   O5        1.0  0.8576451607202371  0.6470942071540593  0.6303988872170161  1.0000
  O   O6        1.0  0.8576234773959475  0.45144415096996693  0.8261448757791492  1.0000
  O   O7        1.0  0.8576016434798179  0.46513375861503325  0.448493425013311  1.0000
  O   O8        1.0  0.857579902505079  0.269482139634885  0.6442394782515046  1.0000
