data_image0
_chemical_formula_structural       NC9NC5H8C12NH11C12NH11Zn2C4O8
_chemical_formula_sum              "N4 C42 H30 Zn2 O8"
_cell_length_a       17.807436237873137
_cell_length_b       10.299770795358612
_cell_length_c       10.299774167527174
_cell_angle_alpha    85.57276865105108
_cell_angle_beta     89.38598095942662
_cell_angle_gamma    88.40764042794568

_space_group_name_H-M_alt    "P 1"
_space_group_IT_number       1

loop_
  _space_group_symop_operation_xyz
  'x, y, z'

loop_
  _atom_site_type_symbol
  _atom_site_label
  _atom_site_symmetry_multiplicity
  _atom_site_fract_x
  _atom_site_fract_y
  _atom_site_fract_z
  _atom_site_occupancy
  N   N1        1.0  0.7077562357194325  0.3873113298509627  0.5570632847227777  1.0000
  C   C1        1.0  0.6471631759811141  0.3521187196542017  0.5460430383744097  1.0000
  C   C2        1.0  0.5717920694094051  0.3083429881773361  0.5323350484776928  1.0000
  C   C3        1.0  0.5536950177758305  0.23689752808987663  0.42734310836200473  1.0000
  C   C4        1.0  0.4805135483002386  0.1942831465599626  0.41395091883350865  1.0000
  C   C5        1.0  0.4243803468284725  0.22273669001857055  0.5055182535716978  1.0000
  C   C6        1.0  0.3466073245809027  0.17756351735101816  0.49136788475243387  1.0000
  C   C7        1.0  0.2844437975268215  0.2593264815875751  0.5172982540340274  1.0000
  C   C8        1.0  0.2111199860601459  0.216509068288244  0.5039197635778339  1.0000
  C   C9        1.0  0.1479068246068372  0.3009634627436728  0.5302137750091322  1.0000
  N   N2        1.0  0.0970964300985467  0.36885895331844365  0.5513534342758082  1.0000
  C   C10       1.0  0.1993761125052769  0.09167070613560369  0.4645855786839037  1.0000
  C   C11       1.0  0.2606822678341223  0.009893887263766388  0.43864682131870003  1.0000
  C   C12       1.0  0.333886590643482  0.052316703741856374  0.45182281784411504  1.0000
  C   C13       1.0  0.4431688762798592  0.2946765761181833  0.610729369065564  1.0000
  C   C14       1.0  0.5164031936651198  0.33710051913221983  0.6239659317002733  1.0000
  H   H1        1.0  0.5960907769650902  0.21439124835902468  0.3556353978177771  1.0000
  H   H2        1.0  0.46759702940643927  0.14057683707600144  0.3310388228678445  1.0000
  H   H3        1.0  0.2929566895675042  0.35679884528614525  0.5461651803587784  1.0000
  H   H4        1.0  0.1429057349176021  0.05763189430980353  0.4539942485568915  1.0000
  H   H5        1.0  0.2514712585041869  0.9132412570766475  0.408579458886561  1.0000
  H   H6        1.0  0.3805169888961598  0.9865667550732293  0.43278122104683003  1.0000
  H   H7        1.0  0.4014898137881421  0.31664419728798743  0.6837315732102367  1.0000
  H   H8        1.0  0.5298483501490318  0.3920270909498791  0.7058363328483035  1.0000
  C   C15       1.0  0.9023618408752382  0.9967196851867023  0.5542489178965526  1.0000
  C   C16       1.0  0.880565868279639  0.006890042397471596  0.42316406597741896  1.0000
  C   C17       1.0  0.8695905867697098  0.8949040088554535  0.35670623386681144  1.0000
  C   C18       1.0  0.8807033788668169  0.7716018920384188  0.42309349957186404  1.0000
  C   C19       1.0  0.902497991905565  0.7594403076078514  0.5541789219519753  1.0000
  C   C20       1.0  0.9132055380976996  0.8725595238241007  0.6190224399039865  1.0000
  C   C21       1.0  0.8465320417179887  0.9067170460717141  0.21802606401841396  1.0000
  C   C22       1.0  0.7918321543733331  0.00047434798110912446  0.17364312712510244  1.0000
  C   C23       1.0  0.7701616643738328  0.01146202632227511  0.0431158180263429  1.0000
  C   C24       1.0  0.8027809452171084  0.9291306837469077  0.9548974149719598  1.0000
  C   C25       1.0  0.8573006171806764  0.8355797476794333  0.9983924759992164  1.0000
  C   C26       1.0  0.8790312904172407  0.8243331826020291  0.12888893082160235  1.0000
  N   N3        1.0  0.780582832824589  0.9405025621896458  0.821393472307633  1.0000
  H   H9        1.0  0.9106351641384731  0.3202980857819744  0.6042159239101061  1.0000
  H   H10       1.0  0.8730695807896734  0.10213581568139496  0.3719240678677713  1.0000
  H   H11       1.0  0.871321236809295  0.6850030675366976  0.3728212191300122  1.0000
  H   H12       1.0  0.9300195726091725  0.8639455448612998  0.7201486065367437  1.0000
  H   H13       1.0  0.9108354130634019  0.4273521870984759  0.6041133679500961  1.0000
  H   H14       1.0  0.7651036242954039  0.0641713033478939  0.2402353644845281  1.0000
  H   H15       1.0  0.7278086408751462  0.08394097369125131  0.01082684882027607  1.0000
  H   H16       1.0  0.8831001049135186  0.7715810696579439  0.9311246212433497  1.0000
  H   H17       1.0  0.921960335167881  0.752336791776296  0.159729974586015  1.0000
  H   H18       1.0  0.8045791024233487  0.879550898248077  0.7549049134365924  1.0000
  H   H19       1.0  0.7399882823828497  0.009957854336787086  0.7880555925930879  1.0000
  C   C27       1.0  0.9024554592476438  0.3779642609069913  0.17286148852192929  1.0000
  C   C28       1.0  0.828870253468941  0.3321499032086075  0.17676579806206116  1.0000
  C   C29       1.0  0.7915577641394087  0.30905246878257997  0.061596698452415666  1.0000
  C   C30       1.0  0.8288186827426824  0.332383648291539  0.9414618227201248  1.0000
  C   C31       1.0  0.9024043660008735  0.3781957568640759  0.9355663620141073  1.0000
  C   C32       1.0  0.9388105737763873  0.4007300282985704  0.0517914598266036  1.0000
  C   C33       1.0  0.7137088812919882  0.26058410035317725  0.0667805802606849  1.0000
  C   C34       1.0  0.69257790484494  0.16313175845464167  0.1623979847087862  1.0000
  C   C35       1.0  0.6193030569575506  0.11756901903152128  0.1671433959074844  1.0000
  C   C36       1.0  0.5660000580136523  0.16862091183802597  0.07661617903395856  1.0000
  C   C37       1.0  0.5866352173912168  0.26570659193088053  0.9811654453639234  1.0000
  C   C38       1.0  0.659887524936441  0.3113716614331179  0.9761540756030187  1.0000
  N   N4        1.0  0.4910568835831466  0.12196118992834504  0.08160636177423775  1.0000
  H   H20       1.0  0.9305075586791711  0.3953673575965415  0.49883118603388343  1.0000
  H   H21       1.0  0.8000245335750825  0.3160138812887432  0.26947607367215376  1.0000
  H   H22       1.0  0.8006798720427662  0.3130417179364462  0.8525459150558317  1.0000
  H   H23       1.0  0.9955783350573852  0.43607280142464555  0.04801147534212746  1.0000
  H   H24       1.0  0.9304325805065706  0.395707860900101  0.6058624780151511  1.0000
  H   H25       1.0  0.7329823539477338  0.12094866881372068  0.2324588462561521  1.0000
  H   H26       1.0  0.6041346740738197  0.04224129732708737  0.2411909688789715  1.0000
  H   H27       1.0  0.545916850327173  0.30623924988173057  0.9108392827815655  1.0000
  H   H28       1.0  0.6741778194462404  0.38760749353766477  0.9024513207463021  1.0000
  H   H29       1.0  0.4509304739192018  0.15941934201715013  0.0145271210190967  1.0000
  H   H30       1.0  0.4751451756442083  0.04961396663131379  0.15241743851721345  1.0000
  Zn  Zn1       1.0  0.8201114032916159  0.3819829096029643  0.5554230560093265  1.0000
  Zn  Zn2       1.0  0.984741241724405  0.37417679073274623  0.5530043401112541  1.0000
  C   C39       1.0  0.9024114336143222  0.37297842183898755  0.7913993383083313  1.0000
  C   C40       1.0  0.9024430094383931  0.38318283189687286  0.3170281587106225  1.0000
  C   C41       1.0  0.9024687405690459  0.615268480178917  0.5490172997843186  1.0000
  C   C42       1.0  0.9023856460238417  0.14089121595385468  0.5594102674387078  1.0000
  O   O1        1.0  0.9649149958669013  0.3819661848763063  0.3644939206462623  1.0000
  O   O2        1.0  0.9648896851312841  0.36826942543169516  0.7420974532312792  1.0000
  O   O3        1.0  0.964935118922937  0.5639217520612976  0.5463722544799412  1.0000
  O   O4        1.0  0.9648695059064161  0.18631387017098766  0.5602190228516271  1.0000
  O   O5        1.0  0.8399830829295213  0.5698458328299802  0.5482083740875121  1.0000
  O   O6        1.0  0.8399376494176125  0.37419506646872325  0.7439335034533356  1.0000
  O   O7        1.0  0.8399629602996832  0.38789178018160264  0.3663284095384376  1.0000
  O   O8        1.0  0.8399174703279467  0.1922394562172567  0.5620536091083341  1.0000
