data_image0
_chemical_formula_structural       NC10NC5H10C12OCH12C16H10Zn2C4O8
_chemical_formula_sum              "N2 C48 H32 O9 Zn2"
_cell_length_a       19.4436361288709
_cell_length_b       10.29979075500242
_cell_length_c       10.299151387937775
_cell_angle_alpha    85.5809823184421
_cell_angle_beta     89.69351296060239
_cell_angle_gamma    89.4004616021446

_space_group_name_H-M_alt    "P 1"
_space_group_IT_number       1

loop_
  _space_group_symop_operation_xyz
  'x, y, z'

loop_
  _atom_site_type_symbol
  _atom_site_label
  _atom_site_symmetry_multiplicity
  _atom_site_fract_x
  _atom_site_fract_y
  _atom_site_fract_z
  _atom_site_occupancy
  N   N1        1.0  0.6475651806161373  0.4086805641125759  0.5620007569403931  1.0000
  C   C1        1.0  0.5887269622477502  0.4185861175292793  0.576384280698282  1.0000
  C   C2        1.0  0.5153948287084057  0.4309396842820077  0.5943760357790926  1.0000
  C   C3        1.0  0.4732206267952869  0.39891857169875444  0.49970335515585296  1.0000
  C   C4        1.0  0.3973139764071278  0.4093581806884097  0.5050308772219347  1.0000
  C   C5        1.0  0.3575737787570081  0.38463794034586707  0.6121056208366329  1.0000
  C   C6        1.0  0.281453190805897  0.3885512073498778  0.5991459090340698  1.0000
  C   C7        1.0  0.24087624813525293  0.44623636388438603  0.6929140559720595  1.0000
  C   C8        1.0  0.1692127427573404  0.4498713879521403  0.6823698586240321  1.0000
  C   C9        1.0  0.1371314767213893  0.3954253196742894  0.578344066085646  1.0000
  C   C10       1.0  0.06333872382197371  0.39912154677392997  0.5676445819302445  1.0000
  N   N2        1.0  0.0040143555580285  0.4020931194456312  0.5590429060295881  1.0000
  C   C11       1.0  0.17698362793737274  0.33703317462412774  0.4849591978309584  1.0000
  C   C12       1.0  0.2486635833566598  0.3333438621175615  0.4952516187635825  1.0000
  C   C13       1.0  0.3857070692885939  0.3442110677557686  0.7432036626612148  1.0000
  C   C14       1.0  0.4443612183749449  0.3873448635438661  0.7904440826394743  1.0000
  C   C15       1.0  0.4885558888054676  0.4851834463993896  0.7160704278984809  1.0000
  H   H1        1.0  0.495328819571284  0.36977842234992275  0.4093974533548095  1.0000
  H   H2        1.0  0.3726162661574765  0.4318287928769313  0.4118704626305423  1.0000
  H   H3        1.0  0.2647356122611217  0.4895477978363705  0.7737605759501553  1.0000
  H   H4        1.0  0.1388568833476823  0.49520450123789206  0.755288731260837  1.0000
  H   H5        1.0  0.1526523326524321  0.29391748306973753  0.404447152399785  1.0000
  H   H6        1.0  0.2783541667138096  0.2857675501640582  0.4230292133579039  1.0000
  H   H7        1.0  0.3547492144927724  0.2800108398717336  0.8074547827137366  1.0000
  H   H8        1.0  0.45951212811958186  0.35330297188349413  0.888381285299708  1.0000
  H   H9        1.0  0.4584329910103354  0.5758907443830363  0.6908131159870197  1.0000
  H   H10       1.0  0.5318336946087058  0.5107855080842756  0.7791544681961771  1.0000
  C   C16       1.0  0.8258548623390974  0.02401790298664319  0.5605602664873217  1.0000
  C   C17       1.0  0.8059316752768647  0.013275997972051812  0.692164544086971  1.0000
  C   C18       1.0  0.7957818680380258  0.8906977022186524  0.7588167337800589  1.0000
  C   C19       1.0  0.8058081157006669  0.7779959602015601  0.6920997838488618  1.0000
  C   C20       1.0  0.8257312723286812  0.786745650612925  0.5604945739807059  1.0000
  C   C21       1.0  0.8356446881410928  0.9102001140499878  0.4954623734836163  1.0000
  C   C22       1.0  0.7747084548437992  0.8803874017961334  0.8980478914398626  1.0000
  C   C23       1.0  0.7245193064880286  0.7904679021736755  0.9435302194782325  1.0000
  C   C24       1.0  0.70474752041471  0.7810365916325093  0.07443421395800354  1.0000
  C   C25       1.0  0.7347197617552224  0.8608651748595195  0.16153426450983555  1.0000
  C   C26       1.0  0.7850918184990964  0.951391176209165  0.11792213706515053  1.0000
  C   C27       1.0  0.8046504377464497  0.9604650143327231  0.9864932081943354  1.0000
  O   O1        1.0  0.8168751805190128  0.03353942872392568  0.20152739408917653  1.0000
  C   C28       1.0  0.8021154487808296  0.03484683177955317  0.3369868840401711  1.0000
  H   H11       1.0  0.8334765479215133  0.3555619600161968  0.5104344298844339  1.0000
  H   H12       1.0  0.7973492856314041  0.10048218162678979  0.7426648614067679  1.0000
  H   H13       1.0  0.7989461711479866  0.6832442795188629  0.7435249444454863  1.0000
  H   H14       1.0  0.851015114539367  0.9177186336698888  0.3939352291799838  1.0000
  H   H15       1.0  0.8332886830555367  0.4626288439394368  0.5103316353783938  1.0000
  H   H16       1.0  0.6999256663225575  0.7286655334504916  0.8775243232181367  1.0000
  H   H17       1.0  0.6658993976884546  0.7117986593673633  0.10843559954216042  1.0000
  H   H18       1.0  0.7184096880344539  0.8514594538315203  0.26233687099197767  1.0000
  H   H19       1.0  0.8440533505798553  0.029267120077561826  0.9540000867560665  1.0000
  H   H20       1.0  0.8139911969412842  0.9381196088606919  0.3875112599653787  1.0000
  H   H21       1.0  0.8345672103601486  0.10890387186029993  0.3789321981457945  1.0000
  H   H22       1.0  0.7472078636992794  0.060778297107531465  0.3518780886515228  1.0000
  C   C29       1.0  0.8258329455056436  0.4052123066648565  0.17915614923050827  1.0000
  C   C30       1.0  0.7594623522220142  0.46039170013424857  0.17479370744094624  1.0000
  C   C31       1.0  0.7257700392510015  0.48854349192034663  0.055426229590341825  1.0000
  C   C32       1.0  0.7593426426810529  0.46077150505665077  0.9394823335630367  1.0000
  C   C33       1.0  0.8257531584394346  0.4055512296103232  0.9418987584281191  1.0000
  C   C34       1.0  0.8585901454367281  0.37811351153411854  0.062165618535069855  1.0000
  C   C35       1.0  0.6555579895971092  0.5469169184850522  0.05185670205441251  1.0000
  C   C36       1.0  0.6380719465504454  0.6470519711575071  0.9566882965940433  1.0000
  C   C37       1.0  0.5719770361287266  0.701954037525411  0.9534570265799887  1.0000
  C   C38       1.0  0.5225011029665262  0.6575455234947285  0.045099544587057894  1.0000
  C   C39       1.0  0.5393636946010036  0.5579803291302985  0.14011098178030257  1.0000
  C   C40       1.0  0.6054388868927079  0.5029910347053799  0.14359198802298279  1.0000
  C   C41       1.0  0.4544658624651625  0.7141131662854558  0.04164486729355987  1.0000
  C   C42       1.0  0.3974873085754064  0.7614877132922353  0.03875153869681491  1.0000
  C   C43       1.0  0.3307660144520768  0.8169628820497048  0.03536347953542629  1.0000
  C   C44       1.0  0.2737966683699841  0.8643300109666305  0.032470725002588186  1.0000
  H   H23       1.0  0.851347303429556  0.3839256538527047  0.5083147019822045  1.0000
  H   H24       1.0  0.7341870822953421  0.4832530873065066  0.2643053381586391  1.0000
  H   H25       1.0  0.733241343224777  0.48063279861179087  0.847324333509567  1.0000
  H   H26       1.0  0.909782658023516  0.3355486888048318  0.0648150149558635  1.0000
  H   H27       1.0  0.9509268482294096  0.30057071174416206  0.7392270117708155  1.0000
  H   H28       1.0  0.6757717818350202  0.6840570941169208  0.8858257576759723  1.0000
  H   H29       1.0  0.5595260484471879  0.7792330195675896  0.8797011759967766  1.0000
  H   H30       1.0  0.5013968065812162  0.5226213314001613  0.2113070015383085  1.0000
  H   H31       1.0  0.6170771892662894  0.4249654382869821  0.2169616315528593  1.0000
  H   H32       1.0  0.2237728788968055  0.9059221985930086  0.02993065506901127  1.0000
  Zn  Zn1       1.0  0.7504287138222043  0.4067761018476739  0.5611546975455173  1.0000
  Zn  Zn2       1.0  0.9011508144690697  0.4039869787752641  0.5598996475839111  1.0000
  C   C45       1.0  0.8257675508152378  0.4003135546363725  0.7977245144081948  1.0000
  C   C46       1.0  0.8258136230777949  0.4104511342055108  0.3233299443423425  1.0000
  C   C47       1.0  0.8257516174550291  0.642571660534625  0.555331854795746  1.0000
  C   C48       1.0  0.8258295052527127  0.16819146898732318  0.5657226737564045  1.0000
  O   O2        1.0  0.8830053909133676  0.41114520917418784  0.3712397025937071  1.0000
  O   O3        1.0  0.8829703700965026  0.39750161990309607  0.7488618285118045  1.0000
  O   O4        1.0  0.8829567325055964  0.5931281190564837  0.5531280472108913  1.0000
  O   O5        1.0  0.8830189770817097  0.21551872021948526  0.5669733869468085  1.0000
  O   O6        1.0  0.7685604997755092  0.595244361356654  0.5540809586040756  1.0000
  O   O7        1.0  0.7685741371176507  0.3996194224764029  0.7498146705248316  1.0000
  O   O8        1.0  0.7686091581509068  0.41326296579678057  0.3721909831998187  1.0000
  O   O9        1.0  0.7686227443077577  0.2176364675965936  0.5679247649221881  1.0000
