data_image0
_chemical_formula_structural       NC12NC2H8C12BrH9C12OCH12Zn2C4O8
_chemical_formula_sum              "N2 C43 H29 Br1 O9 Zn2"
_cell_length_a       19.240039667572717
_cell_length_b       10.299144633409057
_cell_length_c       10.299794127170987
_cell_angle_alpha    85.56673362329126
_cell_angle_beta     89.99328814946611
_cell_angle_gamma    89.97286397093025

_space_group_name_H-M_alt    "P 1"
_space_group_IT_number       1

loop_
  _space_group_symop_operation_xyz
  'x, y, z'

loop_
  _atom_site_type_symbol
  _atom_site_label
  _atom_site_symmetry_multiplicity
  _atom_site_fract_x
  _atom_site_fract_y
  _atom_site_fract_z
  _atom_site_occupancy
  N   N1        1.0  0.6542067193155036  0.42095626754327853  0.5672990390245152  1.0000
  C   C1        1.0  0.5940583504820746  0.4209563515065413  0.5672989570784968  1.0000
  C   C2        1.0  0.5192403133197953  0.4209564687605232  0.5672988197622004  1.0000
  C   C3        1.0  0.4827764516491794  0.35651663610671025  0.6707158755504132  1.0000
  C   C4        1.0  0.4101057262278351  0.3564057723311582  0.6708024306978404  1.0000
  C   C5        1.0  0.3729080783732889  0.4209565612663211  0.5672985920769404  1.0000
  C   C6        1.0  0.4100861088463376  0.4855075372563853  0.4637949479591499  1.0000
  C   C7        1.0  0.4827568200407321  0.4853964380008533  0.4638816256373439  1.0000
  C   C8        1.0  0.2957029879595944  0.4209564825724095  0.5672984966777794  1.0000
  C   C9        1.0  0.2585412655416738  0.307700155654427  0.6091843598346318  1.0000
  C   C10       1.0  0.18587055578809428  0.3078070367656738  0.6090930225240965  1.0000
  C   C11       1.0  0.149370701065323  0.42095635340839843  0.5672985576047096  1.0000
  C   C12       1.0  0.074552663923598  0.42095623972943663  0.5672988062710875  1.0000
  N   N2        1.0  0.0144043470687651  0.4209561989630921  0.5672990146868906  1.0000
  C   C13       1.0  0.1858183571832601  0.5341057458686091  0.5255040397855943  1.0000
  C   C14       1.0  0.2584890319962362  0.5342128070661132  0.525412539860896  1.0000
  H   H1        1.0  0.5104989028776505  0.3066261107765853  0.7514609111443928  1.0000
  H   H2        1.0  0.3830197323646681  0.30731370614009057  0.7526628009096128  1.0000
  H   H3        1.0  0.38298557191770954  0.5345996304870775  0.38193452689723717  1.0000
  H   H4        1.0  0.5104641402834492  0.5352868631410319  0.38313686584106366  1.0000
  H   H5        1.0  0.2856551873158509  0.21854775255963266  0.6403639564367443  1.0000
  H   H6        1.0  0.15817606758919467  0.21955417083067075  0.6413054022994462  1.0000
  H   H7        1.0  0.1580830219396772  0.6223585872692929  0.49329167456369927  1.0000
  H   H8        1.0  0.285561589022006  0.6233652893299622  0.49423289847740315  1.0000
  C   C15       1.0  0.8343995319945295  0.03956147344711769  0.5673778149966249  1.0000
  C   C16       1.0  0.8047673908829106  0.048466040636985674  0.44242293145690215  1.0000
  C   C17       1.0  0.7896497193102517  0.9358443188511723  0.3789922092635185  1.0000
  C   C18       1.0  0.8045640442454043  0.8132004009483679  0.44220169858264247  1.0000
  C   C19       1.0  0.8342182193899305  0.8023410562823194  0.5672314382009302  1.0000
  C   C20       1.0  0.8489525682041255  0.9160333525454495  0.6290508941001427  1.0000
  C   C21       1.0  0.7583035704690686  0.9463094528791752  0.24680413366526843  1.0000
  C   C22       1.0  0.781571047125435  0.04159020570207406  0.15134115489396271  1.0000
  C   C23       1.0  0.7520063980227856  0.051233060114638684  0.026972810166569827  1.0000
  C   C24       1.0  0.6989330748140374  0.9661337953416907  0.996439433599317  1.0000
  C   C25       1.0  0.6753961621302035  0.871172434260515  0.09046192003733333  1.0000
  C   C26       1.0  0.704839697137624  0.861112278925806  0.2149305389085181  1.0000
  Br  Br1       1.0  0.6586310835655446  0.9795901578302324  0.8264840962219528  1.0000
  H   H9        1.0  0.8458262173651598  0.36361378841894965  0.615417279758909  1.0000
  H   H10       1.0  0.7924963133379609  0.14317235868656608  0.3948641505100132  1.0000
  H   H11       1.0  0.793893586332415  0.7261179867927199  0.3930389034394246  1.0000
  H   H12       1.0  0.8718107573788387  0.9084494083702418  0.7254299658314913  1.0000
  H   H13       1.0  0.8905887845808339  0.574578106457499  0.802884481970447  1.0000
  H   H14       1.0  0.8232139256143215  0.10747857771554137  0.17234228191379874  1.0000
  H   H15       1.0  0.7705141306105147  0.12468197269235026  0.9543180749786271  1.0000
  H   H16       1.0  0.6341696883390193  0.805309512232181  0.06731228883147944  1.0000
  H   H17       1.0  0.6852017959894026  0.7878774564082002  0.2867254555408316  1.0000
  C   C27       1.0  0.8343323405112405  0.4208377658721534  0.18595321491402217  1.0000
  C   C28       1.0  0.7662385061180984  0.37171187851658893  0.1887693006792419  1.0000
  C   C29       1.0  0.7317156846888565  0.34692199864517503  0.07304934607074465  1.0000
  C   C30       1.0  0.7661912010140826  0.371938360159247  0.9534643655870148  1.0000
  C   C31       1.0  0.8342854244436532  0.4210647549761273  0.9486560178894088  1.0000
  C   C32       1.0  0.867975401393915  0.4452364901279837  0.06542018403510341  1.0000
  C   C33       1.0  0.659678256747815  0.2949424971195769  0.07708330353358606  1.0000
  C   C34       1.0  0.6099109905823966  0.3436127835972007  0.9859256524859825  1.0000
  C   C35       1.0  0.5422070164978031  0.29467955336950147  0.9899863197172687  1.0000
  C   C36       1.0  0.523286082949797  0.19673922460677362  0.08469181959836747  1.0000
  C   C37       1.0  0.5723680077439052  0.14666424927065158  0.17671232266170334  1.0000
  C   C38       1.0  0.6401663071949234  0.1962370674888032  0.17220015694625634  1.0000
  O   O1        1.0  0.5560320078755201  0.048084910293650474  0.2735529008478179  1.0000
  C   C39       1.0  0.4894250686439147  0.9888074741937521  0.28960149625935205  1.0000
  H   H18       1.0  0.8602882701563263  0.4394985210455722  0.512337735011902  1.0000
  H   H19       1.0  0.7395411239253226  0.3542819066848155  0.28104967461639374  1.0000
  H   H20       1.0  0.7401423926554563  0.3513425664543768  0.864136795122687  1.0000
  H   H21       1.0  0.9205072250819583  0.4831342068290334  0.0624793010469018  1.0000
  H   H22       1.0  0.8602182353093675  0.43984531286595696  0.6193664455801726  1.0000
  H   H23       1.0  0.6231105421806425  0.42068393975863905  0.9125921536680304  1.0000
  H   H24       1.0  0.5041977933523298  0.33307746786557213  0.9196410819563172  1.0000
  H   H25       1.0  0.4704933997782338  0.16070266290972568  0.08552719959131005  1.0000
  H   H26       1.0  0.6778695757267572  0.1560890186426762  0.24237196437488162  1.0000
  H   H27       1.0  0.4751113401478373  0.9403485561188758  0.20075026695422715  1.0000
  H   H28       1.0  0.49122870145550207  0.9143267644726475  0.37328768024647085  1.0000
  H   H29       1.0  0.44982203590903913  0.06307068671153582  0.309864312947417  1.0000
  Zn  Zn1       1.0  0.7581519835229958  0.42095278254364277  0.5673065207487507  1.0000
  Zn  Zn2       1.0  0.9104591034984603  0.42094909291831106  0.5673021334090564  1.0000
  C   C40       1.0  0.8342939520131651  0.4158478031118147  0.8044898641495186  1.0000
  C   C41       1.0  0.8343187977999134  0.42605571107844664  0.33011891710650376  1.0000
  C   C42       1.0  0.8342492244006044  0.6581579143922762  0.5620841706498714  1.0000
  C   C43       1.0  0.8343634738073678  0.1837440394114922  0.5725246801425459  1.0000
  O   O2        1.0  0.8921140123646499  0.42779983483710504  0.37850057984704577  1.0000
  O   O3        1.0  0.8920963176188575  0.4140998991127365  0.756104497878813  1.0000
  O   O4        1.0  0.892059420254565  0.6097683788220227  0.5603601850806403  1.0000
  O   O5        1.0  0.8921508577606234  0.23213136439095305  0.5742447952747334  1.0000
  O   O6        1.0  0.7764601772858877  0.6097705110736718  0.56036385887774  1.0000
  O   O7        1.0  0.7764970742803418  0.4141035917535476  0.756108102134184  1.0000
  O   O8        1.0  0.776514769179208  0.42780348175425464  0.3785026227820798  1.0000
  O   O9        1.0  0.7765516145685557  0.2321350020476387  0.5742469355749189  1.0000
