data_image0
_chemical_formula_structural       NC10NC5H10C13OH12C13NH13Zn2C4O8
_chemical_formula_sum              "N3 C45 H35 O9 Zn2"
_cell_length_a       19.4436361288709
_cell_length_b       10.299150109392551
_cell_length_c       10.299780419254978
_cell_angle_alpha    85.552664501727
_cell_angle_beta     89.69141269769756
_cell_angle_gamma    89.39953782186457

_space_group_name_H-M_alt    "P 1"
_space_group_IT_number       1

loop_
  _space_group_symop_operation_xyz
  'x, y, z'

loop_
  _atom_site_type_symbol
  _atom_site_label
  _atom_site_symmetry_multiplicity
  _atom_site_fract_x
  _atom_site_fract_y
  _atom_site_fract_z
  _atom_site_occupancy
  N   N1        1.0  0.6475803282828175  0.4091142702104078  0.5616754781725657  1.0000
  C   C1        1.0  0.5887417694804384  0.41901749399843435  0.5760556397015544  1.0000
  C   C2        1.0  0.5154092103966522  0.431368143628023  0.5940431992774537  1.0000
  C   C3        1.0  0.47323698802017894  0.39936514173306326  0.49938350166150935  1.0000
  C   C4        1.0  0.3973301582325682  0.40980445456984804  0.5047079116642492  1.0000
  C   C5        1.0  0.3575882014802886  0.3850586305782078  0.6117847720154144  1.0000
  C   C6        1.0  0.2814678191875888  0.3889750711923352  0.598824550014319  1.0000
  C   C7        1.0  0.24088871143061874  0.44664446381290723  0.6925726778821972  1.0000
  C   C8        1.0  0.1692253698273588  0.4502821077339616  0.682027941048104  1.0000
  C   C9        1.0  0.1371464305410762  0.3958543271535584  0.5780217246811694  1.0000
  C   C10       1.0  0.0633538437678802  0.3995532133316051  0.5673216909801146  1.0000
  N   N2        1.0  0.0040296090579989  0.4025269237303324  0.5587195732670882  1.0000
  C   C11       1.0  0.1770007454160913  0.3374778026697691  0.48465705359870026  1.0000
  C   C12       1.0  0.2486805420821475  0.3337859210580769  0.4949500400339062  1.0000
  C   C13       1.0  0.3857194182306611  0.3445995839441207  0.7428882067803511  1.0000
  C   C14       1.0  0.44437236575643785  0.3877266157216688  0.7901146613969754  1.0000
  C   C15       1.0  0.4885676229489554  0.48558972094114283  0.7157172956438478  1.0000
  H   H1        1.0  0.4953470579729976  0.3702423852333989  0.40908959693676095  1.0000
  H   H2        1.0  0.3726339709104626  0.43229740640521874  0.4115453899661483  1.0000
  H   H3        1.0  0.2647462594079304  0.489941768440195  0.7734037087716019  1.0000
  H   H4        1.0  0.1388678230031829  0.4956030018917421  0.7549311150974156  1.0000
  H   H5        1.0  0.1526712586356721  0.29437618337067106  0.4041604286107765  1.0000
  H   H6        1.0  0.2783728178066154  0.2862214875223137  0.4227439211179502  1.0000
  H   H7        1.0  0.3547608965361478  0.2803798722867801  0.8071542077262419  1.0000
  H   H8        1.0  0.459521756515662  0.3536603668525946  0.8880569518249493  1.0000
  H   H9        1.0  0.4584444718656328  0.5763101580232541  0.6904360834718524  1.0000
  H   H10       1.0  0.531844076131125  0.5111800717821682  0.7787915089295043  1.0000
  C   C16       1.0  0.8258730647554419  0.024419728404312835  0.5603411051258478  1.0000
  C   C17       1.0  0.8245893397032351  0.012668095290545578  0.6971566636429627  1.0000
  C   C18       1.0  0.8238786507598697  0.8895762176983739  0.7662618686387934  1.0000
  C   C19       1.0  0.8244567766917025  0.7774151237994478  0.6967943833845949  1.0000
  C   C20       1.0  0.8257434505858763  0.7872113144330805  0.5600651957124749  1.0000
  C   C21       1.0  0.8264459670580957  0.91117430415544  0.49263757568115474  1.0000
  C   C22       1.0  0.8225146294282929  0.8781261643458309  0.9109071478902391  1.0000
  C   C23       1.0  0.780213749856674  0.7860419929690503  0.9792764475789297  1.0000
  C   C24       1.0  0.7789074203419382  0.7753493346192117  0.1153876997547919  1.0000
  C   C25       1.0  0.8203294713726405  0.855574827540509  0.18558650036189484  1.0000
  C   C26       1.0  0.8619722462298436  0.9486249309459038  0.1178652022991562  1.0000
  C   C27       1.0  0.8632945413217119  0.9594930912156652  0.981753529027559  1.0000
  C   C28       1.0  0.8174795676448083  0.8464658186905101  0.33169019408968825  1.0000
  O   O1        1.0  0.7660679129480541  0.9305998153997573  0.372355471833574  1.0000
  H   H11       1.0  0.827849311776618  0.2539025804389283  0.30209903254207027  1.0000
  H   H12       1.0  0.8231857534967971  0.09947725127805862  0.750174626934325  1.0000
  H   H13       1.0  0.8248427018759452  0.6822951974649455  0.7496224519188368  1.0000
  H   H14       1.0  0.827436470925364  0.9194466436510744  0.38717427810715876  1.0000
  H   H15       1.0  0.8261920572682946  0.46350466044300925  0.5074747386638063  1.0000
  H   H16       1.0  0.7473275924097151  0.7236316040473062  0.9274426778433895  1.0000
  H   H17       1.0  0.7454435602573938  0.7046473243713264  0.16603861930250952  1.0000
  H   H18       1.0  0.8935914056908031  0.012611840778406602  0.17045565266060236  1.0000
  H   H19       1.0  0.8967813469119854  0.03064025750531907  0.9319090281766247  1.0000
  H   H20       1.0  0.868066545171872  0.8733674555862383  0.3714389993267715  1.0000
  H   H21       1.0  0.8062975919316852  0.7446580617092114  0.36959389530846665  1.0000
  H   H22       1.0  0.7663107835162786  0.920935696081049  0.46897603099420826  1.0000
  C   C29       1.0  0.8258551060035126  0.40572979836538603  0.17884862722048633  1.0000
  C   C30       1.0  0.8756352651979615  0.5038469584201848  0.1697382903539384  1.0000
  C   C31       1.0  0.9008062174648948  0.5536599735145824  0.047978495704767976  1.0000
  C   C32       1.0  0.8755407727513457  0.504020951183864  0.9344388355158051  1.0000
  C   C33       1.0  0.8257614310741453  0.4059012564728397  0.9415576131656458  1.0000
  C   C34       1.0  0.8011954558734401  0.35730858380944874  0.06421436600474717  1.0000
  C   C35       1.0  0.9534716710374457  0.657456885628537  0.03943209978672946  1.0000
  C   C36       1.0  0.9488044389567378  0.7621292069194254  0.943606525437084  1.0000
  C   C37       1.0  0.9983966748967463  0.8597372567496884  0.9356479845254118  1.0000
  C   C38       1.0  0.053223306148576954  0.8550206436454406  0.02386915120588462  1.0000
  C   C39       1.0  0.058549926230688554  0.7500572767600022  0.11863258632521245  1.0000
  C   C40       1.0  0.008971915544017772  0.6524242630748098  0.1267637889147737  1.0000
  C   C41       1.0  0.10751813336057414  0.9582433962290124  0.012925622617893096  1.0000
  N   N3        1.0  0.16024939611422417  0.9246143485335665  0.9196223273171849  1.0000
  H   H23       1.0  0.8069144946545141  0.3682951829882364  0.5097766960131831  1.0000
  H   H24       1.0  0.8942725158655949  0.5430115684621435  0.2574392732199582  1.0000
  H   H25       1.0  0.8954730233068118  0.5408105707871511  0.8404525555418432  1.0000
  H   H26       1.0  0.7627925590975595  0.28161461174515123  0.07047401046917279  1.0000
  H   H27       1.0  0.8067801655124801  0.36853639277763484  0.6168149841842663  1.0000
  H   H28       1.0  0.9063852427384121  0.7692600557295164  0.8756542778494021  1.0000
  H   H29       1.0  0.9939533238926012  0.9392258434620597  0.8608167336519408  1.0000
  H   H30       1.0  0.1012244082158591  0.7435740217854638  0.1860559556832062  1.0000
  H   H31       1.0  0.01461418231613143  0.5718962802634033  0.20011957961407578  1.0000
  H   H32       1.0  0.08373667962145204  0.053717015735478046  0.9798077848974049  1.0000
  H   H33       1.0  0.13123523965694894  0.9691163407907541  0.10958152472976468  1.0000
  H   H34       1.0  0.1949438727539703  0.0016708801436506882  0.9093668940061543  1.0000
  H   H35       1.0  0.18785642689158966  0.8437943491409716  0.9601950300013673  1.0000
  Zn  Zn1       1.0  0.7504438919203144  0.407209834340029  0.560829980979278  1.0000
  Zn  Zn2       1.0  0.9011660374261772  0.40442075343206274  0.5595757550743568  1.0000
  C   C42       1.0  0.8257784632521865  0.400694793475038  0.7973911981163087  1.0000
  C   C43       1.0  0.8258331116813286  0.41093740262565825  0.32301465111005245  1.0000
  C   C44       1.0  0.8257650453701628  0.6430264083260164  0.5549423832670413  1.0000
  C   C45       1.0  0.8258464783890647  0.16860422830889799  0.5654635361877851  1.0000
  O   O2        1.0  0.8830239998731076  0.411621014303057  0.3709221155555129  1.0000
  O   O3        1.0  0.8829821962387205  0.39789335403493964  0.7485314317523428  1.0000
  O   O4        1.0  0.8829705899033872  0.5935792123005799  0.552752304323878  1.0000
  O   O5        1.0  0.8830355547875658  0.21593516625824694  0.5667011460376088  1.0000
  O   O6        1.0  0.7685743231248553  0.5956954224670337  0.5537045904372004  1.0000
  O   O7        1.0  0.7685859292004059  0.40001112462036503  0.7494836480583749  1.0000
  O   O8        1.0  0.768627733080036  0.4137387392768197  0.3718727705358187  1.0000
  O   O9        1.0  0.7686392879812988  0.21805288196436923  0.5676518983854582  1.0000
