data_image0
_chemical_formula_structural       NC10NC3NH7C12NH11C16H10Zn2C4O8
_chemical_formula_sum              "N4 C45 H28 Zn2 O8"
_cell_length_a       19.210446455230148
_cell_length_b       10.299770795358612
_cell_length_c       10.299151387937775
_cell_angle_alpha    85.58089315832936
_cell_angle_beta     89.97931430287453
_cell_angle_gamma    89.96457025778629

_space_group_name_H-M_alt    "P 1"
_space_group_IT_number       1

loop_
  _space_group_symop_operation_xyz
  'x, y, z'

loop_
  _atom_site_type_symbol
  _atom_site_label
  _atom_site_symmetry_multiplicity
  _atom_site_fract_x
  _atom_site_fract_y
  _atom_site_fract_z
  _atom_site_occupancy
  N   N1        1.0  0.6558512563287798  0.419561936017256  0.5672581801966528  1.0000
  C   C1        1.0  0.5956228684968958  0.42176950950435055  0.567489236644632  1.0000
  C   C2        1.0  0.5208186291922514  0.42450649628775317  0.5677754866663276  1.0000
  C   C3        1.0  0.48521593136264346  0.5407412848255739  0.5828824410734359  1.0000
  C   C4        1.0  0.4125504684664447  0.5408927973961044  0.5828298373547247  1.0000
  C   C5        1.0  0.375651924822344  0.42521548686654564  0.5678619403546632  1.0000
  C   C6        1.0  0.2983296998798877  0.42385897185591426  0.5677114047526712  1.0000
  C   C7        1.0  0.2605891802279613  0.5274012828413863  0.5043452778071513  1.0000
  C   C8        1.0  0.1878107219766135  0.5259990308150584  0.5042362618824423  1.0000
  C   C9        1.0  0.1517713972805445  0.42131195180144365  0.5674423653364966  1.0000
  C   C10       1.0  0.0768417847735961  0.42000983562219063  0.5673055907648921  1.0000
  N   N2        1.0  0.0166038581175447  0.4189628900206286  0.5671956588870728  1.0000
  C   C11       1.0  0.1887882716151996  0.3178953207031008  0.6307834785707143  1.0000
  C   C12       1.0  0.2615685526050765  0.3190233304563128  0.6309427517979487  1.0000
  C   C13       1.0  0.4138646056761388  0.3108010426653276  0.5530430748241959  1.0000
  N   N3        1.0  0.4846347338725113  0.3132460437138762  0.5532085357797485  1.0000
  H   H1        1.0  0.5133230000308939  0.6301783451954213  0.5949271449992048  1.0000
  H   H2        1.0  0.3852876493582622  0.630912292776127  0.5962692408477572  1.0000
  H   H3        1.0  0.2873270112371299  0.6086320074449427  0.45335124585462183  1.0000
  H   H4        1.0  0.1596746861154769  0.6064026181421724  0.4545726582868135  1.0000
  H   H5        1.0  0.1614109077326327  0.23652831202319424  0.6803476376495519  1.0000
  H   H6        1.0  0.2890596076084421  0.23873952466832282  0.6820440771247476  1.0000
  H   H7        1.0  0.3875931664770047  0.21991862236280113  0.5395574602697484  1.0000
  C   C14       1.0  0.8361677992981658  0.03789400717265501  0.567266524173287  1.0000
  C   C15       1.0  0.8159779492378786  0.047046207166693055  0.43585901932298454  1.0000
  C   C16       1.0  0.8058114444699068  0.9345474202195662  0.36923869420873134  1.0000
  C   C17       1.0  0.8161053660014002  0.8117643526525562  0.4357904440816385  1.0000
  C   C18       1.0  0.8362939563072677  0.8006208631740743  0.5671984997001267  1.0000
  C   C19       1.0  0.846212455073639  0.9142403254673735  0.6322005470787029  1.0000
  C   C20       1.0  0.7844520596902744  0.9452833212769595  0.230217181056793  1.0000
  C   C21       1.0  0.7337705248075178  0.03652591160211949  0.18503859740844852  1.0000
  C   C22       1.0  0.7136969192682155  0.046501266360166715  0.054190483176146165  1.0000
  C   C23       1.0  0.7439249360321404  0.9656532098159524  0.9664408700907687  1.0000
  C   C24       1.0  0.7944395268615444  0.8746085947965365  0.010728919790601532  1.0000
  C   C25       1.0  0.8145688979477927  0.8643771087621884  0.14154705120606237  1.0000
  N   N4        1.0  0.7233625794620581  0.9759881457713406  0.8326083214606976  1.0000
  H   H8        1.0  0.8438314608224413  0.3618589101014269  0.617356013292931  1.0000
  H   H9        1.0  0.8090343241420547  0.14194092988417562  0.38450774635257545  1.0000
  H   H10       1.0  0.807414315560985  0.7247281347865909  0.3853795814529555  1.0000
  H   H11       1.0  0.8617874807259072  0.9064117825108196  0.733575617556218  1.0000
  H   H12       1.0  0.8440170106713689  0.46892217973166017  0.6172563569634337  1.0000
  H   H13       1.0  0.7090016665064329  0.09900663895480433  0.25124642206545333  1.0000
  H   H14       1.0  0.6744551346946133  0.11703341841877712  0.021285563477826397  1.0000
  H   H15       1.0  0.8183475885310671  0.811783445158367  0.9438319680621792  1.0000
  H   H16       1.0  0.8543444718347079  0.794353722113203  0.17301232923030874  1.0000
  H   H17       1.0  0.7455997927528293  0.9161274301042195  0.766464547642149  1.0000
  H   H18       1.0  0.6857501954304925  0.043577132463671564  0.7986799468275545  1.0000
  C   C26       1.0  0.8362711950174634  0.4190886156625706  0.18586156563330403  1.0000
  C   C27       1.0  0.7691170816921931  0.4731530497835603  0.18095993001239763  1.0000
  C   C28       1.0  0.7350270695647697  0.5007388447413472  0.061318736007510255  1.0000
  C   C29       1.0  0.7689960512857936  0.4735308441271555  0.9456475831280668  1.0000
  C   C30       1.0  0.8361905558460778  0.41942619867517217  0.9486035261675383  1.0000
  C   C31       1.0  0.8694151456593768  0.3925401088139091  0.06913715376658547  1.0000
  C   C32       1.0  0.6639861507001669  0.5579327793469187  0.05717880669841091  1.0000
  C   C33       1.0  0.6463218793756572  0.6577742127196051  0.9618681959170501  1.0000
  C   C34       1.0  0.5794466875563751  0.7115659508621244  0.9580999717993559  1.0000
  C   C35       1.0  0.5293584994962465  0.6663261622266563  0.04934069681239439  1.0000
  C   C36       1.0  0.546391976397995  0.5670441138815152  0.1444892743258539  1.0000
  C   C37       1.0  0.6132471831741219  0.5131648162814226  0.14850707466264024  1.0000
  C   C38       1.0  0.46052008882505424  0.721750881273044  0.04533330210787456  1.0000
  C   C39       1.0  0.4028688912330999  0.7681682457713974  0.04197708047876736  1.0000
  C   C40       1.0  0.3353599383508801  0.8225225637646967  0.038046978389679076  1.0000
  C   C41       1.0  0.2777180573449827  0.8689326648554794  0.034691405628174854  1.0000
  H   H19       1.0  0.862086731250642  0.3982305783418725  0.5152273968244383  1.0000
  H   H20       1.0  0.7435440401934819  0.4955898405687127  0.27026622155258107  1.0000
  H   H21       1.0  0.7425860142299139  0.49295365928607016  0.8532775396589525  1.0000
  H   H22       1.0  0.9212119961784306  0.35083526890579275  0.07220243749711575  1.0000
  H   H23       1.0  0.962841648845009  0.3165484717829763  0.7469486905170957  1.0000
  H   H24       1.0  0.6844892858422722  0.6954127578134279  0.8913118110445333  1.0000
  H   H25       1.0  0.5668707610958618  0.7886358694156126  0.884242853104114  1.0000
  H   H26       1.0  0.5079548337210211  0.5310472099398105  0.2153769680274995  1.0000
  H   H27       1.0  0.6250003618515919  0.43533462891628183  0.22197138653442705  1.0000
  H   H28       1.0  0.22710372666102752  0.9096845030344318  0.03174494307784581  1.0000
  Zn  Zn1       1.0  0.7599566623146141  0.41938560355330434  0.5672476373136022  1.0000
  Zn  Zn2       1.0  0.9124984333169565  0.41912864465890975  0.5672168385478202  1.0000
  C   C42       1.0  0.8362033966160184  0.41418875762328655  0.8044294081636096  1.0000
  C   C43       1.0  0.8362533650245161  0.4243271264568047  0.3300351946825908  1.0000
  C   C44       1.0  0.8362670781473194  0.6564469600049341  0.5620361976125181  1.0000
  C   C45       1.0  0.8361896311759631  0.18206736389295286  0.5724284746222539  1.0000
  O   O1        1.0  0.8941361872961069  0.4259820382384718  0.3784094941677407  1.0000
  O   O2        1.0  0.8940962488363506  0.41233784009969443  0.7560313593671324  1.0000
  O   O3        1.0  0.8941468919666805  0.6079644042082994  0.5602971269121608  1.0000
  O   O4        1.0  0.894085492125434  0.23035548346465595  0.5741436292572011  1.0000
  O   O5        1.0  0.7783695514511175  0.6081587648366569  0.5603208466079004  1.0000
  O   O6        1.0  0.7783189085830208  0.41253376099935424  0.7560550096779795  1.0000
  O   O7        1.0  0.7783588472466443  0.42617791319098375  0.3784315830735101  1.0000
  O   O8        1.0  0.7783081520612953  0.23055134917147702  0.5741658155321612  1.0000
