data_image0
_chemical_formula_structural       NC11NC3H8C12NH11C12SCH12Zn2C4O8
_chemical_formula_sum              "N3 C43 H31 S1 Zn2 O8"
_cell_length_a       17.807433833752565
_cell_length_b       10.299770795358612
_cell_length_c       10.299780138516091
_cell_angle_alpha    85.57228714023374
_cell_angle_beta     88.51639907153644
_cell_angle_gamma    90.70213480944165

_space_group_name_H-M_alt    "P 1"
_space_group_IT_number       1

loop_
  _space_group_symop_operation_xyz
  'x, y, z'

loop_
  _atom_site_type_symbol
  _atom_site_label
  _atom_site_symmetry_multiplicity
  _atom_site_fract_x
  _atom_site_fract_y
  _atom_site_fract_z
  _atom_site_occupancy
  N   N1        1.0  0.7077838755466399  0.43805618001460656  0.53460317533557  1.0000
  C   C1        1.0  0.6569530218910155  0.4033485712009024  0.6011652956214573  1.0000
  C   C2        1.0  0.5937143154903718  0.36017516586790355  0.6839600791302016  1.0000
  C   C3        1.0  0.6054205422736519  0.2966601973367733  0.8066780359468253  1.0000
  C   C4        1.0  0.5440897067260846  0.25516591142586975  0.887188857443969  1.0000
  C   C5        1.0  0.47089819099035807  0.27687350954048395  0.8456225138090119  1.0000
  C   C6        1.0  0.45821523427540295  0.340542897276922  0.7224443686763495  1.0000
  C   C7        1.0  0.3804559532863003  0.3635798160060921  0.6780973941532689  1.0000
  C   C8        1.0  0.3616794377232003  0.34667029934891236  0.5485245529125611  1.0000
  C   C9        1.0  0.2884579759707598  0.36833915677682905  0.5069141430713071  1.0000
  C   C10       1.0  0.2330700767270354  0.4072358225677828  0.5940563124093912  1.0000
  C   C11       1.0  0.1577121171663417  0.4295627537816451  0.5510846174181745  1.0000
  N   N2        1.0  0.09712969058187201  0.4475119477509515  0.516538502119507  1.0000
  C   C12       1.0  0.2511551077605618  0.4243557634949322  0.7230980270288823  1.0000
  C   C13       1.0  0.3243237816797491  0.40265204954755207  0.7649638570602313  1.0000
  C   C14       1.0  0.5204033796151687  0.3820326229776412  0.641949962614774  1.0000
  H   H1        1.0  0.6618806236322173  0.279255316660711  0.8400434583442435  1.0000
  H   H2        1.0  0.553271591630873  0.20574088321703177  0.9819246645280755  1.0000
  H   H3        1.0  0.42424781422030783  0.242335729529219  0.9090614832360608  1.0000
  H   H4        1.0  0.4033574778030203  0.31500871318807766  0.47981392699940706  1.0000
  H   H5        1.0  0.2750217934259639  0.35442965676908633  0.4068854995811364  1.0000
  H   H6        1.0  0.20876010560888242  0.45479417576787706  0.7912940109886728  1.0000
  H   H7        1.0  0.3372318222697568  0.41810690497446257  0.8648096256125553  1.0000
  H   H8        1.0  0.5119201974873551  0.4328200701003859  0.5474483466141289  1.0000
  C   C15       1.0  0.902392291336352  0.06141396824575018  0.5256133980882656  1.0000
  C   C16       1.0  0.8805976014291053  0.07002312577641834  0.3952201128685573  1.0000
  C   C17       1.0  0.869622971289536  0.9572509598342749  0.3291105163280048  1.0000
  C   C18       1.0  0.8807351148360358  0.8347448328478343  0.3951451828023056  1.0000
  C   C19       1.0  0.9025284451600999  0.824144350638805  0.5255390816260959  1.0000
  C   C20       1.0  0.9132353557879637  0.9380305219732635  0.5900428590073974  1.0000
  C   C21       1.0  0.8465657832523938  0.9674123619779019  0.1911619734715866  1.0000
  C   C22       1.0  0.791865655090505  0.05724914136843395  0.1485147966728093  1.0000
  C   C23       1.0  0.7701964427913406  0.06668460980502067  0.0186750726972138  1.0000
  C   C24       1.0  0.8028172615158904  0.9866922006348224  0.9294215075514356  1.0000
  C   C25       1.0  0.8573371825198278  0.897048876926533  0.9711865266819513  1.0000
  C   C26       1.0  0.8790665792897919  0.8873588359818043  0.10099348657023532  1.0000
  N   N3        1.0  0.7806204554842582  0.9964740749743117  0.7966218911219567  1.0000
  H   H9        1.0  0.9106651251660185  0.38558496775618223  0.5753178990945627  1.0000
  H   H10       1.0  0.873101829934857  0.1647320094968625  0.34421796132160853  1.0000
  H   H11       1.0  0.8713534501040158  0.7474739315174261  0.3451705932567506  1.0000
  H   H12       1.0  0.9300484007536117  0.930620896911396  0.6906355313787542  1.0000
  H   H13       1.0  0.9108653781946909  0.4926534238918099  0.5752089885813274  1.0000
  H   H14       1.0  0.7651359340917184  0.11902960352922132  0.21595525146145111  1.0000
  H   H15       1.0  0.7278432075958354  0.13612795725300808  0.987730068974634  1.0000
  H   H16       1.0  0.8831378561327162  0.834900103879224  0.9030999353136853  1.0000
  H   H17       1.0  0.921995861558278  0.8184393471539705  0.1304722850773541  1.0000
  H   H18       1.0  0.8046178757625311  0.937243053799631  0.7293718175546045  1.0000
  H   H19       1.0  0.7400257311856695  0.06301982441643017  0.7645721746957288  1.0000
  C   C27       1.0  0.9024905477190425  0.4426685842617686  0.14422275451488065  1.0000
  C   C28       1.0  0.8310485319689435  0.3829220508411937  0.15103708041407193  1.0000
  C   C29       1.0  0.7948185936110158  0.3527615517462772  0.03734440476051426  1.0000
  C   C30       1.0  0.8309870666601766  0.3831459967606441  0.9157360156815608  1.0000
  C   C31       1.0  0.902430202063341  0.4428897338942559  0.9069297997875911  1.0000
  C   C32       1.0  0.9377818479309313  0.4723172584612547  0.021714760872448613  1.0000
  C   C33       1.0  0.7192379045936118  0.2895697300518736  0.0456162456925433  1.0000
  C   C34       1.0  0.6636059261297745  0.3298795629313218  0.957237251299976  1.0000
  C   C35       1.0  0.5924858442851554  0.27037372142819804  0.9652584551125201  1.0000
  C   C36       1.0  0.5759605328603402  0.17016270343685114  0.06159681135860695  1.0000
  C   C37       1.0  0.6309237516227227  0.1290376970127376  0.14960125533229496  1.0000
  C   C38       1.0  0.7020902806595148  0.18837123691678426  0.1419403198504574  1.0000
  S   S1        1.0  0.4847344827931862  0.09367607441108583  0.07143748426656815  1.0000
  C   C39       1.0  0.44622852376461114  0.20695601320374646  0.18194285301744806  1.0000
  H   H20       1.0  0.9297241731451977  0.4653874925601138  0.46908269016066173  1.0000
  H   H21       1.0  0.802968414369968  0.3613177984872342  0.24489114177339455  1.0000
  H   H22       1.0  0.8037397472521061  0.3584828893705765  0.8279301556632244  1.0000
  H   H23       1.0  0.992896496524183  0.5184083864195708  0.015689418413358913  1.0000
  H   H24       1.0  0.9296366758093341  0.4657128310090086  0.5761171519126589  1.0000
  H   H25       1.0  0.6747912420759091  0.40851892586966  0.8830330424752479  1.0000
  H   H26       1.0  0.5501621253637431  0.3026790688124148  0.8968879018248423  1.0000
  H   H27       1.0  0.618590318382974  0.051066424430727286  0.22398353663887138  1.0000
  H   H28       1.0  0.7440094305062998  0.15400507831661003  0.21022901177919007  1.0000
  H   H29       1.0  0.4779954676653719  0.201697417014306  0.2734835896634671  1.0000
  H   H30       1.0  0.38660512637559874  0.18037926276674088  0.20548382311394664  1.0000
  H   H31       1.0  0.449150474760198  0.30774885615444436  0.1352070153129734  1.0000
  Zn  Zn1       1.0  0.8201406660195733  0.4407814378471602  0.5293975854186757  1.0000
  Zn  Zn2       1.0  0.9847728826149437  0.4447760733605455  0.5217546786563869  1.0000
  C   C40       1.0  0.9024390016534921  0.437674189290028  0.7627623961325862  1.0000
  C   C41       1.0  0.9024763450421448  0.4478850042009428  0.2883899117839177  1.0000
  C   C42       1.0  0.9024992561580939  0.6799704715256705  0.5203783843951473  1.0000
  C   C43       1.0  0.9024160340760569  0.2055871603145354  0.5307739955171102  1.0000
  O   O1        1.0  0.9649486456925435  0.4511459599840353  0.33387328401339533  1.0000
  O   O2        1.0  0.9649187439234778  0.4374440895978826  0.7114778607798213  1.0000
  O   O3        1.0  0.9649665578703502  0.6331013817137536  0.5157510953631841  1.0000
  O   O4        1.0  0.9649007755772111  0.25548867576708645  0.5295999546663994  1.0000
  O   O5        1.0  0.8400127168764109  0.630068834078858  0.5215523120099814  1.0000
  O   O6        1.0  0.8399649032101303  0.43441310225199103  0.7172790080321825  1.0000
  O   O7        1.0  0.8399948051446328  0.4481149269305402  0.3396728699302316  1.0000
  O   O8        1.0  0.8399469350168655  0.25245763345290784  0.5353996379481869  1.0000
