data_image0
_chemical_formula_structural       NC9NC5H8C16H10C12NCOH11Zn2C4O8
_chemical_formula_sum              "N3 C47 H29 O9 Zn2"
_cell_length_a       17.807436237873137
_cell_length_b       10.29914801576943
_cell_length_c       10.299148425239203
_cell_angle_alpha    85.5134079146002
_cell_angle_beta     89.37684199315078
_cell_angle_gamma    88.40369483635645

_space_group_name_H-M_alt    "P 1"
_space_group_IT_number       1

loop_
  _space_group_symop_operation_xyz
  'x, y, z'

loop_
  _atom_site_type_symbol
  _atom_site_label
  _atom_site_symmetry_multiplicity
  _atom_site_fract_x
  _atom_site_fract_y
  _atom_site_fract_z
  _atom_site_occupancy
  N   N1        1.0  0.7078204932150326  0.3884509813069146  0.5564367406028845  1.0000
  C   C1        1.0  0.6472296726619325  0.353263043602114  0.5454268072144346  1.0000
  C   C2        1.0  0.5718613513914287  0.3094931242027106  0.5317316455021359  1.0000
  C   C3        1.0  0.5537755580569748  0.23811540996514524  0.42675096009914415  1.0000
  C   C4        1.0  0.4805968038787591  0.1955067200744438  0.41337125281996445  1.0000
  C   C5        1.0  0.4244550764551634  0.22389819894034813  0.5049399357842239  1.0000
  C   C6        1.0  0.3466849288117843  0.17873102726001888  0.4908028040997148  1.0000
  C   C7        1.0  0.2845161728898805  0.2604829052838027  0.5167092516141356  1.0000
  C   C8        1.0  0.2111950833604081  0.21767115608748577  0.5033433119601609  1.0000
  C   C9        1.0  0.1479765607220285  0.30211444487310346  0.5296125567680063  1.0000
  N   N2        1.0  0.0971618561030191  0.3700010064868253  0.5507323055108819  1.0000
  C   C10       1.0  0.199459172519328  0.09284953939446416  0.46404568173551675  1.0000
  C   C11       1.0  0.2607705579265337  0.01108381143051318  0.4381308497229319  1.0000
  C   C12       1.0  0.3339721903182131  0.05350107185396702  0.451294401830604  1.0000
  C   C13       1.0  0.4432323109206103  0.2957702281681236  0.6101396592181543  1.0000
  C   C14       1.0  0.5164639329244415  0.3381885725177862  0.623363784161203  1.0000
  H   H1        1.0  0.5961780025925519  0.2156577142056253  0.3550422675669114  1.0000
  H   H2        1.0  0.4676890720193472  0.14185414843233812  0.3304671497368703  1.0000
  H   H3        1.0  0.2930229976130964  0.357943495170423  0.545547420290871  1.0000
  H   H4        1.0  0.1429909552112316  0.05881519919247835  0.45346433437904854  1.0000
  H   H5        1.0  0.2515656821425399  0.9144438737316186  0.4080918339652573  1.0000
  H   H6        1.0  0.3806066462951546  0.9877587615786242  0.4322722539527364  1.0000
  H   H7        1.0  0.4015464784794253  0.3176883051120638  0.6831431746652168  1.0000
  H   H8        1.0  0.5299003404111138  0.39306224849647875  0.7052256679853919  1.0000
  C   C15       1.0  0.902441241861763  0.9978269312021402  0.5537508373859865  1.0000
  C   C16       1.0  0.8853077971430351  0.008293468719624997  0.4205185351158991  1.0000
  C   C17       1.0  0.8766760082194577  0.8964679164377907  0.35280150517971554  1.0000
  C   C18       1.0  0.8854081430129924  0.7730370676699974  0.4201124462602923  1.0000
  C   C19       1.0  0.9025482716336493  0.760614735827105  0.5534294094341448  1.0000
  C   C20       1.0  0.9109606287108952  0.873531127119391  0.6194277079636059  1.0000
  C   C21       1.0  0.8585510754449001  0.9085858477338522  0.2118577945177913  1.0000
  C   C22       1.0  0.8941074033296381  0.8259514574167852  0.12611318267851446  1.0000
  C   C23       1.0  0.877022595443469  0.8374828568059318  0.9934627808106304  1.0000
  C   C24       1.0  0.8242060953825808  0.9315580202496283  0.9447551784642525  1.0000
  C   C25       1.0  0.7885129724346079  0.014179745310905378  0.029217763706990807  1.0000
  C   C26       1.0  0.805544213552008  0.00289214126438897  0.16188989844823642  1.0000
  C   C27       1.0  0.806644995426149  0.9433045936524138  0.8081787339932598  1.0000
  C   C28       1.0  0.7919377634502732  0.9531422352252147  0.6937979385019486  1.0000
  C   C29       1.0  0.7747157685133633  0.9646619821470126  0.5598591929950345  1.0000
  C   C30       1.0  0.7600110049468296  0.9744981218301079  0.4454968703982596  1.0000
  H   H9        1.0  0.9089928607802614  0.32127747740646906  0.6050123489880361  1.0000
  H   H10       1.0  0.8796481205561243  0.10363869772103973  0.3686877392046246  1.0000
  H   H11       1.0  0.8778092868563029  0.6865253995783763  0.3688046782202108  1.0000
  H   H12       1.0  0.9241738969308395  0.8647422311276151  0.7221940904961708  1.0000
  H   H13       1.0  0.9344341038248444  0.5298836453282241  0.805243255599277  1.0000
  H   H14       1.0  0.9358350520749565  0.7535544196452699  0.16135401986942255  1.0000
  H   H15       1.0  0.9051388299007589  0.773254410322376  0.9288714895608567  1.0000
  H   H16       1.0  0.7473830683566574  0.08711338208706931  0.992598180086194  1.0000
  H   H17       1.0  0.7765523326461429  0.06677261098535814  0.22569117555381424  1.0000
  H   H18       1.0  0.7470990387523472  0.9831350805825693  0.34507710726226115  1.0000
  C   C31       1.0  0.9025512883829444  0.3793740139316828  0.17219300314139652  1.0000
  C   C32       1.0  0.9787782995723061  0.41132373228858055  0.16709182687574953  1.0000
  C   C33       1.0  0.017307627181039065  0.4273143426275976  0.0473751253387904  1.0000
  C   C34       1.0  0.9786198791718261  0.4109910600399911  0.9318371356204715  1.0000
  C   C35       1.0  0.9024382234386492  0.37906766849405105  0.9349871792696356  1.0000
  C   C36       1.0  0.8648508624103017  0.3634373235506412  0.05566429506705983  1.0000
  C   C37       1.0  0.09790125889230405  0.46109119490156636  0.043072030551528195  1.0000
  C   C38       1.0  0.14837473872403506  0.40132355019817556  0.9587585438723005  1.0000
  C   C39       1.0  0.22417697429606198  0.43324784314051024  0.9548589251629149  1.0000
  C   C40       1.0  0.25128036966235556  0.5242442958464317  0.03593210967401328  1.0000
  C   C41       1.0  0.20073259254434217  0.5858618339808381  0.11867751395249404  1.0000
  C   C42       1.0  0.12489642124720346  0.5540458268051864  0.12267442637319603  1.0000
  N   N3        1.0  0.32930642990262227  0.5567568806231744  0.02823833514013918  1.0000
  C   C43       1.0  0.3725244819311151  0.5913850374903193  0.13631984825459686  1.0000
  O   O1        1.0  0.3471029187467156  0.5784259544853954  0.2510584252272201  1.0000
  H   H19       1.0  0.7587959789462162  0.31830088632134146  0.38917266287459906  1.0000
  H   H20       1.0  0.008586445047588098  0.42210765072195855  0.2565763856996863  1.0000
  H   H21       1.0  0.007770467117703461  0.425002674778165  0.8391706862322308  1.0000
  H   H22       1.0  0.80609092521011  0.33881043641905473  0.05880908665991136  1.0000
  H   H23       1.0  0.8731389109759723  0.3667526700548769  0.6087256158262631  1.0000
  H   H24       1.0  0.12942369882879023  0.3287055662548801  0.8968941883936834  1.0000
  H   H25       1.0  0.26213001329506236  0.38590752432974806  0.8893670456425862  1.0000
  H   H26       1.0  0.21925761649040432  0.6606647276986275  0.17814059470905863  1.0000
  H   H27       1.0  0.08703240290326009  0.604048407249201  0.18627130933841118  1.0000
  H   H28       1.0  0.3581990719928616  0.5464476503239895  0.9406356928010293  1.0000
  H   H29       1.0  0.4289385491004605  0.6257546318153506  0.11965389782725366  1.0000
  Zn  Zn1       1.0  0.8201759975156512  0.3831232485400211  0.5547980766659419  1.0000
  Zn  Zn2       1.0  0.9848063305370806  0.3753181479591454  0.5523816513106126  1.0000
  C   C44       1.0  0.9024571996335435  0.3739515664392521  0.7908049813900655  1.0000
  C   C45       1.0  0.902526926388368  0.3844913835256851  0.3163748469844687  1.0000
  C   C46       1.0  0.9025249471672016  0.6164338760697823  0.5483146463503084  1.0000
  C   C47       1.0  0.9024591224486563  0.14200751610541995  0.5588652527501283  1.0000
  O   O2        1.0  0.9649951028887769  0.3832411583284665  0.36384657245442553  1.0000
  O   O3        1.0  0.9649396365277189  0.3692769212439384  0.7414988715269284  1.0000
  O   O4        1.0  0.9649935011066465  0.5650844922646809  0.5456862221159173  1.0000
  O   O5        1.0  0.9649411821484054  0.187433599301138  0.5596591253042174  1.0000
  O   O6        1.0  0.8400410897240747  0.5710077998629428  0.5475206034901121  1.0000
  O   O7        1.0  0.8399872253709492  0.3752017892968491  0.7433331829929959  1.0000
  O   O8        1.0  0.8400426920070582  0.38916598174660977  0.36567932242272416  1.0000
  O   O9        1.0  0.8399887712478787  0.19335841339078108  0.5614919726515106  1.0000
