data_image0
_chemical_formula_structural       NC10NC3NH7C13OH12C12SCH12Zn2C4O8
_chemical_formula_sum              "N3 C43 H31 O9 S1 Zn2"
_cell_length_a       19.210446455230148
_cell_length_b       10.299150109392551
_cell_length_c       10.299780138516091
_cell_angle_alpha    85.5566253413432
_cell_angle_beta     89.98277112440113
_cell_angle_gamma    89.92850971851941

_space_group_name_H-M_alt    "P 1"
_space_group_IT_number       1

loop_
  _space_group_symop_operation_xyz
  'x, y, z'

loop_
  _atom_site_type_symbol
  _atom_site_label
  _atom_site_symmetry_multiplicity
  _atom_site_fract_x
  _atom_site_fract_y
  _atom_site_fract_z
  _atom_site_occupancy
  N   N1        1.0  0.6553257931922519  0.4198943099971888  0.5669399596633293  1.0000
  C   C1        1.0  0.5950966679936824  0.42210202979065814  0.5671703997570785  1.0000
  C   C2        1.0  0.5202915144823427  0.4248391979999664  0.5674558856231731  1.0000
  C   C3        1.0  0.4846500877042994  0.5410812467528363  0.5825302419902461  1.0000
  C   C4        1.0  0.4119845719791254  0.541232779681496  0.5824775993514208  1.0000
  C   C5        1.0  0.3751245736950026  0.4255482337214105  0.5675421407564034  1.0000
  C   C6        1.0  0.2978028015738017  0.4241916300973356  0.567391984315887  1.0000
  C   C7        1.0  0.2600252895361351  0.5277519852075656  0.5040006141944835  1.0000
  C   C8        1.0  0.1872473008853869  0.5263496345585126  0.5038919879133559  1.0000
  C   C9        1.0  0.1512453496423672  0.4216444416096552  0.5671236561486466  1.0000
  C   C10       1.0  0.0763161720482928  0.4203422392065388  0.566987245151825  1.0000
  N   N2        1.0  0.0160785950782351  0.4192952242721091  0.5668776055985181  1.0000
  C   C11       1.0  0.188299173145213  0.31820978046758785  0.6304899793545309  1.0000
  C   C12       1.0  0.2610790786978927  0.3193378587693767  0.6306489356057332  1.0000
  C   C13       1.0  0.4133753786369704  0.3111266352461759  0.5527553602062814  1.0000
  N   N3        1.0  0.48414468722736104  0.3135718119660571  0.5529201429861019  1.0000
  H   H1        1.0  0.5127273699630495  0.630523830121851  0.5945498425171758  1.0000
  H   H2        1.0  0.3846918151911802  0.6312576356772439  0.5958916709399931  1.0000
  H   H3        1.0  0.2867340577810146  0.6089970589574163  0.4529868418805645  1.0000
  H   H4        1.0  0.1590825245119785  0.6067673026824649  0.45420880488976834  1.0000
  H   H5        1.0  0.1609508716190319  0.23682862693052575  0.6800739867796604  1.0000
  H   H6        1.0  0.2885988804442527  0.23903976535866422  0.6817697365100135  1.0000
  H   H7        1.0  0.387134166780091  0.2202387904911658  0.5392953163058165  1.0000
  C   C14       1.0  0.8357711160257735  0.03819506518291127  0.5670528913677222  1.0000
  C   C15       1.0  0.834478857434611  0.026431336128064586  0.7038572943585826  1.0000
  C   C16       1.0  0.8337631062402571  0.903332302533774  0.772956359144507  1.0000
  C   C17       1.0  0.8343446754510739  0.7911761124461855  0.703493939961112  1.0000
  C   C18       1.0  0.8356399228851144  0.8009844545417061  0.5667759312886733  1.0000
  C   C19       1.0  0.8363474883482969  0.9249545790974031  0.49935437611654776  1.0000
  C   C20       1.0  0.8323899805357328  0.8918693462484629  0.9175897890080162  1.0000
  C   C21       1.0  0.7895818534608305  0.7990792360698948  0.9856153425983396  1.0000
  C   C22       1.0  0.7882666816286596  0.7883740532588502  0.12171525953828743  1.0000
  C   C23       1.0  0.8301924244539434  0.8693003127853187  0.1922499280662473  1.0000
  C   C24       1.0  0.8723345340429287  0.9630453434281515  0.1248670304331706  1.0000
  C   C25       1.0  0.8736658641944964  0.9739262963580566  0.9887668220008863  1.0000
  C   C26       1.0  0.8273155504973813  0.8601535385430913  0.3383297028700708  1.0000
  O   O1        1.0  0.7752852369526984  0.9434266139497928  0.37857742627640156  1.0000
  H   H8        1.0  0.8377580756245788  0.2676932419686464  0.30882824806926545  1.0000
  H   H9        1.0  0.8330610240780704  0.11322058151130121  0.7568635792273717  1.0000
  H   H10       1.0  0.8347379498535651  0.6960663268697275  0.7563248575146191  1.0000
  H   H11       1.0  0.8373445817462856  0.9332362586832417  0.39389968544101217  1.0000
  H   H12       1.0  0.8360912683403757  0.4772816967119368  0.5141893982864132  1.0000
  H   H13       1.0  0.7562959991302618  0.7361127583053841  0.9335148967200788  1.0000
  H   H14       1.0  0.7544013675191066  0.7171133431076805  0.1720942629716281  1.0000
  H   H15       1.0  0.9043381315501567  0.0275671084116762  0.17771386797227917  1.0000
  H   H16       1.0  0.9075544419048278  0.045632603869583566  0.9391944191939685  1.0000
  H   H17       1.0  0.878515324137336  0.8879078085564789  0.378488936190834  1.0000
  H   H18       1.0  0.8160004966997473  0.7581605438028556  0.3761424304235782  1.0000
  H   H19       1.0  0.7755359591758045  0.933773263580442  0.4751994379938729  1.0000
  C   C27       1.0  0.8357335172650348  0.41947842434309557  0.1855623166956346  1.0000
  C   C28       1.0  0.7695576776445929  0.36157211417501345  0.18908924060976506  1.0000
  C   C29       1.0  0.7359982952440987  0.33234484723277125  0.07372940762336899  1.0000
  C   C30       1.0  0.7695006501967908  0.361797665926493  0.9537852720994575  1.0000
  C   C31       1.0  0.8356775281972112  0.4197011506610253  0.9482665107342019  1.0000
  C   C32       1.0  0.868423358804653  0.4482180665029116  0.06467821413110553  1.0000
  C   C33       1.0  0.665988849337418  0.27109985518576196  0.0785234013112277  1.0000
  C   C34       1.0  0.614428349112734  0.31284979650638434  0.9875607080831412  1.0000
  C   C35       1.0  0.5485507224448642  0.255175883451364  0.9923093315092606  1.0000
  C   C36       1.0  0.5332726839691011  0.15538344089107237  0.08791094975049019  1.0000
  C   C37       1.0  0.5842138068448802  0.11283553112830247  0.17846838972657286  1.0000
  C   C38       1.0  0.65013452820505  0.1703359288607651  0.1740822297570832  1.0000
  S   S1        1.0  0.44877120820980054  0.08124662177500519  0.0935539123783038  1.0000
  C   C39       1.0  0.4130545356613642  0.19553034412105852  0.20224756432543778  1.0000
  H   H20       1.0  0.8609597006162675  0.4414958367375117  0.5116754221703073  1.0000
  H   H21       1.0  0.743546784293377  0.34069131144171116  0.2816506813929889  1.0000
  H   H22       1.0  0.744262434415822  0.33783624859763406  0.8647261417531049  1.0000
  H   H23       1.0  0.9194753641274944  0.49288953598360674  0.061188970652478414  1.0000
  H   H24       1.0  0.860878518472808  0.4418234616637604  0.6187057485314038  1.0000
  H   H25       1.0  0.6247657887456173  0.3912067296142583  0.9138522050496638  1.0000
  H   H26       1.0  0.5093239515511346  0.28857697154108264  0.9219727018098043  1.0000
  H   H27       1.0  0.5728123312260165  0.0351763954937514  0.25230168847363976  1.0000
  H   H28       1.0  0.6889871330431613  0.13488430923378103  0.24431885387272922  1.0000
  H   H29       1.0  0.4424905939929147  0.1894508750271675  0.29525877684735513  1.0000
  H   H30       1.0  0.3578182764415593  0.17049130022947434  0.22303858474156302  1.0000
  H   H31       1.0  0.4157279177997493  0.2962559919082173  0.1556192295419936  1.0000
  Zn  Zn1       1.0  0.7594312583328318  0.4197179646544176  0.5669294656213586  1.0000
  Zn  Zn2       1.0  0.9119731150371011  0.41946098931845066  0.5668987387913369  1.0000
  C   C40       1.0  0.8356874414206121  0.41448495087088744  0.8041009432199187  1.0000
  C   C41       1.0  0.8357185974104423  0.42469563908494035  0.3297273877230056  1.0000
  C   C42       1.0  0.8356615175773485  0.6567995566053495  0.5616533216545303  1.0000
  C   C43       1.0  0.8357444694651304  0.1823794730298096  0.5721750791010725  1.0000
  O   O2        1.0  0.8936024307861912  0.42634339701246016  0.3780988439096189  1.0000
  O   O3        1.0  0.8935793479010656  0.41264117469859585  0.7557057926065376  1.0000
  O   O4        1.0  0.893557633601393  0.6083132850245563  0.5599276225021559  1.0000
  O   O5        1.0  0.893624093039212  0.2306712960367272  0.5738769166507418  1.0000
  O   O6        1.0  0.777780228275672  0.6085076580252464  0.5599512877656077  1.0000
  O   O7        1.0  0.777801942308871  0.41283710810906005  0.755729388060965  1.0000
  O   O8        1.0  0.7778250253627078  0.4265392847072982  0.37812087804869665  1.0000
  O   O9        1.0  0.7778466876073314  0.23086717447044292  0.5738990481567334  1.0000
