data_image0
_chemical_formula_structural       NC11NC3H8C12SCH12C12SCH12Zn2C4O8
_chemical_formula_sum              "N2 C44 H32 S2 Zn2 O8"
_cell_length_a       17.807433833752565
_cell_length_b       10.299776766347529
_cell_length_c       10.299780138516091
_cell_angle_alpha    85.57845135651907
_cell_angle_beta     88.51639907153644
_cell_angle_gamma    90.66624570658541

_space_group_name_H-M_alt    "P 1"
_space_group_IT_number       1

loop_
  _space_group_symop_operation_xyz
  'x, y, z'

loop_
  _atom_site_type_symbol
  _atom_site_label
  _atom_site_symmetry_multiplicity
  _atom_site_fract_x
  _atom_site_fract_y
  _atom_site_fract_z
  _atom_site_occupancy
  N   N1        1.0  0.7072600520042187  0.4380306759777932  0.5347827784790911  1.0000
  C   C1        1.0  0.6564418408745614  0.403323682706197  0.6013405640277589  1.0000
  C   C2        1.0  0.5932188607344309  0.36015104305685774  0.6841299554806006  1.0000
  C   C3        1.0  0.6049482233564044  0.29663720096857316  0.8068399797225669  1.0000
  C   C4        1.0  0.5436325024365812  0.2551436509620175  0.887345618874062  1.0000
  C   C5        1.0  0.4704330795334575  0.2768508640907117  0.8457819863660507  1.0000
  C   C6        1.0  0.45772693073137016  0.34051912264566786  0.7226117930939222  1.0000
  C   C7        1.0  0.37995925835913347  0.36355563281331493  0.6782676957206206  1.0000
  C   C8        1.0  0.3611889022236267  0.34664641604771185  0.5486927425997312  1.0000
  C   C9        1.0  0.2879595474153961  0.36831488917677757  0.5070850390469828  1.0000
  C   C10       1.0  0.2325574797479716  0.4072108651323756  0.5942320663061591  1.0000
  C   C11       1.0  0.15719138742281272  0.4295374003763981  0.5512631597922546  1.0000
  N   N2        1.0  0.0966024226999174  0.4474862760153706  0.5167192862221821  1.0000
  C   C12       1.0  0.25063627470517  0.42433050243605797  0.7232759190863496  1.0000
  C   C13       1.0  0.32381285437691537  0.4026271734057121  0.7651390384758578  1.0000
  C   C14       1.0  0.5198999631044852  0.3820081125229151  0.6421225688084577  1.0000
  H   H1        1.0  0.6614146445828957  0.2792326289694067  0.8402032283723073  1.0000
  H   H2        1.0  0.5528323908058521  0.20571949930985145  0.9820752531183599  1.0000
  H   H3        1.0  0.4237952834278655  0.24231369660962865  0.9092166422663084  1.0000
  H   H4        1.0  0.4028784752911366  0.3149853914075398  0.47997816237625024  1.0000
  H   H5        1.0  0.2745284315179736  0.3544056358550858  0.4070546583576955  1.0000
  H   H6        1.0  0.2082301851167381  0.45476837488142285  0.7914757045906169  1.0000
  H   H7        1.0  0.3367152654113953  0.4180817547395739  0.8649867372313653  1.0000
  H   H8        1.0  0.5113982812401298  0.4327946589263836  0.5476272958041997  1.0000
  C   C15       1.0  0.9020056627521919  0.06139514398749357  0.5257459612578574  1.0000
  C   C16       1.0  0.9065092486137935  0.049981816239734966  0.662044093550644  1.0000
  C   C17       1.0  0.9087189204379716  0.927058216117462  0.7311161561784381  1.0000
  C   C18       1.0  0.9063655954623385  0.8146905554307912  0.6620659479097923  1.0000
  C   C19       1.0  0.9018640161004364  0.8241119841834312  0.5257669731807757  1.0000
  C   C20       1.0  0.8997088258242861  0.9479039471594818  0.45836996303290434  1.0000
  C   C21       1.0  0.9134749270021189  0.9160479082207239  0.8753045856129495  1.0000
  C   C22       1.0  0.8704728510887462  0.8215643164131852  0.9513386584351582  1.0000
  C   C23       1.0  0.8749713728107719  0.8114373310604854  0.08703246682556065  1.0000
  C   C24       1.0  0.9222845169736462  0.8955113336571994  0.14850748136733116  1.0000
  C   C25       1.0  0.9654657644242272  0.9894258829683682  0.07383809213291126  1.0000
  C   C26       1.0  0.9610774035493145  0.9999054294784806  0.9381287583466822  1.0000
  S   S1        1.0  0.9281395841353819  0.8820584924790558  0.32261746286184667  1.0000
  C   C27       1.0  0.8526459475403947  0.9962924589678864  0.3456477296017648  1.0000
  H   H9        1.0  0.9003191479681747  0.39319833970940476  0.4738088145265218  1.0000
  H   H10       1.0  0.9072729415801265  0.1368465976242368  0.7149643483246162  1.0000
  H   H11       1.0  0.9090881468020596  0.7197580460166303  0.7146991948691517  1.0000
  H   H12       1.0  0.8962350144718194  0.955940368414445  0.35322172551360564  1.0000
  H   H13       1.0  0.9001112028110614  0.5002472969562285  0.47383756789965426  1.0000
  H   H14       1.0  0.8326583179690534  0.7566683891378111  0.9059812887116563  1.0000
  H   H15       1.0  0.8413787338390856  0.7385751699904652  0.14430971112720237  1.0000
  H   H16       1.0  0.0024806071314329436  0.0543587194573707  0.12082141865073404  1.0000
  H   H17       1.0  0.9956181119500005  0.07242206929110107  0.8822205004941053  1.0000
  H   H18       1.0  0.8676890923577044  0.09297350814166294  0.29607458650695906  1.0000
  H   H19       1.0  0.8439324102593346  0.006790379998183882  0.45132601282951057  1.0000
  H   H20       1.0  0.7997854775781039  0.9594641208482241  0.30598020689841554  1.0000
  C   C28       1.0  0.9019650440712365  0.4426429984236111  0.1444029337153836  1.0000
  C   C29       1.0  0.8305447914769992  0.382897524612396  0.15120979769106513  1.0000
  C   C30       1.0  0.7943258393237111  0.3527375604162475  0.03751335520244092  1.0000
  C   C31       1.0  0.830483244594128  0.3831214665601479  0.9159087609278309  1.0000
  C   C32       1.0  0.9019046178600006  0.44286414413399267  0.9071100066081335  1.0000
  C   C33       1.0  0.9372455445148247  0.47229114680158313  0.021898642984674144  1.0000
  C   C34       1.0  0.7187681684361635  0.2895468594336552  0.045777303918589585  1.0000
  C   C35       1.0  0.6631215067911356  0.3298559774151213  0.9574033439417842  1.0000
  C   C36       1.0  0.5920231004284093  0.2703511912526677  0.9654171158915537  1.0000
  C   C37       1.0  0.5755342916737705  0.1701419505114219  0.061742956483456624  1.0000
  C   C38       1.0  0.6305124905508706  0.1290176734424564  0.14974226423191617  1.0000
  C   C39       1.0  0.7016574068680146  0.18835016106161562  0.14208873909359054  1.0000
  S   S2        1.0  0.48433610247708925  0.0936566779818977  0.07157407674722949  1.0000
  C   C40       1.0  0.44578888031870867  0.20693460774614247  0.18209359336895603  1.0000
  H   H21       1.0  0.9291903939521173  0.4653615038003729  0.4692657067936685  1.0000
  H   H22       1.0  0.8024725434008956  0.36129365541151137  0.24506116083060347  1.0000
  H   H23       1.0  0.8032449089215051  0.3584587965721844  0.8280998206601429  1.0000
  H   H24       1.0  0.992343404043604  0.5183814573302044  0.015879056984605677  1.0000
  H   H25       1.0  0.929102778109104  0.46568683647936515  0.5763002091781586  1.0000
  H   H26       1.0  0.6742781777161366  0.40849394567831765  0.8832089566226307  1.0000
  H   H27       1.0  0.5496876140240984  0.30265596569906705  0.8970505973154705  1.0000
  H   H28       1.0  0.6182074589749641  0.051047783686954507  0.22411480747272394  1.0000
  H   H29       1.0  0.743589074864777  0.15398461194790358  0.21037313892984377  1.0000
  H   H30       1.0  0.4775577397054723  0.20167610481830978  0.27363367325314636  1.0000
  H   H31       1.0  0.3861751637250319  0.18035832864984758  0.20563124421549106  1.0000
  H   H32       1.0  0.44867411670969304  0.3077256631280283  0.1353703439845273  1.0000
  Zn  Zn1       1.0  0.8196158497800433  0.4407558854776894  0.5295775289278102  1.0000
  Zn  Zn2       1.0  0.9842466112972644  0.444750450145907  0.5219351210675156  1.0000
  C   C41       1.0  0.901915317254268  0.4376486920278493  0.7629419515681415  1.0000
  C   C42       1.0  0.9019489412713748  0.4478593258491772  0.2885707424787307  1.0000
  C   C43       1.0  0.9018873133871592  0.6799406771203143  0.5205882009391058  1.0000
  C   C44       1.0  0.9019768892458409  0.2055657791336427  0.5309245649084811  1.0000
  O   O1        1.0  0.9644200540923729  0.451120223798968  0.33405452197874275  1.0000
  O   O2        1.0  0.9643951433399193  0.4374185964165396  0.7116573874775372  1.0000
  O   O3        1.0  0.9643716875427574  0.6330724185353056  0.5159550582861361  1.0000
  O   O4        1.0  0.9644434537181975  0.25546640957898425  0.5297567564074974  1.0000
  O   O5        1.0  0.8394189511787113  0.6300399246828756  0.5217558961889759  1.0000
  O   O6        1.0  0.8394424066881171  0.43438766282544106  0.7174581561808107  1.0000
  O   O7        1.0  0.8394673176226569  0.4480892445010769  0.3398537293407824  1.0000
  O   O8        1.0  0.8394907172394201  0.25243542102057415  0.5355560611333319  1.0000
