data_image0
_chemical_formula_structural       NC10NC3NH7C12OCH12C13NH13Zn2C4O8
_chemical_formula_sum              "N4 C43 H32 O9 Zn2"
_cell_length_a       19.210446455230148
_cell_length_b       10.29979075500242
_cell_length_c       10.299780419254978
_cell_angle_alpha    85.56841767701755
_cell_angle_beta     89.97732542180437
_cell_angle_gamma    89.92936594805748

_space_group_name_H-M_alt    "P 1"
_space_group_IT_number       1

loop_
  _space_group_symop_operation_xyz
  'x, y, z'

loop_
  _atom_site_type_symbol
  _atom_site_label
  _atom_site_symmetry_multiplicity
  _atom_site_fract_x
  _atom_site_fract_y
  _atom_site_fract_z
  _atom_site_occupancy
  N   N1        1.0  0.6554100696234532  0.4198748565979593  0.5673238227865072  1.0000
  C   C1        1.0  0.595180950282  0.4220823759572161  0.5675548728876156  1.0000
  C   C2        1.0  0.520375804043493  0.4248192956798751  0.5678411150499498  1.0000
  C   C3        1.0  0.4847345359128403  0.5410505874790406  0.5829476055929759  1.0000
  C   C4        1.0  0.4120690240752675  0.5412021113891343  0.5828950044572914  1.0000
  C   C5        1.0  0.3752088645137103  0.42552826618175676  0.5679275661599115  1.0000
  C   C6        1.0  0.2978870892290015  0.42417178631304986  0.5677770348351905  1.0000
  C   C7        1.0  0.2601136298406236  0.5277278756071484  0.5044138819920871  1.0000
  C   C8        1.0  0.1873356355473944  0.5263256496614801  0.5043048684343785  1.0000
  C   C9        1.0  0.1513296306648092  0.4216248292491349  0.5675080028500425  1.0000
  C   C10       1.0  0.0764004496408227  0.4203227451040088  0.5673712320436024  1.0000
  N   N2        1.0  0.0161628699109871  0.41927582525028173  0.5672613031913607  1.0000
  C   C11       1.0  0.1883794037950753  0.3181944251536233  0.6308461433034214  1.0000
  C   C12       1.0  0.2611593102424651  0.31932239818711716  0.6310054114705523  1.0000
  C   C13       1.0  0.4134595106708243  0.3111172526323587  0.553109154958239  1.0000
  N   N3        1.0  0.4842288303531617  0.313562213620298  0.5532746128722645  1.0000
  H   H1        1.0  0.5128119188274128  0.6304848647817973  0.5949919340511527  1.0000
  H   H2        1.0  0.3847763015835797  0.6312185161366399  0.5963339720007428  1.0000
  H   H3        1.0  0.2868256427402417  0.6089696914856138  0.45342223980974516  1.0000
  H   H4        1.0  0.1591740294901522  0.6067400369505329  0.45464359450832004  1.0000
  H   H5        1.0  0.161027929325699  0.23681663982789036  0.6804079754211771  1.0000
  H   H6        1.0  0.2886758694297815  0.2390274761069815  0.6821043439438894  1.0000
  H   H7        1.0  0.3872182599825406  0.2202379344215002  0.5396239768895328  1.0000
  C   C14       1.0  0.8358523455445558  0.03820749979542337  0.5673315023387961  1.0000
  C   C15       1.0  0.8156861867994474  0.027101977093640928  0.6987681568801356  1.0000
  C   C16       1.0  0.8054126056354695  0.9043385238776888  0.765334968851936  1.0000
  C   C17       1.0  0.8155611366316503  0.7918198779562404  0.6987023959204444  1.0000
  C   C18       1.0  0.8357272645923122  0.8009331857485517  0.5672648089045111  1.0000
  C   C19       1.0  0.8457615703564114  0.9245684794121459  0.5023159946786941  1.0000
  C   C20       1.0  0.784082192729828  0.8936436066445829  0.9043888247877594  1.0000
  C   C21       1.0  0.7332862493298236  0.8028710064853499  0.9494615005362466  1.0000
  C   C22       1.0  0.7132733324356558  0.7930787755464774  0.08019913254556554  1.0000
  C   C23       1.0  0.7436058328669102  0.8733916925065693  0.1675387835467972  1.0000
  C   C24       1.0  0.7945868584465827  0.9647734557168621  0.12433771155135875  1.0000
  C   C25       1.0  0.8143840445552168  0.9742047488004161  0.993073436910471  1.0000
  O   O1        1.0  0.8267524105352587  0.04743723445022563  0.20819743342296526  1.0000
  C   C26       1.0  0.8118119765194269  0.04846691003737025  0.34353106900675856  1.0000
  H   H8        1.0  0.8435669767422859  0.36989061171247917  0.5172697808355038  1.0000
  H   H9        1.0  0.8069992456314915  0.11415288518943845  0.7491965395471394  1.0000
  H   H10       1.0  0.8086153951456431  0.6969416191291555  0.750069554904712  1.0000
  H   H11       1.0  0.8613194455334324  0.9323675236078283  0.40091816878203446  1.0000
  H   H12       1.0  0.8433768456018711  0.4769543624042094  0.5171654649837367  1.0000
  H   H13       1.0  0.7083968986507292  0.7406700175767936  0.8832587598752737  1.0000
  H   H14       1.0  0.6739555517538048  0.7231807788423569  0.11388348626772893  1.0000
  H   H15       1.0  0.7270969789843847  0.863689821622057  0.2682044715542006  1.0000
  H   H16       1.0  0.8542632857072511  0.04367590692744061  0.960901786954079  1.0000
  H   H17       1.0  0.8238301725621865  0.951928070959843  0.3941496745391282  1.0000
  H   H18       1.0  0.8446547674345812  0.12305986528233226  0.3857381137205569  1.0000
  H   H19       1.0  0.7562411936583221  0.07347273936132237  0.3579756460170933  1.0000
  C   C27       1.0  0.8358372080307672  0.41948540476918006  0.18594402401102705  1.0000
  C   C28       1.0  0.886219166123414  0.5184305946370782  0.1772650677211518  1.0000
  C   C29       1.0  0.9116944149462465  0.5686622798165579  0.055723452701395004  1.0000
  C   C30       1.0  0.8861235342153444  0.5186029855362599  0.9419648933735232  1.0000
  C   C31       1.0  0.8357424034899871  0.4196552749569491  0.9486522963878135  1.0000
  C   C32       1.0  0.8108794456032896  0.3706539929010395  0.07109611985597963  1.0000
  C   C33       1.0  0.9649965480633017  0.6733352155570667  0.04763343851058366  1.0000
  C   C34       1.0  0.9602738004627199  0.7779203879505567  0.951798819085584  1.0000
  C   C35       1.0  0.01046556236678664  0.8763533533200498  0.9442699920121158  1.0000
  C   C36       1.0  0.06595410141166114  0.8725581359301677  0.032935171587633594  1.0000
  C   C37       1.0  0.0713441957681682  0.7676930189489328  0.12771292721587324  1.0000
  C   C38       1.0  0.02116683066611036  0.6692353307725454  0.13541452462401615  1.0000
  C   C39       1.0  0.12090527571853338  0.9766843310452069  0.022461100520797972  1.0000
  N   N4        1.0  0.17427291762717112  0.9439438961551867  0.9295768265467004  1.0000
  H   H20       1.0  0.8166676203209811  0.3817357449088017  0.5167079306379814  1.0000
  H   H21       1.0  0.9050817443321743  0.5579050086146202  0.26512822583567663  1.0000
  H   H22       1.0  0.9062967284769731  0.5557243615067708  0.8481506520123872  1.0000
  H   H23       1.0  0.772012291140464  0.2943212374800179  0.0770229754210956  1.0000
  H   H24       1.0  0.8165316712875755  0.3819746780227409  0.623745194272459  1.0000
  H   H25       1.0  0.9173425159573058  0.7843380647925624  0.8835040001338914  1.0000
  H   H26       1.0  0.005969198205096449  0.9557606564081322  0.8694245701113781  1.0000
  H   H27       1.0  0.11453385337435384  0.7619271702290407  0.19548111999547713  1.0000
  H   H28       1.0  0.026876577337379803  0.5888088583483588  0.20879393758667253  1.0000
  H   H29       1.0  0.09683745899492369  0.07175048131973583  0.9891764314528095  1.0000
  H   H30       1.0  0.14490881541415002  0.9879547772939195  0.11931263617593157  1.0000
  H   H31       1.0  0.20938688946730455  0.021576801609551666  0.9196244372854596  1.0000
  H   H32       1.0  0.20221261596879048  0.8635944052039208  0.9703514734285754  1.0000
  Zn  Zn1       1.0  0.7595155338933124  0.41969852671748553  0.5673132800615182  1.0000
  Zn  Zn2       1.0  0.9120573901145893  0.41944157498199863  0.5672824822066438  1.0000
  C   C40       1.0  0.8357595998226629  0.414449533139311  0.804484584006308  1.0000
  C   C41       1.0  0.8358149896529529  0.4246922043976675  0.3301113052438789  1.0000
  C   C42       1.0  0.8357479507013336  0.6567606727008606  0.562102482602556  1.0000
  C   C43       1.0  0.8358265869697206  0.18237950464100128  0.5724934760304281  1.0000
  O   O2        1.0  0.8936963733490926  0.42633647634760075  0.37848347467964927  1.0000
  O   O3        1.0  0.8936539556273531  0.4126092609645595  0.756088665965343  1.0000
  O   O4        1.0  0.8936437682774256  0.6082785722184345  0.560363404227797  1.0000
  O   O5        1.0  0.8937065086574  0.23066717444991136  0.5742086390559935  1.0000
  O   O6        1.0  0.7778663632954533  0.6084729273386704  0.5603871232158473  1.0000
  O   O7        1.0  0.7778765503948941  0.4128051763690097  0.7561123155742748  1.0000
  O   O8        1.0  0.7779189683644738  0.4265323461483197  0.37850556295226956  1.0000
  O   O9        1.0  0.7779291036593531  0.23086303498354188  0.5742308246934946  1.0000
