data_image0
_chemical_formula_structural       NC10NC3NCH9C16H10C12BrH9Zn2C4O8
_chemical_formula_sum              "N3 C46 H28 Br1 Zn2 O8"
_cell_length_a       19.437513618241372
_cell_length_b       10.29914801576943
_cell_length_c       10.299148005577397
_cell_angle_alpha    85.52895802354352
_cell_angle_beta     90.32056870964719
_cell_angle_gamma    89.53623586623313

_space_group_name_H-M_alt    "P 1"
_space_group_IT_number       1

loop_
  _space_group_symop_operation_xyz
  'x, y, z'

loop_
  _atom_site_type_symbol
  _atom_site_label
  _atom_site_symmetry_multiplicity
  _atom_site_fract_x
  _atom_site_fract_y
  _atom_site_fract_z
  _atom_site_occupancy
  N   N1        1.0  0.6483763011737339  0.4107937435601219  0.5750971418790476  1.0000
  C   C1        1.0  0.589445781043678  0.42780564682924416  0.5721154046875416  1.0000
  C   C2        1.0  0.5160088218572507  0.44906045753223833  0.5684142416248474  1.0000
  C   C3        1.0  0.4742356904725064  0.3478652629451806  0.5567876000719045  1.0000
  C   C4        1.0  0.3983485147541944  0.35793222923448687  0.5495626023494555  1.0000
  C   C5        1.0  0.3587712733412552  0.43877355380863414  0.6152817431793856  1.0000
  C   C6        1.0  0.2825896544938792  0.43016635723002117  0.6068400595149464  1.0000
  C   C7        1.0  0.24943714387575022  0.3088116961095262  0.6115234799641376  1.0000
  C   C8        1.0  0.1777030902239614  0.3024409179201737  0.604357168008977  1.0000
  C   C9        1.0  0.1381507863767339  0.4169520065708059  0.5928698398564767  1.0000
  C   C10       1.0  0.0643022495158319  0.41024305755231216  0.5855355394135107  1.0000
  N   N2        1.0  0.0049331238929981  0.40484965255701133  0.5796392200913876  1.0000
  C   C11       1.0  0.1705865105951675  0.5379959195187951  0.5889318332529432  1.0000
  C   C12       1.0  0.24230498967724542  0.5446206949997772  0.5961600862721348  1.0000
  C   C13       1.0  0.3874492180401075  0.5310465240130502  0.705175724929292  1.0000
  N   N3        1.0  0.4444467812524023  0.594268035728488  0.6847498076786165  1.0000
  C   C14       1.0  0.4883085388884175  0.5850302022561475  0.5716398632159605  1.0000
  H   H1        1.0  0.49660936208189826  0.2528045936337602  0.5446970036723595  1.0000
  H   H2        1.0  0.3736365035302566  0.2884272908687737  0.49126448030722414  1.0000
  H   H3        1.0  0.2788732769013565  0.2188908914375618  0.6225743559953052  1.0000
  H   H4        1.0  0.1530961498063967  0.20820690256967267  0.6082754420416843  1.0000
  H   H5        1.0  0.1404645528262665  0.6272612747111963  0.5801934307033594  1.0000
  H   H6        1.0  0.2664304666307878  0.6392675436036372  0.5922262162665297  1.0000
  H   H7        1.0  0.35743214788490274  0.5514155916954016  0.7895397314186476  1.0000
  H   H8        1.0  0.5310694241348399  0.6553465796173661  0.5773804697176808  1.0000
  H   H9        1.0  0.4586630238455902  0.6131603873110647  0.48098072349995835  1.0000
  C   C15       1.0  0.826608977522743  0.026421035476328347  0.5775331743603433  1.0000
  C   C16       1.0  0.810932960517648  0.03630066341763105  0.4438529709247423  1.0000
  C   C17       1.0  0.8030354857654858  0.9241792644648913  0.3759103028511839  1.0000
  C   C18       1.0  0.8110249013300029  0.8010473746460556  0.4434495320464771  1.0000
  C   C19       1.0  0.826707030081394  0.7892121902941602  0.5772145703790827  1.0000
  C   C20       1.0  0.8344037399544031  0.9024169081789769  0.6434327709552548  1.0000
  C   C21       1.0  0.786452320130804  0.9356763221672073  0.23449277165346682  1.0000
  C   C22       1.0  0.8190240132824893  0.854160662820739  0.149685836010361  1.0000
  C   C23       1.0  0.8033924734602413  0.8651068745130626  0.016588799845606017  1.0000
  C   C24       1.0  0.755028841532995  0.9574719920900757  0.9664923125234623  1.0000
  C   C25       1.0  0.7223320136074182  0.03897024042452957  0.050013650404828525  1.0000
  C   C26       1.0  0.7379144949468163  0.02826610922877837  0.1831310092251326  1.0000
  C   C27       1.0  0.7389615491173359  0.9686170013962618  0.8294567875772745  1.0000
  C   C28       1.0  0.7255053648040205  0.9779508396589698  0.7146915171236348  1.0000
  C   C29       1.0  0.7097483319242412  0.9888806388043849  0.5803025559810284  1.0000
  C   C30       1.0  0.6962944061286895  0.9982130595354486  0.46555582296715947  1.0000
  H   H10       1.0  0.8326032592622844  0.35009609504351125  0.6289659507660748  1.0000
  H   H11       1.0  0.8057555763156877  0.13144987619070037  0.39187439647633315  1.0000
  H   H12       1.0  0.8040715718247747  0.7142775386313506  0.3919429398828831  1.0000
  H   H13       1.0  0.8464930417136528  0.8940806402588929  0.7465445733021354  1.0000
  H   H14       1.0  0.8558801217393206  0.5595744143439818  0.8298618863461709  1.0000
  H   H15       1.0  0.8572340328342233  0.7831137579403292  0.18602403411161017  1.0000
  H   H16       1.0  0.8291482485024283  0.801763946668675  0.9527389054546158  1.0000
  H   H17       1.0  0.6846695565111199  0.11057256871094912  0.012312467925228443  1.0000
  H   H18       1.0  0.7113568957706474  0.09123271420351808  0.246167862708641  1.0000
  H   H19       1.0  0.6844807762419676  0.0064077123771135724  0.36479851654847506  1.0000
  C   C31       1.0  0.8267517905223329  0.40786710078247546  0.19598683724739696  1.0000
  C   C32       1.0  0.7620453401193602  0.46973086254670227  0.18970002690200927  1.0000
  C   C33       1.0  0.7291409060777163  0.5010454573798906  0.06937300199422536  1.0000
  C   C34       1.0  0.7618157104913249  0.4696618794270606  0.954420097310559  1.0000
  C   C35       1.0  0.8265642122931394  0.407766147128394  0.958760844788404  1.0000
  C   C36       1.0  0.8586334223402067  0.3772479177011623  0.07996272852322006  1.0000
  C   C37       1.0  0.6606897828590724  0.5664917751260237  0.06376723707685739  1.0000
  C   C38       1.0  0.6462511498389183  0.6680589553680474  0.14361882404626192  1.0000
  C   C39       1.0  0.581793857181655  0.7295476744463334  0.1381475050570169  1.0000
  C   C40       1.0  0.5310425832094705  0.6904466045849862  0.05315309835417681  1.0000
  C   C41       1.0  0.5447903061991378  0.5896778756849586  0.9734399146333996  1.0000
  C   C42       1.0  0.609189077953574  0.5279681476883384  0.9785180427664564  1.0000
  Br  Br1       1.0  0.4430344367935827  0.7745915512780104  0.04594706597115428  1.0000
  H   H20       1.0  0.851654735503018  0.38412408743893933  0.5258766606249519  1.0000
  H   H21       1.0  0.7366606649785535  0.4921021745379881  0.2787069621170515  1.0000
  H   H22       1.0  0.7371106648224927  0.495170852958174  0.8612783839270266  1.0000
  H   H23       1.0  0.9085441189375384  0.32953477640261397  0.08409587146222908  1.0000
  H   H24       1.0  0.9489658135301258  0.29167329578577394  0.7596070211163175  1.0000
  H   H25       1.0  0.6850756693590063  0.7010317132335755  0.20900688369012466  1.0000
  H   H26       1.0  0.5714143446802608  0.8077937552313263  0.1997870436286706  1.0000
  H   H27       1.0  0.5055590715200484  0.5588640693632534  0.9077387703311324  1.0000
  H   H28       1.0  0.6184172642020938  0.44905191010594914  0.9170652207722818  1.0000
  Zn  Zn1       1.0  0.7512709013727371  0.40907491679653174  0.5764153983053211  1.0000
  Zn  Zn2       1.0  0.9020385259081886  0.4065578074735532  0.5783316385014188  1.0000
  C   C43       1.0  0.8265974772115088  0.4026111397597745  0.8145823946927637  1.0000
  C   C44       1.0  0.8267135966265113  0.41302319576230295  0.3401647898272251  1.0000
  C   C45       1.0  0.8266862331429132  0.6450291797297032  0.572099308756512  1.0000
  C   C46       1.0  0.8266247890310287  0.1706035962100083  0.5826479450033355  1.0000
  O   O1        1.0  0.8839163054568803  0.4137927322572137  0.3892794333296019  1.0000
  O   O2        1.0  0.883823906844159  0.3999301957763153  0.7669217597059419  1.0000
  O   O3        1.0  0.8838948067564836  0.5956858415447899  0.5711149418370534  1.0000
  O   O4        1.0  0.8838453541229182  0.21803709665154147  0.585086153161436  1.0000
  O   O5        1.0  0.7694640217084187  0.5975956284789246  0.5696608829845533  1.0000
  O   O6        1.0  0.7693931220105834  0.4018415431531972  0.7654676309528332  1.0000
  O   O7        1.0  0.7694855210472115  0.4157040345802896  0.38782374312116175  1.0000
  O   O8        1.0  0.7694145696852979  0.21994838967219654  0.5836305603292997  1.0000
