data_image0
_chemical_formula_structural       NC8NC6H8C12OCH12C12OCH12Zn2C4O8
_chemical_formula_sum              "N2 C44 H32 O10 Zn2"
_cell_length_a       17.457602349358154
_cell_length_b       10.29979075500242
_cell_length_c       10.299794127170987
_cell_angle_alpha    85.57270427699777
_cell_angle_beta     92.8688978689242
_cell_angle_gamma    91.67079993281202

_space_group_name_H-M_alt    "P 1"
_space_group_IT_number       1

loop_
  _space_group_symop_operation_xyz
  'x, y, z'

loop_
  _atom_site_type_symbol
  _atom_site_label
  _atom_site_symmetry_multiplicity
  _atom_site_fract_x
  _atom_site_fract_y
  _atom_site_fract_z
  _atom_site_occupancy
  N   N1        1.0  0.7222555623937008  0.45240610924719626  0.6264266141415524  1.0000
  C   C1        1.0  0.6611866528780949  0.40647856757848677  0.6158161171992329  1.0000
  C   C2        1.0  0.5852143447267225  0.34935042281626005  0.6026261998983051  1.0000
  C   C3        1.0  0.5266733708528013  0.3895334990672292  0.6775160015005317  1.0000
  C   C4        1.0  0.4521387207793504  0.3345237607686917  0.6649402748642328  1.0000
  C   C5        1.0  0.3900061448716654  0.376951240881487  0.7442514281431052  1.0000
  C   C6        1.0  0.3154599276323621  0.39540302235700464  0.6884888408211396  1.0000
  C   C7        1.0  0.2569189768393575  0.43540220782597383  0.7634866094592663  1.0000
  C   C8        1.0  0.1809346451386796  0.4544591842086094  0.7055086108863211  1.0000
  N   N2        1.0  0.1198561601017704  0.46977461367559203  0.6588944517257076  1.0000
  C   C9        1.0  0.2724320021051557  0.4571928978779505  0.8947554325553451  1.0000
  C   C10       1.0  0.34619341869767384  0.43913020983092754  0.9509055587203523  1.0000
  C   C11       1.0  0.4047227009475834  0.3993112094748734  0.87636546993505  1.0000
  C   C12       1.0  0.4374339101560234  0.23865311925372956  0.5760419683412288  1.0000
  C   C13       1.0  0.49596308834729674  0.19874883523849718  0.5015521214293761  1.0000
  C   C14       1.0  0.5697129151134076  0.2538711080530789  0.5146777586747748  1.0000
  H   H1        1.0  0.5389992934439684  0.46474604293305455  0.7441356728606137  1.0000
  H   H2        1.0  0.3031245587730129  0.38040316706304367  0.586471030520928  1.0000
  H   H3        1.0  0.227561452979573  0.48809234882379204  0.95358514887918  1.0000
  H   H4        1.0  0.3580148202605181  0.45568759002425896  0.052549968143605685  1.0000
  H   H5        1.0  0.4612078958029791  0.3843331350559809  0.922471131271664  1.0000
  H   H6        1.0  0.38095817451063985  0.19331522518074062  0.5653952960799578  1.0000
  H   H7        1.0  0.48415085505196914  0.12465238363254216  0.43373407514335627  1.0000
  H   H8        1.0  0.6145836306843259  0.22210212334164225  0.45635923041641524  1.0000
  C   C15       1.0  0.9211284700274112  0.07972577210790965  0.6427054115740327  1.0000
  C   C16       1.0  0.898911595909971  0.06762611840975175  0.7723234151877956  1.0000
  C   C17       1.0  0.887593257582117  0.9443561778565661  0.8379637222034366  1.0000
  C   C18       1.0  0.8987737683944907  0.832337785954615  0.7722463781110325  1.0000
  C   C19       1.0  0.9209906085186652  0.8424452231373144  0.6426274392481317  1.0000
  C   C20       1.0  0.9320453433513127  0.9665752131426645  0.5785835512434334  1.0000
  C   C21       1.0  0.8640937372212808  0.9326097376568224  0.9750939308754172  1.0000
  C   C22       1.0  0.8081125391757833  0.8393107363726511  0.015586089249538304  1.0000
  C   C23       1.0  0.7860645109343088  0.8285319521873459  0.14451888973896687  1.0000
  C   C24       1.0  0.8195012530423483  0.9103624090070093  0.23459359855448947  1.0000
  C   C25       1.0  0.8756865671891298  0.004279937477720042  0.19598973064113479  1.0000
  C   C26       1.0  0.8974967931940313  0.01468699813754859  0.06651083510235234  1.0000
  O   O1        1.0  0.9111433509323926  0.08855228063191634  0.2827498082934814  1.0000
  C   C27       1.0  0.8946862338712511  0.08884839913788567  0.41673600917772313  1.0000
  H   H9        1.0  0.9296276244144067  0.4117892092984885  0.5933394207110487  1.0000
  H   H10       1.0  0.8893408437702935  0.15424830344797535  0.8219683900374615  1.0000
  H   H11       1.0  0.8911221294409976  0.7371175986470657  0.8229871380006968  1.0000
  H   H12       1.0  0.9491853135151087  0.9751412140820809  0.4785887860076481  1.0000
  H   H13       1.0  0.9294180657981398  0.5188434822735589  0.5932179602186625  1.0000
  H   H14       1.0  0.7806763788614594  0.7758649555529628  0.9471390871318546  1.0000
  H   H15       1.0  0.7427330843491478  0.756678341549879  0.17465776967307445  1.0000
  H   H16       1.0  0.8013131192480789  0.8998461602802029  0.3337704738873182  1.0000
  H   H17       1.0  0.941447133178963  0.0861418520434456  0.03793528554091874  1.0000
  H   H18       1.0  0.90793548430863  0.992912081703539  0.4684382620234129  1.0000
  H   H19       1.0  0.9308865515733666  0.1650803992598422  0.46190454115456026  1.0000
  H   H20       1.0  0.8334403704636599  0.11108762441318487  0.42616955059075423  1.0000
  C   C28       1.0  0.921085425087994  0.4609731670684747  0.26131714017994034  1.0000
  C   C29       1.0  0.8459167142486873  0.40856714093369795  0.25798984709554507  1.0000
  C   C30       1.0  0.8078070181583515  0.3821142591218676  0.13915528025012036  1.0000
  C   C31       1.0  0.845864515468691  0.4087913263112508  0.022680673140548002  1.0000
  C   C32       1.0  0.9210336557834079  0.4611978786323023  0.024015739416368254  1.0000
  C   C33       1.0  0.9582239743338824  0.48699249805092193  0.14381937722106475  1.0000
  C   C34       1.0  0.7282849779296993  0.32666465308603754  0.13669006962049912  1.0000
  C   C35       1.0  0.6733538499752457  0.37293191604991915  0.041051851975532516  1.0000
  C   C36       1.0  0.5986154982800223  0.32073733291316886  0.03900430343582095  1.0000
  C   C37       1.0  0.5777218193906146  0.22189123863951954  0.1319933994779785  1.0000
  C   C38       1.0  0.6318963254351782  0.17418633458613098  0.22843253692211185  1.0000
  C   C39       1.0  0.7067388494561468  0.227025010986722  0.23003716048327205  1.0000
  O   O2        1.0  0.6138559476717436  0.07482591708140562  0.3237896438558514  1.0000
  C   C40       1.0  0.5403277025682963  0.012340722548799254  0.3338277593101582  1.0000
  H   H21       1.0  0.9497381427117455  0.48088424615096037  0.5900433791519808  1.0000
  H   H22       1.0  0.8164456520865022  0.38985100996298505  0.3478618051074638  1.0000
  H   H23       1.0  0.8171091166445114  0.386940860356467  0.9310027966853522  1.0000
  H   H24       1.0  0.016213798141194058  0.5274207181136397  0.14561787907574164  1.0000
  H   H25       1.0  0.9496608637524178  0.4812276375952744  0.6970658153931635  1.0000
  H   H26       1.0  0.6879303348439978  0.4506343604154728  0.9689167167558268  1.0000
  H   H27       1.0  0.556662530430775  0.35729988108168786  0.9652372166729535  1.0000
  H   H28       1.0  0.5194442003680586  0.18331146984573232  0.12806608788482476  1.0000
  H   H29       1.0  0.7483539494893036  0.1886976932898068  0.30360304388015  1.0000
  H   H30       1.0  0.5245236802578715  0.9631948658888333  0.24368091622319943  1.0000
  H   H31       1.0  0.5423125447928027  0.9379519950311134  0.41766824137218994  1.0000
  H   H32       1.0  0.4966183515790443  0.084689302665786  0.35052904944793717  1.0000
  Zn  Zn1       1.0  0.8369945063993043  0.4574148039895283  0.6358036291632818  1.0000
  Zn  Zn2       1.0  0.005117203049121555  0.46475527436233  0.6495280697726755  1.0000
  C   C41       1.0  0.9210426429945455  0.4559816890308934  0.8798497743921154  1.0000
  C   C42       1.0  0.9210709020436165  0.4661901081178301  0.4054822017067874  1.0000
  C   C43       1.0  0.9210130507196488  0.6982733376039552  0.6374669860272884  1.0000
  C   C44       1.0  0.9211004372273557  0.22389689677491242  0.6478650547829079  1.0000
  O   O3        1.0  0.9848677162013074  0.4707209657633695  0.45907366758390467  1.0000
  O   O4        1.0  0.984847065702168  0.4570210987295038  0.8366744676488722  1.0000
  O   O5        1.0  0.984822309396982  0.6526746319939956  0.6409485807957525  1.0000
  O   O6        1.0  0.9848924151425382  0.27506743925550814  0.6547994523831917  1.0000
  O   O7        1.0  0.8572192369338626  0.6471026365928196  0.6305322418624564  1.0000
  O   O8        1.0  0.8572439929581811  0.4514506635946536  0.8262580593139748  1.0000
  O   O9        1.0  0.8572646436225572  0.46515048491531563  0.44865569793738524  1.0000
  O   O10       1.0  0.857289342555718  0.2694969491472934  0.6443815801001966  1.0000
