data_image0
_chemical_formula_structural       NC10NC3NH7C12OCH12C13OH12Zn2C4O8
_chemical_formula_sum              "N3 C43 H31 O10 Zn2"
_cell_length_a       19.210446455230148
_cell_length_b       10.29979075500242
_cell_length_c       10.299153481560891
_cell_angle_alpha    85.5777986716743
_cell_angle_beta     90.00736926035154
_cell_angle_gamma    89.92936594805748

_space_group_name_H-M_alt    "P 1"
_space_group_IT_number       1

loop_
  _space_group_symop_operation_xyz
  'x, y, z'

loop_
  _atom_site_type_symbol
  _atom_site_label
  _atom_site_symmetry_multiplicity
  _atom_site_fract_x
  _atom_site_fract_y
  _atom_site_fract_z
  _atom_site_occupancy
  N   N1        1.0  0.6550074425953841  0.4196405089663262  0.5672548018763972  1.0000
  C   C1        1.0  0.59477838818627  0.42184806611922054  0.5674858631086244  1.0000
  C   C2        1.0  0.519973322390806  0.42458503266346703  0.5677721190610214  1.0000
  C   C3        1.0  0.4843362996587218  0.5408187954817902  0.5828793373775265  1.0000
  C   C4        1.0  0.4116707730385769  0.5409703107877406  0.5828267337077184  1.0000
  C   C5        1.0  0.3748064071565019  0.42529401730644545  0.56785857433587  1.0000
  C   C6        1.0  0.2974845895677605  0.4239375128148266  0.5677080357591198  1.0000
  C   C7        1.0  0.2596933231422278  0.5274832375861964  0.5043418303193821  1.0000
  C   C8        1.0  0.1869152982127631  0.526080993808816  0.5042328115098136  1.0000
  C   C9        1.0  0.1509270553971259  0.4213905117444505  0.5674389908130304  1.0000
  C   C10       1.0  0.0759978359362447  0.4200884052272664  0.5673022134174912  1.0000
  N   N2        1.0  0.0157602253129471  0.41904146739210946  0.5671922792692934  1.0000
  C   C11       1.0  0.1879946285352792  0.3179704680803075  0.6307801826580408  1.0000
  C   C12       1.0  0.2607745797420291  0.3190984671658279  0.6309394584981087  1.0000
  C   C13       1.0  0.4130528888743953  0.3108805798599905  0.5530394492392894  1.0000
  N   N3        1.0  0.4838222550556062  0.3133255679124338  0.5532049151244505  1.0000
  H   H1        1.0  0.5124170674080877  0.6302550429156164  0.5949242460858148  1.0000
  H   H2        1.0  0.3843818273190924  0.6309889137920925  0.5962663486897091  1.0000
  H   H3        1.0  0.2863910057879652  0.6087167125912896  0.4533477315529162  1.0000
  H   H4        1.0  0.1587397357769275  0.6064872578372795  0.4545691450917331  1.0000
  H   H5        1.0  0.1606570824982232  0.23660078974913556  0.6803444024770895  1.0000
  H   H6        1.0  0.2883054993351695  0.2388119035088967  0.6820408527244093  1.0000
  H   H7        1.0  0.3868078484272986  0.21999905583347545  0.5395536215057966  1.0000
  C   C14       1.0  0.835449720674682  0.037973153419960104  0.5672624817986578  1.0000
  C   C15       1.0  0.8153204997599357  0.02688913025114381  0.6987054684600276  1.0000
  C   C16       1.0  0.8050656259620035  0.9041365655911536  0.7652754873686209  1.0000
  C   C17       1.0  0.8151954311112422  0.7916070203570037  0.6986397043322223  1.0000
  C   C18       1.0  0.8353246209794877  0.8006988284638208  0.5671957851513361  1.0000
  C   C19       1.0  0.8453406740857536  0.9243234982327532  0.5022438419377271  1.0000
  C   C20       1.0  0.7837742915596885  0.8934643938621095  0.9043360423923774  1.0000
  C   C21       1.0  0.7329910149979916  0.8026991663911233  0.9494108895716116  1.0000
  C   C22       1.0  0.7130148394868872  0.7929283206437644  0.0801548200247032  1.0000
  C   C23       1.0  0.7433718851047473  0.8732555240425403  0.1674986787194087  1.0000
  C   C24       1.0  0.7943407698255825  0.9646302207090689  0.12429552546000111  1.0000
  C   C25       1.0  0.814101066548024  0.9740400424564138  0.9930249270036939  1.0000
  O   O1        1.0  0.826529889131421  0.047307716657475574  0.20815928737528078  1.0000
  C   C26       1.0  0.8116274881200877  0.048359529219802466  0.34349944282088574  1.0000
  H   H8        1.0  0.8431502829554655  0.36964807657387766  0.517198348511297  1.0000
  H   H9        1.0  0.8066477305522359  0.11394828708607263  0.7491362805754458  1.0000
  H   H10       1.0  0.8082641254111378  0.6967371638278299  0.7500093379915906  1.0000
  H   H11       1.0  0.8608700532872413  0.9321059564470883  0.4008411310779907  1.0000
  H   H12       1.0  0.8429601224990181  0.476711810202315  0.5170940276339873  1.0000
  H   H13       1.0  0.7080830592683308  0.7404873484789664  0.8832049595134217  1.0000
  H   H14       1.0  0.6737065251669727  0.7230358338019863  0.11384079653140633  1.0000
  H   H15       1.0  0.7268913214440007  0.863570119381133  0.2681692164182593  1.0000
  H   H16       1.0  0.8539712664554168  0.04350593815910764  0.9608517271390984  1.0000
  H   H17       1.0  0.8236599095817064  0.9518289699967966  0.39412048696588675  1.0000
  H   H18       1.0  0.8444821405411753  0.12295938841216336  0.3857085209101849  1.0000
  H   H19       1.0  0.7560607646390479  0.07336772129150337  0.35794471571621367  1.0000
  C   C27       1.0  0.8353274012942694  0.4191886735689381  0.18585662966717997  1.0000
  C   C28       1.0  0.7633634880774544  0.3949280670716815  0.18654271475790796  1.0000
  C   C29       1.0  0.7270025040768637  0.38278998579309076  0.0697229806203421  1.0000
  C   C30       1.0  0.7635276678351389  0.3952450918342896  0.9512346909629041  1.0000
  C   C31       1.0  0.835446934190416  0.4194833383705392  0.9486016681954861  1.0000
  C   C32       1.0  0.8709268610224724  0.4313099944532559  0.06644619355819992  1.0000
  C   C33       1.0  0.6509188981556856  0.35715363301750847  0.0714214133675386  1.0000
  C   C34       1.0  0.6068833363064298  0.4224631904630487  0.9787557144523036  1.0000
  C   C35       1.0  0.5352841645543881  0.3983818118428075  0.9804319909404695  1.0000
  C   C36       1.0  0.5065155831778623  0.3077177931310544  0.07390491324914428  1.0000
  C   C37       1.0  0.5500839884315356  0.24350528573929675  0.1674891275894923  1.0000
  C   C38       1.0  0.6216864672757934  0.2675570116277617  0.1659910027798197  1.0000
  C   C39       1.0  0.4293795541153149  0.28455930995353507  0.07783672088043292  1.0000
  O   O2        1.0  0.3980999181711399  0.3721988645704366  0.15734166210320444  1.0000
  H   H20       1.0  0.9710741905709873  0.4658115489687802  0.39178992182881656  1.0000
  H   H21       1.0  0.7353007948733568  0.38721099671987846  0.2780238379997324  1.0000
  H   H22       1.0  0.7359113294977786  0.3842387332756956  0.8610613247739698  1.0000
  H   H23       1.0  0.9263999659516446  0.4500093255036899  0.06513108477921281  1.0000
  H   H24       1.0  0.8631003903335706  0.42889215134961356  0.6201068571677819  1.0000
  H   H25       1.0  0.6276796687086655  0.49368450782021034  0.9061882144144899  1.0000
  H   H26       1.0  0.5022487416761582  0.45071670984350454  0.9089523122151428  1.0000
  H   H27       1.0  0.5286454229185917  0.17449141999777562  0.24149642652485181  1.0000
  H   H28       1.0  0.654303571809016  0.21502230897602392  0.23799398500399982  1.0000
  H   H29       1.0  0.4183483179629419  0.18279072555289644  0.11666641848351977  1.0000
  H   H30       1.0  0.4073442540035493  0.2979611110667242  0.9777085104366909  1.0000
  H   H31       1.0  0.3475010344790479  0.3529293781353995  0.15664874128966488  1.0000
  Zn  Zn1       1.0  0.7591129039024063  0.4194641773613441  0.5672442586434996  1.0000
  Zn  Zn2       1.0  0.9116547514685183  0.4192072205881485  0.5672134593049014  1.0000
  C   C40       1.0  0.8354236224213434  0.41425397868620073  0.8044269886031217  1.0000
  C   C41       1.0  0.8353456984529807  0.42441905512155675  0.3300308563334218  1.0000
  C   C42       1.0  0.8353438563125908  0.6565254709971591  0.5620332101480585  1.0000
  C   C43       1.0  0.8354254127766706  0.18214600262683045  0.5724247041746249  1.0000
  O   O3        1.0  0.8932406762488417  0.42607123946894876  0.3784053561570442  1.0000
  O   O4        1.0  0.8933043774522084  0.41240579022935187  0.756028739030187  1.0000
  O   O5        1.0  0.8932391851530085  0.6080430860478694  0.5602940479910923  1.0000
  O   O6        1.0  0.8933058164790598  0.23043395299069092  0.5741399498302464  1.0000
  O   O7        1.0  0.777461786836817  0.6082374450478996  0.5603177681218339  1.0000
  O   O8        1.0  0.7775269788660326  0.4126017095022474  0.7560523897784677  1.0000
  O   O9        1.0  0.7774632774717217  0.4262671128827207  0.37842744549379304  1.0000
  O   O10       1.0  0.7775284177158744  0.23062981715330055  0.5741621365365674  1.0000
