data_image0
_chemical_formula_structural       NC12NC2H8C12ClH9C12OCH12Zn2C4O8
_chemical_formula_sum              "N2 C43 H29 Cl1 O9 Zn2"
_cell_length_a       17.80743265337812
_cell_length_b       10.299768534541528
_cell_length_c       10.299794127170987
_cell_angle_alpha    85.578860457747
_cell_angle_beta     91.52773436804358
_cell_angle_gamma    89.45366305101135

_space_group_name_H-M_alt    "P 1"
_space_group_IT_number       1

loop_
  _space_group_symop_operation_xyz
  'x, y, z'

loop_
  _atom_site_type_symbol
  _atom_site_label
  _atom_site_symmetry_multiplicity
  _atom_site_fract_x
  _atom_site_fract_y
  _atom_site_fract_z
  _atom_site_occupancy
  N   N1        1.0  0.7077658300628267  0.40620932059282633  0.6014961054361265  1.0000
  C   C1        1.0  0.6569555645815026  0.4357453115683694  0.5328033653618971  1.0000
  C   C2        1.0  0.5937425786292321  0.47248594158927704  0.44735824403866586  1.0000
  C   C3        1.0  0.6054867706303532  0.5264645918225246  0.32074952223754627  1.0000
  C   C4        1.0  0.5441807179117156  0.5617024331896405  0.23770014903059145  1.0000
  C   C5        1.0  0.4709762580239231  0.5432248699659246  0.2805996520141938  1.0000
  C   C6        1.0  0.4582552430275994  0.48912757121575967  0.40767647987293154  1.0000
  C   C7        1.0  0.5204186134197649  0.45389297831330166  0.49070934262785815  1.0000
  C   C8        1.0  0.3804822009566548  0.46953682947061637  0.45343603271797606  1.0000
  C   C9        1.0  0.3616940662094676  0.4967644774407962  0.5804737075397133  1.0000
  C   C10       1.0  0.2884596656665163  0.478328500306447  0.6234137730871081  1.0000
  C   C11       1.0  0.2330703365525155  0.432410881364216  0.5401540646859093  1.0000
  C   C12       1.0  0.1576991506415822  0.41342254492143105  0.5844949377031383  1.0000
  N   N2        1.0  0.0971060546310066  0.39815719945490957  0.6201419492515416  1.0000
  C   C13       1.0  0.2511669167431444  0.4050145011175905  0.41365931537887835  1.0000
  C   C14       1.0  0.3243484792136468  0.42346517956375695  0.3704633800367212  1.0000
  H   H1        1.0  0.6619570785920476  0.5412768701084996  0.28631554067539167  1.0000
  H   H2        1.0  0.5533919463011713  0.6037668754904324  0.1399296362837532  1.0000
  H   H3        1.0  0.42434598471504714  0.572838488972806  0.215014662553082  1.0000
  H   H4        1.0  0.5119055255231989  0.41044320370577303  0.5883553434393138  1.0000
  H   H5        1.0  0.40337352199813287  0.5339648204756724  0.6460446054992919  1.0000
  H   H6        1.0  0.2750147789386638  0.5002059680283037  0.7214175441282997  1.0000
  H   H7        1.0  0.2087707871994401  0.3690815600627533  0.3485014134220872  1.0000
  H   H8        1.0  0.33726467815430644  0.40005228317965  0.2727628426454416  1.0000
  C   C15       1.0  0.9023686826043824  0.02081926745360141  0.6108136645870605  1.0000
  C   C16       1.0  0.9073257198946677  0.030243039951377337  0.4745887113255818  1.0000
  C   C17       1.0  0.9099097129689387  0.9178772816730146  0.40557329142456267  1.0000
  C   C18       1.0  0.9074692025096499  0.794952359551698  0.4746110720260963  1.0000
  C   C19       1.0  0.9025103979021222  0.7835370945490704  0.6108358786026964  1.0000
  C   C20       1.0  0.8999884607835721  0.8970268562906719  0.6781743415498085  1.0000
  C   C21       1.0  0.9151548440641483  0.9289004945218786  0.2614586949782187  1.0000
  C   C22       1.0  0.8724207614748497  0.023302871007525594  0.18495191268100486  1.0000
  C   C23       1.0  0.8774245640990562  0.033481056157810496  0.04931834895107268  1.0000
  C   C24       1.0  0.9250900136829299  0.9497800091280886  0.988496322232356  1.0000
  C   C25       1.0  0.96781188588809  0.8556896932145235  0.06349137207621625  1.0000
  C   C26       1.0  0.9629414942599351  0.845116501925878  0.19914596751762526  1.0000
  Cl  Cl1       1.0  0.9312843208323107  0.9627978288082691  0.8183161907370113  1.0000
  H   H9        1.0  0.9004412608622933  0.34468289279253383  0.6627169786445677  1.0000
  H   H10       1.0  0.9102256441928057  0.12518020668639585  0.42199754266567346  1.0000
  H   H11       1.0  0.908408592106233  0.7080838557260998  0.4217124668844132  1.0000
  H   H12       1.0  0.8961635738604028  0.8889886766303112  0.7832655857343809  1.0000
  H   H13       1.0  0.9006507729266245  0.45173298116298766  0.6627502401047658  1.0000
  H   H14       1.0  0.8344331707656778  0.08807792547622828  0.22987387211232924  1.0000
  H   H15       1.0  0.844072973154274  0.10626852919154595  0.9916120607597518  1.0000
  H   H16       1.0  0.004961764276903979  0.7908848608595865  0.016839897418105654  1.0000
  H   H17       1.0  0.9972464931141387  0.7726021886468301  0.2554036819958969  1.0000
  C   C27       1.0  0.9024648547306727  0.40206420380643304  0.22947457204113286  1.0000
  C   C28       1.0  0.8288399910942121  0.35446475639906483  0.22875427132268156  1.0000
  C   C29       1.0  0.7915130505042841  0.3304487546789441  0.11124143501990025  1.0000
  C   C30       1.0  0.8287889589363535  0.3546922760075233  0.9934469403097443  1.0000
  C   C31       1.0  0.9024142433097482  0.40229222213574456  0.992174999352966  1.0000
  C   C32       1.0  0.9388406826560383  0.4257087502624253  0.11068879019576627  1.0000
  C   C33       1.0  0.7136242649281825  0.2800840962419233  0.11153419734579284  1.0000
  C   C34       1.0  0.6598520171023526  0.3298627126715903  0.017811670944609004  1.0000
  C   C35       1.0  0.5866486415661285  0.2824471906413424  0.018356178025360936  1.0000
  C   C36       1.0  0.5661535081929205  0.1849382710610057  0.11205936542994954  1.0000
  C   C37       1.0  0.6191843437217809  0.13377040731868672  0.20660893887185083  1.0000
  C   C38       1.0  0.6924899593842463  0.181823353620034  0.20561796539295418  1.0000
  O   O1        1.0  0.601483000816276  0.03556474759125883  0.3025808661941545  1.0000
  C   C39       1.0  0.5294608385080778  0.9777813874357315  0.3151676759429771  1.0000
  H   H18       1.0  0.9305290669805207  0.42014311795339054  0.5572070727113352  1.0000
  H   H19       1.0  0.7999748823588482  0.33763309435608124  0.3196485701720393  1.0000
  H   H20       1.0  0.8006234967316672  0.33468056635017085  0.902766129729903  1.0000
  H   H21       1.0  0.995639486224276  0.46242887623485074  0.11047609568741779  1.0000
  H   H22       1.0  0.930453519344445  0.4204914454842732  0.6642322388182551  1.0000
  H   H23       1.0  0.6741536283822726  0.4066321569996123  0.9451794429566811  1.0000
  H   H24       1.0  0.5455811990373919  0.3216914747167987  0.9460523300931114  1.0000
  H   H25       1.0  0.5090735637127607  0.15008497109327856  0.1101534877578445  1.0000
  H   H26       1.0  0.7332259185493677  0.14083592549431545  0.27773213659360896  1.0000
  H   H27       1.0  0.5139675727235599  0.9296466223244632  0.225564177511427  1.0000
  H   H28       1.0  0.531377423820413  0.9032667770256445  0.3989298431510562  1.0000
  H   H29       1.0  0.48668651415332004  0.052923507567774974  0.33339774845470904  1.0000
  Zn  Zn1       1.0  0.8201210108589054  0.4038821873710714  0.6068843796530867  1.0000
  Zn  Zn2       1.0  0.984750868669592  0.40047374252252577  0.6147642672572524  1.0000
  C   C40       1.0  0.9024211511549216  0.39707552923456757  0.8480080694682623  1.0000
  C   C41       1.0  0.9024525264224819  0.40728200207517196  0.37364079099822933  1.0000
  C   C42       1.0  0.9024800810796755  0.6393657582753163  0.6056566131641266  1.0000
  C   C43       1.0  0.9023935400265782  0.164990213936012  0.6159923138032108  1.0000
  O   O2        1.0  0.9649245609404324  0.4077339901152588  0.4250146671689581  1.0000
  O   O3        1.0  0.9648993692824694  0.3940356305990411  0.8026144718046042  1.0000
  O   O4        1.0  0.9649461136436336  0.5896880725680866  0.606913915889375  1.0000
  O   O5        1.0  0.9648777604104404  0.212081558570278  0.6207151230256913  1.0000
  O   O6        1.0  0.839994062937967  0.5922743724878659  0.6009335211887985  1.0000
  O   O7        1.0  0.8399473188678629  0.3966234907817783  0.796634007907332  1.0000
  O   O8        1.0  0.8399725106710414  0.4103218045748529  0.41903264194860257  1.0000
  O   O9        1.0  0.8399257101297873  0.21466936377035428  0.614733195167982  1.0000
