data_image0
_chemical_formula_structural       NC9NC5H8C12NH11C15H12Zn2C4O8
_chemical_formula_sum              "N3 C45 H31 Zn2 O8"
_cell_length_a       17.807436237873137
_cell_length_b       10.299770795358612
_cell_length_c       10.299157797200024
_cell_angle_alpha    85.53969178690444
_cell_angle_beta     89.41431720980768
_cell_angle_gamma    88.40764042794568

_space_group_name_H-M_alt    "P 1"
_space_group_IT_number       1

loop_
  _space_group_symop_operation_xyz
  'x, y, z'

loop_
  _atom_site_type_symbol
  _atom_site_label
  _atom_site_symmetry_multiplicity
  _atom_site_fract_x
  _atom_site_fract_y
  _atom_site_fract_z
  _atom_site_occupancy
  N   N1        1.0  0.7073300979974058  0.3881668620433194  0.556918352287201  1.0000
  C   C1        1.0  0.6467337836862255  0.3529807858652849  0.5458969990357188  1.0000
  C   C2        1.0  0.5713586287792525  0.30921318199826175  0.5321876322717132  1.0000
  C   C3        1.0  0.5532305702236706  0.23782997272454565  0.42718514648383055  1.0000
  C   C4        1.0  0.4800451456770918  0.19522353156314987  0.4137916118078826  1.0000
  C   C5        1.0  0.4239389864830806  0.2236227837962268  0.5053681438148794  1.0000
  C   C6        1.0  0.3461617852539446  0.17845800102958265  0.4912163536946006  1.0000
  C   C7        1.0  0.2840059161299583  0.2602055908803853  0.5171493274920651  1.0000
  C   C8        1.0  0.2106781536379974  0.21739610982724966  0.5037694932643908  1.0000
  C   C9        1.0  0.1474727575080155  0.30183491428970965  0.5300661457367533  1.0000
  N   N2        1.0  0.096668606105295  0.36971787094054176  0.5512079283275313  1.0000
  C   C10       1.0  0.1989226636485537  0.0925810693221083  0.4644313575393828  1.0000
  C   C11       1.0  0.2602211585700792  0.010819629809407205  0.438489994815787  1.0000
  C   C12       1.0  0.3334293726028623  0.05323463410206042  0.4516673147736485  1.0000
  C   C13       1.0  0.4427585875848133  0.29550028913073323  0.6105898269955028  1.0000
  C   C14       1.0  0.5159968140802856  0.3379163840490562  0.6238277191460815  1.0000
  H   H1        1.0  0.595605152212226  0.21536620924139993  0.3554702334247395  1.0000
  H   H2        1.0  0.46710414062854344  0.1415663815235939  0.33087118792881753  1.0000
  H   H3        1.0  0.2925273333444035  0.3576608390779752  0.546019153288356  1.0000
  H   H4        1.0  0.1424491581584242  0.05854853720614406  0.4538389635907525  1.0000
  H   H5        1.0  0.2510012695455609  0.9141848268743279  0.408419612337084  1.0000
  H   H6        1.0  0.3800541473638115  0.987495975394304  0.4326238053872862  1.0000
  H   H7        1.0  0.401101084592309  0.3174246265341063  0.68359936367745  1.0000
  H   H8        1.0  0.5294661490786655  0.39279441405400695  0.7057063435768895  1.0000
  C   C15       1.0  0.901934871995576  0.9975768860464337  0.5541037027784197  1.0000
  C   C16       1.0  0.8801001865447302  0.007824964829854064  0.42300568434501384  1.0000
  C   C17       1.0  0.8691052782633101  0.8958783348279931  0.3565411770314204  1.0000
  C   C18       1.0  0.8802376762917651  0.7725368563103572  0.42293511085157975  1.0000
  C   C19       1.0  0.9020710023542328  0.7602975499689067  0.5540336998032622  1.0000
  C   C20       1.0  0.9127976985678029  0.8733783197886605  0.6188837308122137  1.0000
  C   C21       1.0  0.8460057772562487  0.9077735969599348  0.2178470777746364  1.0000
  C   C22       1.0  0.7912927824458089  0.0015572139744219893  0.17345968294004854  1.0000
  C   C23       1.0  0.7695837442483365  0.012622283315299132  0.04291926332811369  1.0000
  C   C24       1.0  0.8021769718427617  0.9303432463490219  0.9546919993806076  1.0000
  C   C25       1.0  0.8567094890586747  0.836766521607295  0.9981914291685059  1.0000
  C   C26       1.0  0.8784787013811197  0.8254425838240008  0.1287009914049808  1.0000
  N   N3        1.0  0.7799394321729362  0.9417942806684847  0.8211746472220427  1.0000
  H   H9        1.0  0.910222951849238  0.32112566068392967  0.6040757276121356  1.0000
  H   H10       1.0  0.8725887665157974  0.1031011188418125  0.37176053955246147  1.0000
  H   H11       1.0  0.8708406874881303  0.685967838766797  0.37265778092698265  1.0000
  H   H12       1.0  0.9296415983352014  0.8647043820694371  0.7200200548285038  1.0000
  H   H13       1.0  0.9104231704866546  0.42817982280692707  0.6039731613511301  1.0000
  H   H14       1.0  0.7645839188328275  0.06521468611077852  0.24005860900248477  1.0000
  H   H15       1.0  0.7272211849552951  0.08512037515008686  0.010627050931337312  1.0000
  H   H16       1.0  0.8824891107987206  0.7728077273968179  0.930916817848805  1.0000
  H   H17       1.0  0.9214168543150887  0.7534279070225165  0.159545132926586  1.0000
  H   H18       1.0  0.8039160659257727  0.8808820384852888  0.7546794100617373  1.0000
  H   H19       1.0  0.7393350361655748  0.01126933919139228  0.787833418961402  1.0000
  C   C27       1.0  0.9019158564813792  0.3790475903419648  0.17267796582699635  1.0000
  C   C28       1.0  0.8236636662692383  0.3647762599143929  0.17400244414154753  1.0000
  C   C29       1.0  0.784148333269588  0.3574236689489594  0.05752932256080312  1.0000
  C   C30       1.0  0.8238868416673951  0.36455695316884507  0.9387318948230314  1.0000
  C   C31       1.0  0.90208999658545  0.3788268124406797  0.9354594528142246  1.0000
  C   C32       1.0  0.9406478467143239  0.3859830423336994  0.052969483367761194  1.0000
  C   C33       1.0  0.701418245028534  0.34234103269440963  0.059975890697881784  1.0000
  C   C34       1.0  0.6675992497427526  0.2569646671102941  0.9793726170921611  1.0000
  C   C35       1.0  0.5897467872186902  0.2428643224132756  0.9817071907945074  1.0000
  C   C36       1.0  0.5443265610117796  0.31319697795904666  0.06519737267632264  1.0000
  C   C37       1.0  0.5777436578470685  0.39943793347653167  0.14482975022729527  1.0000
  C   C38       1.0  0.6555953636577122  0.4135425123806573  0.1426431379768094  1.0000
  C   C39       1.0  0.46045786385699533  0.3003559973330483  0.06536600484629784  1.0000
  C   C40       1.0  0.4266881155697825  0.39572348199108554  0.9684420420033399  1.0000
  C   C41       1.0  0.3989344238970034  0.4741433822376726  0.888743532327815  1.0000
  H   H20       1.0  0.0496723899265572  0.4051864485811214  0.3775319397208057  1.0000
  H   H21       1.0  0.7934447713194213  0.3575833487673099  0.2659841631176063  1.0000
  H   H22       1.0  0.7935604417520127  0.36075595779793246  0.8485448506072926  1.0000
  H   H23       1.0  0.000968306236484251  0.3969860354608863  0.051161083963981335  1.0000
  H   H24       1.0  0.9321726285500987  0.3842738960085552  0.6067283561202537  1.0000
  H   H25       1.0  0.701447043426923  0.19999526147360513  0.9155090152266694  1.0000
  H   H26       1.0  0.5648623011539267  0.17688788790184007  0.9185190203152884  1.0000
  H   H27       1.0  0.5434570901086856  0.4561189524940499  0.2083548158119728  1.0000
  H   H28       1.0  0.6798674792920789  0.4816551888344023  0.20419886138246968  1.0000
  H   H29       1.0  0.4454464967999515  0.20082727532950462  0.04214985160464213  1.0000
  H   H30       1.0  0.4365466617565129  0.316933950205605  0.16293664902424365  1.0000
  H   H31       1.0  0.3745901133888523  0.5429923213252148  0.8187752083722248  1.0000
  Zn  Zn1       1.0  0.8196847811662747  0.38283941430399193  0.5552779588247765  1.0000
  Zn  Zn2       1.0  0.9843139052877069  0.37503472951559647  0.5528589999843889  1.0000
  C   C42       1.0  0.9020545015830279  0.3736950137468886  0.791277943214781  1.0000
  C   C43       1.0  0.9019459829374461  0.38418068341302614  0.31685911650289245  1.0000
  C   C44       1.0  0.9020402266529306  0.6161287829194628  0.5488715591884241  1.0000
  C   C45       1.0  0.9019602014284489  0.14174535659573828  0.5592655707403729  1.0000
  O   O1        1.0  0.9644319872722503  0.3829358934483227  0.364329646027028  1.0000
  O   O2        1.0  0.9645181929375266  0.36901524894024784  0.7419711061240972  1.0000
  O   O3        1.0  0.9645058238543506  0.564783623076726  0.5462262482085991  1.0000
  O   O4        1.0  0.9644443001580814  0.18716753129337182  0.5600744073868555  1.0000
  O   O5        1.0  0.8395543301160586  0.5707066151909879  0.5480625522409504  1.0000
  O   O6        1.0  0.8395666994584875  0.3749398013639953  0.7438073407639649  1.0000
  O   O7        1.0  0.8394804934785618  0.3888604010660668  0.3661643191801902  1.0000
  O   O8        1.0  0.8394928063818962  0.19309202959436056  0.5619091779143293  1.0000
