data_image0
_chemical_formula_structural       NC12NC2H8C12NCOCH13C12NCOCH13Zn2C4O8
_chemical_formula_sum              "N4 C46 H34 O10 Zn2"
_cell_length_a       19.240039667572717
_cell_length_b       10.299155265289647
_cell_length_c       10.299158637457994
_cell_angle_alpha    85.56442242627145
_cell_angle_beta     89.9815795743678
_cell_angle_gamma    89.97652338962732

_space_group_name_H-M_alt    "P 1"
_space_group_IT_number       1

loop_
  _space_group_symop_operation_xyz
  'x, y, z'

loop_
  _atom_site_type_symbol
  _atom_site_label
  _atom_site_symmetry_multiplicity
  _atom_site_fract_x
  _atom_site_fract_y
  _atom_site_fract_z
  _atom_site_occupancy
  N   N1        1.0  0.654412074900803  0.42087422907487015  0.567069049416159  1.0000
  C   C1        1.0  0.5942637060792118  0.4208743130334591  0.5670689674567047  1.0000
  C   C2        1.0  0.5194456689359671  0.4208744302794454  0.5670688301203461  1.0000
  C   C3        1.0  0.4829682882470477  0.35644078726016115  0.6704984986808564  1.0000
  C   C4        1.0  0.4102975495636091  0.356329928265146  0.6705850703399603  1.0000
  C   C5        1.0  0.3731134340175357  0.42087452277126935  0.5670686024124814  1.0000
  C   C6        1.0  0.4103049967841748  0.48541930434610037  0.4635523289795882  1.0000
  C   C7        1.0  0.4829756946950143  0.48530820987732093  0.46363902320104877  1.0000
  C   C8        1.0  0.2959083436115871  0.42087444407067753  0.5670685070161359  1.0000
  C   C9        1.0  0.2587381645229032  0.3076200118640904  0.6089685958701581  1.0000
  C   C10       1.0  0.1860674684184065  0.30772688785967617  0.6088772421930393  1.0000
  C   C11       1.0  0.14957605670623147  0.42087431490967275  0.5670685679600367  1.0000
  C   C12       1.0  0.0747580195334115  0.4208742012458837  0.5670688166524254  1.0000
  N   N2        1.0  0.014609702654381499  0.4208741604926387  0.5670690250843264  1.0000
  C   C13       1.0  0.1860321558431461  0.5340218177742899  0.5252598408163713  1.0000
  C   C14       1.0  0.2587028443291565  0.5341288738469538  0.5251683244970178  1.0000
  H   H1        1.0  0.5106801986606733  0.3065550975828244  0.7512533377933381  1.0000
  H   H2        1.0  0.3832009201683411  0.30724277497113195  0.752455223872418  1.0000
  H   H3        1.0  0.3832150953941363  0.5345064846766627  0.3816821245912745  1.0000
  H   H4        1.0  0.5106935557189752  0.5351937993817213  0.3828844599124064  1.0000
  H   H5        1.0  0.2858456254746772  0.21846898514908264  0.640159288828192  1.0000
  H   H6        1.0  0.1583664371691755  0.21947547095660114  0.6411006828658068  1.0000
  H   H7        1.0  0.15830336364746317  0.6222732101438082  0.4930364147004511  1.0000
  H   H8        1.0  0.2857818621849369  0.6232799797286959  0.4939775867467797  1.0000
  C   C15       1.0  0.8345918333155187  0.03947676104677211  0.5671877266716954  1.0000
  C   C16       1.0  0.8227424128590007  0.04914074196426799  0.4322617536257254  1.0000
  C   C17       1.0  0.8166672144682557  0.9369028691685152  0.36373371840033  1.0000
  C   C18       1.0  0.8225762820737736  0.8138808900366665  0.4319539670398813  1.0000
  C   C19       1.0  0.8344366416019399  0.8022616971424978  0.5669615311266585  1.0000
  C   C20       1.0  0.8403744925337592  0.9155766475320957  0.6337472479448656  1.0000
  C   C21       1.0  0.8041328164018262  0.9480998633887903  0.22099833114182754  1.0000
  C   C22       1.0  0.8393945083524866  0.04218897340587868  0.1395802527195944  1.0000
  C   C23       1.0  0.8276045328329037  0.05259520536336937  0.005256742134965631  1.0000
  C   C24       1.0  0.7807493126545694  0.9682379630449167  0.9495058630254389  1.0000
  C   C25       1.0  0.7446386636750344  0.8759651204600113  0.030855781736379706  1.0000
  C   C26       1.0  0.7564539594675714  0.8653028590840652  0.1651419566330885  1.0000
  N   N3        1.0  0.7667232340661613  0.9784421350110353  0.8119440057333587  1.0000
  C   C27       1.0  0.8174886033450852  0.015352345958873803  0.713725695573673  1.0000
  O   O1        1.0  0.8812445783500769  0.01789411028887855  0.7415842637327748  1.0000
  C   C28       1.0  0.7953396344024902  0.04176199958364224  0.5751850012248831  1.0000
  H   H9        1.0  0.8391712017268692  0.3632357659728107  0.61908033296121  1.0000
  H   H10       1.0  0.8172523752777956  0.14417196310842906  0.38045181423098473  1.0000
  H   H11       1.0  0.8188465312632093  0.7270677131299035  0.37932521149105614  1.0000
  H   H12       1.0  0.849516537983322  0.9074077518737161  0.7378180251262902  1.0000
  H   H13       1.0  0.857238649884741  0.5730477261323116  0.8216504270174081  1.0000
  H   H14       1.0  0.8765007974708504  0.10724807184380025  0.17967280018038623  1.0000
  H   H15       1.0  0.8542780434015883  0.12803487906838007  0.9456759557679195  1.0000
  H   H16       1.0  0.7074658227682982  0.8116098401067146  0.9898961932929957  1.0000
  H   H17       1.0  0.7275470020012959  0.7934797569254415  0.22555569565652878  1.0000
  H   H18       1.0  0.7177758159293469  0.9495652406244101  0.7808703892597495  1.0000
  H   H19       1.0  0.7451699058193609  0.095206482221728  0.57073134369258  1.0000
  H   H20       1.0  0.7889159471945036  0.9481402543033539  0.5299606698935277  1.0000
  H   H21       1.0  0.8349153543196968  0.10183842871014637  0.5197893823343436  1.0000
  C   C29       1.0  0.8345794150440154  0.4207312334849669  0.18570158542863124  1.0000
  C   C30       1.0  0.8361664483352498  0.5574447179502031  0.17434750289865142  1.0000
  C   C31       1.0  0.8369165182772382  0.6269002138603839  0.05143315219465694  1.0000
  C   C32       1.0  0.8360333253536826  0.5578046146384554  0.9390359176203753  1.0000
  C   C33       1.0  0.8344490374643636  0.42100721500830596  0.9484477188807223  1.0000
  C   C34       1.0  0.8337348763312823  0.35331165962849775  0.072168193681174  1.0000
  C   C35       1.0  0.8385962376660745  0.771526304393936  0.04039546468127475  1.0000
  C   C36       1.0  0.8812411988011031  0.8393652751860938  0.1229427243750767  1.0000
  C   C37       1.0  0.88282756761074  0.9754660539670499  0.11242482103243057  1.0000
  C   C38       1.0  0.842241188411219  0.04645673657936511  0.018254221516975866  1.0000
  C   C39       1.0  0.7987684582899186  0.9789781808804066  0.9374899344661993  1.0000
  C   C40       1.0  0.7972106182703262  0.8429053136315006  0.9477468426705578  1.0000
  N   N4        1.0  0.8419472690197687  0.18651318503844472  0.006977313711770572  1.0000
  C   C41       1.0  0.9014788042264527  0.2655069742450058  0.030185446614056755  1.0000
  O   O2        1.0  0.9614130266543169  0.2160906024584528  0.03871622305289013  1.0000
  C   C42       1.0  0.8932968004466967  0.40933288118512445  0.034745360392214986  1.0000
  H   H22       1.0  0.8339907493698744  0.3681435175568821  0.5175446251290245  1.0000
  H   H23       1.0  0.8358518754287962  0.610265915637956  0.26128269537852744  1.0000
  H   H24       1.0  0.8375293277842102  0.6108221819734538  0.8440485880864155  1.0000
  H   H25       1.0  0.8325131397092913  0.24786135496529438  0.08021096566657171  1.0000
  H   H26       1.0  0.8318807194142144  0.16279390082612366  0.7589197895864057  1.0000
  H   H27       1.0  0.9137810765994786  0.7871343219019744  0.19515074656812414  1.0000
  H   H28       1.0  0.9148892081694722  0.024809319126846585  0.17944170099551715  1.0000
  H   H29       1.0  0.7662481918402584  0.032084206928428394  0.8658509433638182  1.0000
  H   H30       1.0  0.7628720064757758  0.7935152652934028  0.8844142188428523  1.0000
  H   H31       1.0  0.7968839973775235  0.23397173801056148  0.9720165151539151  1.0000
  H   H32       1.0  0.8444211404336435  0.4310491927016238  0.08615673128541568  1.0000
  H   H33       1.0  0.8914186628246895  0.4560037129382053  0.9340127265444917  1.0000
  H   H34       1.0  0.9376297533898362  0.4501035648783689  0.08738802432727932  1.0000
  Zn  Zn1       1.0  0.7583573381705161  0.42087074453129114  0.5670765319297537  1.0000
  Zn  Zn2       1.0  0.9106644584997948  0.42086705459825247  0.5670721447269156  1.0000
  C   C43       1.0  0.834473181843247  0.41578096305710455  0.8042738762831021  1.0000
  C   C44       1.0  0.8345502776608337  0.42595847482042126  0.32987492730757517  1.0000
  C   C45       1.0  0.8344632640490631  0.6580772071339274  0.5618290718434071  1.0000
  C   C46       1.0  0.8345601437889298  0.18366067035061118  0.5723198014508415  1.0000
  O   O3        1.0  0.8923402584515776  0.4277057182884436  0.3782591546414007  1.0000
  O   O4        1.0  0.8922807814988308  0.41402993908423835  0.7558859456042728  1.0000
  O   O5        1.0  0.8922719933553818  0.6096872209379449  0.5601100503040131  1.0000
  O   O6        1.0  0.8923489946376781  0.2320484456916836  0.5740349525646788  1.0000
  O   O7        1.0  0.7766727500576885  0.6096893534405312  0.560113724086656  1.0000
  O   O8        1.0  0.7766815378922811  0.4140336319824818  0.7558895496780103  1.0000
  O   O9        1.0  0.7767410151673617  0.427709365362424  0.3782611973109351  1.0000
  O   O10       1.0  0.7767497513358668  0.23205208351138795  0.5740370926058604  1.0000
