data_image0
_chemical_formula_structural       NC10NC3NH7C12SCH12C12NH11Zn2C4O8
_chemical_formula_sum              "N4 C42 H30 S1 Zn2 O8"
_cell_length_a       19.210446455230148
_cell_length_b       10.299776766347529
_cell_length_c       10.299774167527174
_cell_angle_alpha    85.57893362728709
_cell_angle_beta     89.98397518987284
_cell_angle_gamma    89.9285037425463

_space_group_name_H-M_alt    "P 1"
_space_group_IT_number       1

loop_
  _space_group_symop_operation_xyz
  'x, y, z'

loop_
  _atom_site_type_symbol
  _atom_site_label
  _atom_site_symmetry_multiplicity
  _atom_site_fract_x
  _atom_site_fract_y
  _atom_site_fract_z
  _atom_site_occupancy
  N   N1        1.0  0.6553095217769263  0.4197539404743451  0.5674825374367181  1.0000
  C   C1        1.0  0.5950803989671835  0.4219614627074664  0.5677138209715378  1.0000
  C   C2        1.0  0.5202752484151  0.4246983859762936  0.5680003525501041  1.0000
  C   C3        1.0  0.4846339805366858  0.5409300574291738  0.5831191180084432  1.0000
  C   C4        1.0  0.4119684642045034  0.5410815762215486  0.5830665332666669  1.0000
  C   C5        1.0  0.3751083085328772  0.4254073583519318  0.5680868785636406  1.0000
  C   C6        1.0  0.2977865348474396  0.4240508760530901  0.5679362038445837  1.0000
  C   C7        1.0  0.2600082992357187  0.5276013394379879  0.5045844036792291  1.0000
  C   C8        1.0  0.1872303094927101  0.5261991145976186  0.5044752416388067  1.0000
  C   C9        1.0  0.1512290801322192  0.4215039154828457  0.5676669025452528  1.0000
  C   C10       1.0  0.0762999011236212  0.4202018296047032  0.5675299940528196  1.0000
  N   N2        1.0  0.0160623230166836  0.4191549083606396  0.5674199544961513  1.0000
  C   C11       1.0  0.1882836269153011  0.31807913449701286  0.6309937038182982  1.0000
  C   C12       1.0  0.2610635341526756  0.31920711219824316  0.6311530910393781  1.0000
  C   C13       1.0  0.4133589576436817  0.31099597509269405  0.5532563844028746  1.0000
  N   N3        1.0  0.48412826786129315  0.31344093224191316  0.5534221013490197  1.0000
  H   H1        1.0  0.5127113897978377  0.6303646595124213  0.5951728891321055  1.0000
  H   H2        1.0  0.384675850068683  0.6310984100511501  0.5965149978041187  1.0000
  H   H3        1.0  0.2867164853850537  0.6088386421504954  0.4536016748469376  1.0000
  H   H4        1.0  0.1590649660858041  0.6066090976512764  0.45482278588682656  1.0000
  H   H5        1.0  0.1609358913957735  0.23670575226056378  0.6805466158800895  1.0000
  H   H6        1.0  0.288583919111405  0.2389167051521237  0.6822432102474141  1.0000
  H   H7        1.0  0.387117602697602  0.22011623010058767  0.539761617852502  1.0000
  C   C14       1.0  0.8357548815543393  0.03808918873044931  0.5674496411000307  1.0000
  C   C15       1.0  0.8399293045427774  0.02656070676249378  0.7039559831264675  1.0000
  C   C16       1.0  0.8419774982732177  0.9035806250410727  0.7731302031132676  1.0000
  C   C17       1.0  0.8397962000728633  0.7912731558608439  0.7039711957860777  1.0000
  C   C18       1.0  0.8356236362375807  0.8008096870104019  0.5674641040925128  1.0000
  C   C19       1.0  0.8336259423449387  0.924656738742841  0.4999674553740139  1.0000
  C   C20       1.0  0.8463858955975279  0.8924487107773089  0.9175385121737942  1.0000
  C   C21       1.0  0.8065423137564169  0.7990762518109287  0.9915844098984883  1.0000
  C   C22       1.0  0.810712037658777  0.7888342379289751  0.12748619393121274  1.0000
  C   C23       1.0  0.8545516750611607  0.8716869352637463  0.1911486923027631  1.0000
  C   C24       1.0  0.8945612872615017  0.9644857362633583  0.11847576192759679  1.0000
  C   C25       1.0  0.8904936349322858  0.9750774663596482  0.9825635457060284  1.0000
  S   S1        1.0  0.8599787660499488  0.8580843572242103  0.36552936543237025  1.0000
  C   C26       1.0  0.7900288784110515  0.9742680780268741  0.3850692376286666  1.0000
  H   H8        1.0  0.8341916224675922  0.36993550017035237  0.5154345235025048  1.0000
  H   H9        1.0  0.8406375155899031  0.11340621181047683  0.7569115427040936  1.0000
  H   H10       1.0  0.842319427502015  0.6962707818035725  0.7567303139481076  1.0000
  H   H11       1.0  0.8304060284357787  0.9327819833176133  0.39465861664638857  1.0000
  H   H12       1.0  0.8339989470247581  0.4769898276701977  0.5154536626819439  1.0000
  H   H13       1.0  0.7715039869247856  0.7351564717074383  0.9444787164347774  1.0000
  H   H14       1.0  0.7795867475851062  0.7168400609382205  0.18321030294831553  1.0000
  H   H15       1.0  0.9288586631724822  0.028463090606147157  0.16717043896478911  1.0000
  H   H16       1.0  0.9224973932161411  0.046701650509197945  0.9282522563284117  1.0000
  H   H17       1.0  0.8039668484475773  0.0705602332469617  0.336191607007858  1.0000
  H   H18       1.0  0.7819563653520754  0.9849919083574828  0.4903446489166281  1.0000
  H   H19       1.0  0.7410495003344281  0.9388044837933286  0.3429577529237692  1.0000
  C   C27       1.0  0.8357129509212092  0.41933488255902196  0.1861047642585718  1.0000
  C   C28       1.0  0.7675473954223668  0.37014665665011615  0.18893642207378014  1.0000
  C   C29       1.0  0.7329829765417971  0.3453384503096464  0.07322343263280628  1.0000
  C   C30       1.0  0.7674995332221993  0.37037803501083566  0.9536317237111485  1.0000
  C   C31       1.0  0.8356655318929533  0.41956403370744666  0.948808921415131  1.0000
  C   C32       1.0  0.8693904177179727  0.4437675242040031  0.06556469830834932  1.0000
  C   C33       1.0  0.6608677693860009  0.29330072485213776  0.07727251114630795  1.0000
  C   C34       1.0  0.641321568757283  0.19488023351747108  0.17257278095121564  1.0000
  C   C35       1.0  0.573443493163141  0.14595785525009175  0.1762500708217214  1.0000
  C   C36       1.0  0.5240379011704436  0.19456511383093678  0.08495495812109999  1.0000
  C   C37       1.0  0.5431248218934158  0.2925962107207709  0.989814125304433  1.0000
  C   C38       1.0  0.6109819779983449  0.34161988462770254  0.9858705608744094  1.0000
  N   N4        1.0  0.4546143932166833  0.14446926109578717  0.08885269403607543  1.0000
  H   H20       1.0  0.8616989961554113  0.4380241633889228  0.5124833705696941  1.0000
  H   H21       1.0  0.740825586533825  0.35268804857099645  0.2812264105764719  1.0000
  H   H22       1.0  0.7414337992754423  0.3497459605154216  0.8643054395962397  1.0000
  H   H23       1.0  0.9219771566681566  0.48171308879817243  0.0626122175115349  1.0000
  H   H24       1.0  0.861629409548507  0.43836122573276826  0.6195136114299777  1.0000
  H   H25       1.0  0.6787729028821783  0.15455024122579752  0.24321534215163787  1.0000
  H   H26       1.0  0.5594145186705964  0.06993521460671381  0.25006941537202376  1.0000
  H   H27       1.0  0.5053831813621923  0.33126139035752655  0.9189015298723544  1.0000
  H   H28       1.0  0.6241970455054703  0.4185103633653009  0.9123833917373894  1.0000
  H   H29       1.0  0.41742227368415497  0.18008710468051192  0.02119527736689264  1.0000
  H   H30       1.0  0.4398956784244408  0.07139300886857503  0.15942507896084512  1.0000
  Zn  Zn1       1.0  0.7594149868158058  0.41957761097863666  0.5674719760228737  1.0000
  Zn  Zn2       1.0  0.9119568431980541  0.4193206586055469  0.5674411510178459  1.0000
  C   C39       1.0  0.8356738413508789  0.4143470662144315  0.8046414365161629  1.0000
  C   C40       1.0  0.8356996541253745  0.42455283920594167  0.3302718176798025  1.0000
  C   C41       1.0  0.8356451644851802  0.656637734727366  0.5622864093732032  1.0000
  C   C42       1.0  0.8357282792034297  0.18226061051392328  0.5726269140393161  1.0000
  O   O1        1.0  0.8935840320928167  0.42620085534991525  0.3786438997542325  1.0000
  O   O2        1.0  0.8935652029911184  0.412503049339384  0.7562455851280605  1.0000
  O   O3        1.0  0.8935412656062209  0.6081558300674457  0.5605421861913575  1.0000
  O   O4        1.0  0.8936079174299649  0.23054808397041637  0.5743472013312565  1.0000
  O   O5        1.0  0.777763860528846  0.6083501857028641  0.5605659257131517  1.0000
  O   O6        1.0  0.777787797646338  0.4126989652429831  0.7562692554369892  1.0000
  O   O7        1.0  0.7778066268991685  0.42639672552887875  0.3786660087304632  1.0000
  O   O8        1.0  0.777830512229017  0.2307439448899138  0.5743694076708548  1.0000
