data_image0
_chemical_formula_structural       NC12NC2H8C12OCH12C13OH12Zn2C4O8
_chemical_formula_sum              "N2 C44 H32 O10 Zn2"
_cell_length_a       19.240039667572717
_cell_length_b       10.29979075500242
_cell_length_c       10.299153481560891
_cell_angle_alpha    85.5777986716743
_cell_angle_beta     90.01662043824444
_cell_angle_gamma    89.9807799165636

_space_group_name_H-M_alt    "P 1"
_space_group_IT_number       1

loop_
  _space_group_symop_operation_xyz
  'x, y, z'

loop_
  _atom_site_type_symbol
  _atom_site_label
  _atom_site_symmetry_multiplicity
  _atom_site_fract_x
  _atom_site_fract_y
  _atom_site_fract_z
  _atom_site_occupancy
  N   N1        1.0  0.6539995282000063  0.4207280255056405  0.5673682110454266  1.0000
  C   C1        1.0  0.5938511593549256  0.42072810945565786  0.5673681291036456  1.0000
  C   C2        1.0  0.5190331221713875  0.4207282266891057  0.5673679917920003  1.0000
  C   C3        1.0  0.4825870368238234  0.35630216780816215  0.6707840392999769  1.0000
  C   C4        1.0  0.4099163220690217  0.35619131959416417  0.6708705876538814  1.0000
  C   C5        1.0  0.3727008871820924  0.4207283191680766  0.5673677641038009  1.0000
  C   C6        1.0  0.40986113067899343  0.48526550580095607  0.46386513508714766  1.0000
  C   C7        1.0  0.4825318525492209  0.48515442213457116  0.463951805953994  1.0000
  C   C8        1.0  0.29549579674178106  0.42072824047124624  0.5673676686911335  1.0000
  C   C9        1.0  0.2583348267196512  0.3074836672966548  0.6092440149876754  1.0000
  C   C10       1.0  0.18566410496248356  0.3075905327027204  0.6091526837896639  1.0000
  C   C11       1.0  0.14916350985123586  0.4207281113218111  0.5673677296079387  1.0000
  C   C12       1.0  0.07434547275530669  0.4207279976730447  0.5673679782762051  1.0000
  N   N2        1.0  0.0141971559428894  0.4207279569281457  0.5673681866992875  1.0000
  C   C13       1.0  0.1856104255747739  0.5338657657483066  0.52558272253148  1.0000
  C   C14       1.0  0.2582810883620366  0.533972811213391  0.5254912287291211  1.0000
  H   H1        1.0  0.5103233985231254  0.30642236672527257  0.7515283317834276  1.0000
  H   H2        1.0  0.3828445408662847  0.3071100203878545  0.7527303599545758  1.0000
  H   H3        1.0  0.3827463810808514  0.5343468320404465  0.38200531193632337  1.0000
  H   H4        1.0  0.5102252623738152  0.53503412305917  0.383207789273043  1.0000
  H   H5        1.0  0.2854489501657437  0.21834035689418885  0.6404160209541387  1.0000
  H   H6        1.0  0.1579701101074052  0.21934678768582616  0.6413576241213428  1.0000
  H   H7        1.0  0.1578745969887275  0.6221094862339156  0.4933777967514974  1.0000
  H   H8        1.0  0.2853534437119857  0.6231162007753157  0.4943191779870719  1.0000
  C   C15       1.0  0.8341641447478713  0.039360260389919244  0.5674071330688975  1.0000
  C   C16       1.0  0.814065898338464  0.028242816439528973  0.6988466345206819  1.0000
  C   C17       1.0  0.8038268045672178  0.905473225492296  0.7654148778819454  1.0000
  C   C18       1.0  0.8139410221432958  0.7929604988924445  0.6987808487382658  1.0000
  C   C19       1.0  0.8340392375539761  0.8020857277292888  0.567340414761589  1.0000
  C   C20       1.0  0.8440398781268048  0.9257270272686683  0.5023902057454648  1.0000
  C   C21       1.0  0.7825682329108585  0.8947657035110245  0.9044717464856935  1.0000
  C   C22       1.0  0.731863100797854  0.8039161599703418  0.9495378009569042  1.0000
  C   C23       1.0  0.711917664288405  0.7941121475444877  0.08027827269896837  1.0000
  C   C24       1.0  0.7422279969969304  0.8744897531021513  0.16762738746725991  1.0000
  C   C25       1.0  0.7931184516583717  0.9659490740057797  0.12443305905240643  1.0000
  C   C26       1.0  0.8128483415697934  0.9753917040055347  0.9931658819294849  1.0000
  O   O1        1.0  0.8252580388908122  0.04868001392650556  0.2083023942498119  1.0000
  C   C27       1.0  0.810378569442585  0.049707083857648104  0.3436399694668497  1.0000
  H   H9        1.0  0.8418528575334117  0.37104796887770886  0.517344333070767  1.0000
  H   H10       1.0  0.8054064746416146  0.11528757377402199  0.74927594501721  1.0000
  H   H11       1.0  0.8070203822193942  0.6980791342351218  0.7501492822988738  1.0000
  H   H12       1.0  0.8595453609817312  0.933535269093431  0.4009901836704297  1.0000
  H   H13       1.0  0.8416629896926646  0.4781113867805102  0.5172399792687337  1.0000
  H   H14       1.0  0.7069934730099947  0.7416629870871495  0.8833275582903723  1.0000
  H   H15       1.0  0.6726698369389961  0.7241543966474098  0.11395744329329094  1.0000
  H   H16       1.0  0.7257727933493342  0.8647769855676026  0.26829507169161804  1.0000
  H   H17       1.0  0.852657189886624  0.044923796668759675  0.960999585263153  1.0000
  H   H18       1.0  0.82239247561718  0.9531965022051186  0.3942630969269868  1.0000
  H   H19       1.0  0.8431826656791518  0.1243614920147651  0.38585473606987786  1.0000
  H   H20       1.0  0.7548973510976069  0.07462301784662895  0.35807562143953464  1.0000
  C   C28       1.0  0.8340420135904564  0.42057557745059504  0.18600125975882142  1.0000
  C   C29       1.0  0.7621888372284649  0.39619548842418295  0.18667488488792583  1.0000
  C   C30       1.0  0.7258838048962385  0.3839970365773895  0.06984885514406192  1.0000
  C   C31       1.0  0.7623527643491099  0.39651278577636817  0.951366889519301  1.0000
  C   C32       1.0  0.8341613625514005  0.42087044071406554  0.9487463189832686  1.0000
  C   C33       1.0  0.86958669347099  0.4327560045354346  0.06659698740445386  1.0000
  C   C34       1.0  0.6499172751434722  0.35823436129853614  0.07153411463861525  1.0000
  C   C35       1.0  0.6059494744734185  0.4234708059842591  0.9788607913268441  1.0000
  C   C36       1.0  0.5344604783181915  0.3992705504193943  0.9805246710053801  1.0000
  C   C37       1.0  0.5057361655490408  0.3085587668945642  0.07399261227002984  1.0000
  C   C38       1.0  0.5492375284761952  0.24441859663704935  0.16758437012258032  1.0000
  C   C39       1.0  0.6207298266347405  0.2685892049609415  0.1660986426951332  1.0000
  C   C40       1.0  0.42871883210586886  0.2852722138632884  0.07791106443023721  1.0000
  O   O2        1.0  0.397487328737448  0.3728598345337628  0.15741058984047074  1.0000
  H   H21       1.0  0.9695799179993991  0.4674238348368043  0.39195805536418926  1.0000
  H   H22       1.0  0.7341693264229388  0.3884318252537149  0.2781511493044755  1.0000
  H   H23       1.0  0.7347789215669871  0.3854605754873297  0.8611887417877782  1.0000
  H   H24       1.0  0.924974437322748  0.4515474382326088  0.06529148333882517  1.0000
  H   H25       1.0  0.8617722660230642  0.4303251670507131  0.6202562959247966  1.0000
  H   H26       1.0  0.6267138058304198  0.4947266517360218  0.9062968920034997  1.0000
  H   H27       1.0  0.5014758897910102  0.4515505993200246  0.9090392724674015  1.0000
  H   H28       1.0  0.5278319522659545  0.1753691361937606  0.24158795714607217  1.0000
  H   H29       1.0  0.6532967405181221  0.21610865687041603  0.23810727230357243  1.0000
  H   H30       1.0  0.4177045706334669  0.1834853141718844  0.11673885206521617  1.0000
  H   H31       1.0  0.4067174395419337  0.29863742950925687  0.9777790387549228  1.0000
  H   H32       1.0  0.3469663057534134  0.35350633817867383  0.1567089082450217  1.0000
  Zn  Zn1       1.0  0.7579447937805904  0.4207245414190859  0.5673756928197131  1.0000
  Zn  Zn2       1.0  0.9102519125267516  0.42072085166451934  0.567371304851505  1.0000
  C   C41       1.0  0.8341380866540844  0.41564104232492394  0.8045716353546626  1.0000
  C   C42       1.0  0.8340602825938089  0.42580598938220127  0.33017548959306664  1.0000
  C   C43       1.0  0.8340584432880732  0.6579124021992764  0.5621778430887518  1.0000
  C   C44       1.0  0.8341398742544432  0.18353306923810164  0.5725693512361512  1.0000
  O   O3        1.0  0.8918661725751721  0.4275542974402595  0.3785600134574787  1.0000
  O   O4        1.0  0.8919297757562025  0.41388895396451764  0.7561834073599636  1.0000
  O   O5        1.0  0.8918646837738118  0.6095261415434963  0.5604487050333564  1.0000
  O   O6        1.0  0.8919312125687037  0.2319171191150895  0.5742946184091788  1.0000
  O   O7        1.0  0.7762654417636923  0.6095282739711858  0.5604523792567058  1.0000
  O   O8        1.0  0.7763305334765139  0.4138926466646242  0.756187012200805  1.0000
  O   O9        1.0  0.7762669301048332  0.4275579442809254  0.3785620568867569  1.0000
  O   O10       1.0  0.7763319701122778  0.23192075670461687  0.5742967592080301  1.0000
