data_image0
_chemical_formula_structural       NC10NC5H10C12OCH12C12NCOCH13Zn2C4O8
_chemical_formula_sum              "N3 C46 H35 O10 Zn2"
_cell_length_a       19.4436361288709
_cell_length_b       10.29979075500242
_cell_length_c       10.299158637457994
_cell_angle_alpha    85.5763692806703
_cell_angle_beta     89.6864852280966
_cell_angle_gamma    89.4004616021446

_space_group_name_H-M_alt    "P 1"
_space_group_IT_number       1

loop_
  _space_group_symop_operation_xyz
  'x, y, z'

loop_
  _atom_site_type_symbol
  _atom_site_label
  _atom_site_symmetry_multiplicity
  _atom_site_fract_x
  _atom_site_fract_y
  _atom_site_fract_z
  _atom_site_occupancy
  N   N1        1.0  0.6476580013462564  0.40879490912551875  0.5619920056196519  1.0000
  C   C1        1.0  0.5888188545426261  0.4186993188112933  0.5763756169122392  1.0000
  C   C2        1.0  0.5154855596620286  0.43105145491829777  0.594367481486584  1.0000
  C   C3        1.0  0.4733174687308039  0.3990378703980415  0.4996942247079692  1.0000
  C   C4        1.0  0.3974104744589534  0.40947705576050586  0.5050217791960807  1.0000
  C   C5        1.0  0.3576633652920664  0.38474830118333947  0.612097174442154  1.0000
  C   C6        1.0  0.2815436138712369  0.3886625987013934  0.5991373837698732  1.0000
  C   C7        1.0  0.24096061860501422  0.44634029909847484  0.6929061013584616  1.0000
  C   C8        1.0  0.1692977938394879  0.44997616160643616  0.6823618398409619  1.0000
  C   C9        1.0  0.1372232425150092  0.3955383651205566  0.5783354142263901  1.0000
  C   C10       1.0  0.0634311802515144  0.3992354430083045  0.5676358649564774  1.0000
  N   N2        1.0  0.004107367213061301  0.4022076996572381  0.5590341367080707  1.0000
  C   C11       1.0  0.1770814215864976  0.3371536457307498  0.48494997765364634  1.0000
  C   C12       1.0  0.2487607126451947  0.3334635148044174  0.4952424612234916  1.0000
  C   C13       1.0  0.3857881936384195  0.34431100410424254  0.7431960140981801  1.0000
  C   C14       1.0  0.4444392934253395  0.3874410434881137  0.7904367215703787  1.0000
  C   C15       1.0  0.488638764565576  0.48528554029425663  0.7160626142090449  1.0000
  H   H1        1.0  0.4954314906195627  0.3699049018801872  0.4093877733267255  1.0000
  H   H2        1.0  0.3727187775766541  0.4319550757615589  0.4118607976526034  1.0000
  H   H3        1.0  0.2648147642072653  0.4896453043986937  0.7737531133492137  1.0000
  H   H4        1.0  0.138937227624155  0.49530347662109997  0.75528115624465  1.0000
  H   H5        1.0  0.152755323235336  0.2940443562317998  0.40443744224534917  1.0000
  H   H6        1.0  0.2784559578520868  0.2858929457411974  0.42301961628946305  1.0000
  H   H7        1.0  0.3548261915275677  0.2801056671805542  0.8074475251677085  1.0000
  H   H8        1.0  0.4595838814680002  0.3533913641805926  0.8883745202530906  1.0000
  H   H9        1.0  0.4585174970926738  0.5759948466570255  0.6908051485876019  1.0000
  H   H10       1.0  0.5319124983870608  0.5108825857418675  0.7791470384211778  1.0000
  C   C16       1.0  0.8259477760507508  0.02413236254269191  0.560551506400099  1.0000
  C   C17       1.0  0.8060160941265122  0.013379992784882777  0.6921565849120226  1.0000
  C   C18       1.0  0.7958619845871393  0.8907963970665987  0.7588091802344545  1.0000
  C   C19       1.0  0.8058925387304923  0.7780999601639146  0.6920918242797978  1.0000
  C   C20       1.0  0.8258241902806887  0.7868601153926277  0.5604858134936941  1.0000
  C   C21       1.0  0.8357418038257213  0.9103197499783148  0.4954532172261281  1.0000
  C   C22       1.0  0.7747795842270492  0.8804750254362178  0.8980411852219072  1.0000
  C   C23       1.0  0.7245875000540893  0.7905519092072749  0.9435237900548878  1.0000
  C   C24       1.0  0.7048072643210077  0.7811101896071226  0.07442858118517715  1.0000
  C   C25       1.0  0.7347738834817277  0.8609318469219976  0.16152916180716237  1.0000
  C   C26       1.0  0.7851487553241013  0.951461316165873  0.11791676894946146  1.0000
  C   C27       1.0  0.804715858114958  0.9605456050894893  0.9864870402335029  1.0000
  O   O1        1.0  0.8169267207479929  0.03360292066308923  0.20152253477516002  1.0000
  C   C28       1.0  0.8021582452995335  0.03489955242157827  0.3369828491003325  1.0000
  H   H11       1.0  0.8335726971819847  0.35568040541539725  0.5104253647433137  1.0000
  H   H12       1.0  0.7974304447600556  0.10058216081898341  0.7426572095647168  1.0000
  H   H13       1.0  0.7990272747595467  0.6833441903200567  0.743517297837696  1.0000
  H   H14       1.0  0.8511187836514098  0.9178463427058239  0.3939254550524882  1.0000
  H   H15       1.0  0.8333848389512415  0.4627472975125215  0.5103225696116906  1.0000
  H   H16       1.0  0.6999981204718643  0.7287547890578288  0.8775174920986355  1.0000
  H   H17       1.0  0.6659569468554642  0.7118695536626155  0.10843017369366481  1.0000
  H   H18       1.0  0.7184573031013928  0.8515181103992762  0.2623323817499478  1.0000
  H   H19       1.0  0.8441208683314261  0.029350294581439673  0.9539937210498393  1.0000
  H   H20       1.0  0.8140307321860445  0.9381683119690173  0.3875075325048529  1.0000
  H   H21       1.0  0.8346072993706952  0.10895325714765924  0.378928418475143  1.0000
  H   H22       1.0  0.7472496990126898  0.060829833649500786  0.3518741443360074  1.0000
  C   C29       1.0  0.8259504782905022  0.40535709423320077  0.17914506800871033  1.0000
  C   C30       1.0  0.8275263722968443  0.5420308095212956  0.1678064975208744  1.0000
  C   C31       1.0  0.8282713679155498  0.6114671290137637  0.04490048900567589  1.0000
  C   C32       1.0  0.8273946487712726  0.5423931124220227  0.932496080523364  1.0000
  C   C33       1.0  0.8258214682980182  0.4056354383581746  0.94189232967733  1.0000
  C   C34       1.0  0.8251120770164485  0.3379582643726069  0.0656045348761185  1.0000
  C   C35       1.0  0.8299392946404297  0.756051133406006  0.0338792044899654  1.0000
  C   C36       1.0  0.8721431512253587  0.8231048972992931  0.11609044904491927  1.0000
  C   C37       1.0  0.8737183635726689  0.9591659672155619  0.10558793527598276  1.0000
  C   C38       1.0  0.8335571258180783  0.030893297712819567  0.011765432648750407  1.0000
  C   C39       1.0  0.7905341283492875  0.9642150585015736  0.9313440332101575  1.0000
  C   C40       1.0  0.7889871490132025  0.8281813761999548  0.9415853234042593  1.0000
  N   N3        1.0  0.8332717721621298  0.170944112361072  0.0005201802915937304  1.0000
  C   C41       1.0  0.8921869163506927  0.24884300273667526  0.023255962962640098  1.0000
  O   O2        1.0  0.951495508107993  0.19833446138976552  0.0312842721657729  1.0000
  C   C42       1.0  0.8840957115176618  0.39280723380664506  0.027913092191617306  1.0000
  H   H23       1.0  0.8253658705913358  0.3527842771614218  0.5109819619182947  1.0000
  H   H24       1.0  0.8272171498784646  0.5948536080776738  0.2547553014813271  1.0000
  H   H25       1.0  0.8288771682002193  0.595379154089777  0.8375075359334541  1.0000
  H   H26       1.0  0.8238989076263585  0.2325385910943656  0.07363532252392102  1.0000
  H   H27       1.0  0.8232697234918048  0.1474893889926947  0.7523315786052192  1.0000
  H   H28       1.0  0.9043423587408629  0.7702829728555822  0.18802036496331942  1.0000
  H   H29       1.0  0.905448304475173  0.007919022967481038  0.1723518433587079  1.0000
  H   H30       1.0  0.7583543625115431  0.017911628280856462  0.8599831700474634  1.0000
  H   H31       1.0  0.7550039296559389  0.7794231813151933  0.8785243590341412  1.0000
  H   H32       1.0  0.7886793041024964  0.2192230345956787  0.9659393274189898  1.0000
  H   H33       1.0  0.835729515358212  0.4154156574920731  0.07973033955114261  1.0000
  H   H34       1.0  0.8822389533144485  0.43950874373321414  0.9272056249182676  1.0000
  H   H35       1.0  0.9279689299779703  0.43276396891642666  0.0802002285468737  1.0000
  Zn  Zn1       1.0  0.7505215891642096  0.40689051413650223  0.5611459410758604  1.0000
  Zn  Zn2       1.0  0.9012437708226986  0.40410149086157476  0.559890883476319  1.0000
  C   C43       1.0  0.8258451559245  0.4004091556644154  0.7977171976460726  1.0000
  C   C44       1.0  0.8259218496568324  0.41058445754357287  0.32331974052790713  1.0000
  C   C45       1.0  0.8258448686529452  0.6426865358369307  0.5553230628896553  1.0000
  C   C46       1.0  0.825922085738591  0.1683055180455717  0.5657139450863626  1.0000
  O   O3        1.0  0.8831105249881759  0.4112747228844258  0.37122979034664416  1.0000
  O   O4        1.0  0.8830511292200681  0.397601106332663  0.748854214383019  1.0000
  O   O5        1.0  0.8830501259560414  0.5932431695983855  0.5531192418929529  1.0000
  O   O6        1.0  0.8831114768358963  0.21563266982509743  0.566964665888309  1.0000
  O   O7        1.0  0.7686538317169294  0.5953593361261478  0.5540721590853286  1.0000
  O   O8        1.0  0.7686548347366696  0.39971883313907863  0.7498070621948156  1.0000
  O   O9        1.0  0.7687142308219552  0.4133924038642849  0.37218107674202305  1.0000
  O   O10       1.0  0.7687151826518992  0.21775034155173034  0.5679160496535476  1.0000
