data_image0
_chemical_formula_structural       NC10NC3NH7C16H10C13NH13Zn2C4O8
_chemical_formula_sum              "N4 C46 H30 Zn2 O8"
_cell_length_a       19.210446455230148
_cell_length_b       10.29914801576943
_cell_length_c       10.299780419254978
_cell_angle_alpha    85.54946318164076
_cell_angle_beta     89.97732542180437
_cell_angle_gamma    89.9607823085547

_space_group_name_H-M_alt    "P 1"
_space_group_IT_number       1

loop_
  _space_group_symop_operation_xyz
  'x, y, z'

loop_
  _atom_site_type_symbol
  _atom_site_label
  _atom_site_symmetry_multiplicity
  _atom_site_fract_x
  _atom_site_fract_y
  _atom_site_fract_z
  _atom_site_occupancy
  N   N1        1.0  0.6558275772849712  0.4199992241309951  0.566852429271218  1.0000
  C   C1        1.0  0.5955991070544174  0.42220693684795196  0.5670827464835748  1.0000
  C   C2        1.0  0.5207947655945484  0.42494409629874763  0.5673680799980783  1.0000
  C   C3        1.0  0.4851876747398781  0.5411855688536014  0.5824359821563787  1.0000
  C   C4        1.0  0.4125222074572131  0.5413371060357486  0.5823833307152828  1.0000
  C   C5        1.0  0.3756280345342762  0.4256531288997025  0.5674542957322981  1.0000
  C   C6        1.0  0.2983058603829102  0.4242965302162607  0.5673042147541765  1.0000
  C   C7        1.0  0.260562851185601  0.5278616900388613  0.5039066816495068  1.0000
  C   C8        1.0  0.1877844445742912  0.5264593412715368  0.5037981336259363  1.0000
  C   C9        1.0  0.1517476528977247  0.42174935006313063  0.5670360283499183  1.0000
  C   C10       1.0  0.0768180890018928  0.4204471518678179  0.5668996898308867  1.0000
  N   N2        1.0  0.0165802014300965  0.41940014031386874  0.5667901085523961  1.0000
  C   C11       1.0  0.1887670127940758  0.3183098864479452  0.6304085073378145  1.0000
  C   C12       1.0  0.2615472509167406  0.31943795828114885  0.6305674010218205  1.0000
  C   C13       1.0  0.4138450386598429  0.3112320940336786  0.5526738685893011  1.0000
  N   N3        1.0  0.48461507727169717  0.3136772691769465  0.5528385147847805  1.0000
  H   H1        1.0  0.5132913553917496  0.6306276797484422  0.5944506187454666  1.0000
  H   H2        1.0  0.3852559538747181  0.6313613953641659  0.5957924131253578  1.0000
  H   H3        1.0  0.2872987528669713  0.6091106219277083  0.4528880674667819  1.0000
  H   H4        1.0  0.1596464839972359  0.6068807720960967  0.45411016240290936  1.0000
  H   H5        1.0  0.1613916095617575  0.2369249732022003  0.6799973565973367  1.0000
  H   H6        1.0  0.2890401997520646  0.2391360031295222  0.6816929911300915  1.0000
  H   H7        1.0  0.3875770653266373  0.2203448156588963  0.5392188621382412  1.0000
  C   C14       1.0  0.8361576256777982  0.038298436898033916  0.5669868210588551  1.0000
  C   C15       1.0  0.8202805176044092  0.04789517312757008  0.4335209880126072  1.0000
  C   C16       1.0  0.8122816603301386  0.9356310415239338  0.36568637158685746  1.0000
  C   C17       1.0  0.8203734899392625  0.8126431174481641  0.43311639802966084  1.0000
  C   C18       1.0  0.8362567922345191  0.8010909468404117  0.5666669794688244  1.0000
  C   C19       1.0  0.8440523076838437  0.914434769891747  0.6327798749773812  1.0000
  C   C20       1.0  0.7954857665952517  0.9468288364578408  0.22449561621489833  1.0000
  C   C21       1.0  0.8284301333142868  0.8657708760514318  0.13927568367670995  1.0000
  C   C22       1.0  0.8125980983657543  0.876435071828707  0.006392391441390366  1.0000
  C   C23       1.0  0.7636591855384717  0.9680574226079383  0.9569248776260948  1.0000
  C   C24       1.0  0.7305880516132413  0.049095635405428384  0.04086094316571831  1.0000
  C   C25       1.0  0.7463704533924829  0.03867279221207931  0.17376518970507338  1.0000
  C   C26       1.0  0.7473857804732439  0.9789124724980918  0.8201090754493432  1.0000
  C   C27       1.0  0.7337569790992138  0.9880034730548295  0.7055278204029407  1.0000
  C   C28       1.0  0.7177978136573226  0.9986489120486544  0.5713543391450826  1.0000
  C   C29       1.0  0.7041712996832157  0.007738535572049399  0.4567915907177076  1.0000
  H   H8        1.0  0.8422288410082432  0.3620817833277403  0.6183375971290734  1.0000
  H   H9        1.0  0.8150357433762583  0.14294814546229784  0.38161391454860816  1.0000
  H   H10       1.0  0.8133319335856242  0.7257505955158162  0.3817041964714327  1.0000
  H   H11       1.0  0.8562966925698372  0.9063166737477344  0.7357263538529633  1.0000
  H   H12       1.0  0.8658045964311938  0.5719810207831886  0.8189150058931318  1.0000
  H   H13       1.0  0.8670942538729111  0.7953096363084129  0.17511724675570628  1.0000
  H   H14       1.0  0.838648961525686  0.8134552172760271  0.9422156363554595  1.0000
  H   H15       1.0  0.692477766331411  0.12012001542662176  0.003649447213741386  1.0000
  H   H16       1.0  0.7195082306561215  0.1012640157946052  0.2371393301145055  1.0000
  H   H17       1.0  0.692206123427893  0.015719992763187918  0.3561958376158305  1.0000
  C   C30       1.0  0.8362546011757688  0.4196097381899395  0.18547275979239108  1.0000
  C   C31       1.0  0.8866656536457462  0.5185635947154044  0.1767609540435262  1.0000
  C   C32       1.0  0.912155672864234  0.5687996797127535  0.05520266227895165  1.0000
  C   C33       1.0  0.8865700724284267  0.5187360007143893  0.9414607224627183  1.0000
  C   C34       1.0  0.8361598465845349  0.41977962325672147  0.9481809757728659  1.0000
  C   C35       1.0  0.8112824800965529  0.3707740491545539  0.07064106749629029  1.0000
  C   C36       1.0  0.9654885845759116  0.6734817838068909  0.04707789703743681  1.0000
  C   C37       1.0  0.9607965897635438  0.7780761168667747  0.9512085556988592  1.0000
  C   C38       1.0  0.011017295427686813  0.8765177040278407  0.9436470492231539  1.0000
  C   C39       1.0  0.06650471850636874  0.8727221542130115  0.03231348879764817  1.0000
  C   C40       1.0  0.07186397775824527  0.7678478520448981  0.12712605928009535  1.0000
  C   C41       1.0  0.021657661626483637  0.6693815399114562  0.13486034429836202  1.0000
  C   C42       1.0  0.12148651064130056  0.9768574697924002  0.02180484819609596  1.0000
  N   N4        1.0  0.17484452537586392  0.9441141671516766  0.9289314439325391  1.0000
  H   H18       1.0  0.8170739133523787  0.38185677181839406  0.5162491991751581  1.0000
  H   H19       1.0  0.905539839124114  0.5580414662761712  0.26461100678986793  1.0000
  H   H20       1.0  0.9067541820596748  0.5558606281643743  0.8476341569338355  1.0000
  H   H21       1.0  0.7723928803385908  0.2944346077101567  0.07659326527078658  1.0000
  H   H22       1.0  0.8169380345761548  0.3820957258606015  0.6232863834846722  1.0000
  H   H23       1.0  0.9178671923464448  0.7844943558362332  0.8829116061007705  1.0000
  H   H24       1.0  0.006544280617712728  0.9559319624404321  0.8687752643739008  1.0000
  H   H25       1.0  0.11505193994317264  0.7620814982914978  0.19489616630142592  1.0000
  H   H26       1.0  0.0273437592639878  0.5889480228932198  0.2082664585702092  1.0000
  H   H27       1.0  0.09744664768129652  0.07193194695752103  0.9884886174967744  1.0000
  H   H28       1.0  0.14549336435972382  0.9881289032250109  0.11865264210226356  1.0000
  H   H29       1.0  0.2099813248142628  0.02175387251019467  0.9189532808166274  1.0000
  H   H30       1.0  0.2027605973197657  0.8637576383492067  0.9697327665660236  1.0000
  Zn  Zn1       1.0  0.7599329897058412  0.4198228788057008  0.566841945087136  1.0000
  Zn  Zn2       1.0  0.9124747703716439  0.4195659045636857  0.5668112325393444  1.0000
  C   C43       1.0  0.8361755121928071  0.41457342546561193  0.8040149916795425  1.0000
  C   C44       1.0  0.8362339138334023  0.42481699388455274  0.3296383123858706  1.0000
  C   C45       1.0  0.8362351135459604  0.6569057891783705  0.5615524438200052  1.0000
  C   C46       1.0  0.8361742602169193  0.18248306984001883  0.5721009301461846  1.0000
  O   O1        1.0  0.894115781020135  0.42646140985707004  0.37800993592907095  1.0000
  O   O2        1.0  0.8940693268739414  0.41273299210052095  0.7556196846025407  1.0000
  O   O3        1.0  0.8941166751837183  0.6084194421250544  0.5598294613340271  1.0000
  O   O4        1.0  0.8940683806714889  0.23077496918954132  0.5738000618332761  1.0000
  O   O5        1.0  0.7783393273509738  0.6086138142689506  0.5598531157968538  1.0000
  O   O6        1.0  0.7782919792495044  0.41292892466529696  0.7556432691682393  1.0000
  O   O7        1.0  0.7783384336301291  0.4266572968141207  0.37803195917359855  1.0000
  O   O8        1.0  0.7782910332653299  0.2309708468786924  0.5738221824457612  1.0000
