data_image0
_chemical_formula_structural       NC12NC2H8C16H10C12SCH12Zn2C4O8
_chemical_formula_sum              "N2 C47 H30 S1 Zn2 O8"
_cell_length_a       19.240039667572717
_cell_length_b       10.29914801576943
_cell_length_c       10.299780138516091
_cell_angle_alpha    85.5534209466543
_cell_angle_beta     89.99202709574732
_cell_angle_gamma    90.01219802926651

_space_group_name_H-M_alt    "P 1"
_space_group_IT_number       1

loop_
  _space_group_symop_operation_xyz
  'x, y, z'

loop_
  _atom_site_type_symbol
  _atom_site_label
  _atom_site_symmetry_multiplicity
  _atom_site_fract_x
  _atom_site_fract_y
  _atom_site_fract_z
  _atom_site_occupancy
  N   N1        1.0  0.6547458099955858  0.4209888552139829  0.5669733033973554  1.0000
  C   C1        1.0  0.5945974411939793  0.4209889391791555  0.5669732214320946  1.0000
  C   C2        1.0  0.5197794040764097  0.4209890564359353  0.5669730840888849  1.0000
  C   C3        1.0  0.4832906418503577  0.35654752691204505  0.6704049811671224  1.0000
  C   C4        1.0  0.41061987466609473  0.35643666073770053  0.6704915616831479  1.0000
  C   C5        1.0  0.3734471691665824  0.4209891489446207  0.5669728563821768  1.0000
  C   C6        1.0  0.41065014206111666  0.4855418242085494  0.46345434554212583  1.0000
  C   C7        1.0  0.4833208114046088  0.4854307225494785  0.4635410486426914  1.0000
  C   C8        1.0  0.2962420787250916  0.4209890702498995  0.5669727610007402  1.0000
  C   C9        1.0  0.2590382404547895  0.3077305579084777  0.6088844563455924  1.0000
  C   C10       1.0  0.1863675710568266  0.3078374413773035  0.608793094563574  1.0000
  C   C11       1.0  0.1499097917826338  0.4209889410833212  0.5669728219571546  1.0000
  C   C12       1.0  0.0750917545962011  0.42098882740098875  0.5669730706498339  1.0000
  N   N2        1.0  0.014943437723930598  0.42098878663275596  0.5669732790752837  1.0000
  C   C13       1.0  0.186399523377636  0.5341405166084296  0.5251524964336698  1.0000
  C   C14       1.0  0.2590702386143275  0.5342475801675353  0.5250609719962394  1.0000
  H   H1        1.0  0.5109938066180707  0.306655683972737  0.7511615083872953  1.0000
  H   H2        1.0  0.38351487463811657  0.3073432843079009  0.7523632439465822  1.0000
  H   H3        1.0  0.3835686113078365  0.5346352276787276  0.38158261242231006  1.0000
  H   H4        1.0  0.511047418068014  0.5353224652955466  0.38278479724350056  1.0000
  H   H5        1.0  0.2861190308507265  0.21857644471458015  0.6400843841369164  1.0000
  H   H6        1.0  0.1586402698950588  0.21958287492142237  0.6410256028176935  1.0000
  H   H7        1.0  0.1586970010877334  0.6223950585294875  0.49292000273861025  1.0000
  H   H8        1.0  0.2861759270479601  0.623401772532103  0.4938609994054499  1.0000
  C   C15       1.0  0.8347984571123517  0.03958750479640338  0.5671388160765214  1.0000
  C   C16       1.0  0.8189389857904082  0.04914862742484871  0.4336709591341954  1.0000
  C   C17       1.0  0.8109489836301823  0.936866512531231  0.36583532626507465  1.0000
  C   C18       1.0  0.819031794526705  0.8138966980782101  0.43326638736763434  1.0000
  C   C19       1.0  0.8348974548517076  0.8023801572306505  0.5668189933171115  1.0000
  C   C20       1.0  0.8426843404347206  0.9157415066013175  0.6329328794150322  1.0000
  C   C21       1.0  0.7941717471870045  0.9480266328554937  0.22464242988480154  1.0000
  C   C22       1.0  0.8270611004547588  0.8670174680024169  0.1394286402344591  1.0000
  C   C23       1.0  0.8112466625459053  0.8776461653961187  0.006543328755844513  1.0000
  C   C24       1.0  0.7623805184538146  0.9691838273512355  0.9570676344443618  1.0000
  C   C25       1.0  0.729364527697739  0.050172945120320556  0.04099754210789763  1.0000
  C   C26       1.0  0.7451294098554228  0.039785519349923915  0.17390379921234222  1.0000
  C   C27       1.0  0.7461251894110019  0.9800023734240819  0.8202497579544734  1.0000
  C   C28       1.0  0.732511526536628  0.9890628024621985  0.7056667656904638  1.0000
  C   C29       1.0  0.7165700880896332  0.9996724425559769  0.5714912501722971  1.0000
  C   C30       1.0  0.7029587100375705  0.008731499641548623  0.4569267648227675  1.0000
  H   H9        1.0  0.8408629443830028  0.3633844912751665  0.6184903643696982  1.0000
  H   H10       1.0  0.8136996399872052  0.14418929341036035  0.3817632590607771  1.0000
  H   H11       1.0  0.8119984558190123  0.7269889206448417  0.3818532464532516  1.0000
  H   H12       1.0  0.8549151248173716  0.9076508768204564  0.7358809190176212  1.0000
  H   H13       1.0  0.8644126329929264  0.5733367770263067  0.8190707655424994  1.0000
  H   H14       1.0  0.8656675653913546  0.7966229119694984  0.175276683690458  1.0000
  H   H15       1.0  0.8372541869519955  0.8147051186516068  0.9423714139464274  1.0000
  H   H16       1.0  0.6913109763838818  0.12113146609169134  0.0037796687118503147  1.0000
  H   H17       1.0  0.7183117331981781  0.10233653227947737  0.23727296362663552  1.0000
  H   H18       1.0  0.691006824318065  0.01668611700925804  0.35632948656575714  1.0000
  C   C31       1.0  0.8348758810682058  0.4208725241574618  0.18562681880740017  1.0000
  C   C32       1.0  0.7687843821304318  0.362856071257625  0.18914557451195102  1.0000
  C   C33       1.0  0.7352678126884628  0.33357294887501077  0.07378159145153851  1.0000
  C   C34       1.0  0.7687275104185282  0.363081529337401  0.9538415834908678  1.0000
  C   C35       1.0  0.8348200452869768  0.42109515851509194  0.9483309906730959  1.0000
  C   C36       1.0  0.8675241002658206  0.44966657573281643  0.06474674363945176  1.0000
  C   C37       1.0  0.6653475981548483  0.2722114335330723  0.07856694284936672  1.0000
  C   C38       1.0  0.6138790037539847  0.31387595028354665  0.9875930062069251  1.0000
  C   C39       1.0  0.5480853290897902  0.2560923907119075  0.9923334998360827  1.0000
  C   C40       1.0  0.5328007038619331  0.15627412900162962  0.08793808656219704  1.0000
  C   C41       1.0  0.5836506331199288  0.11381061176393037  0.17850670788029954  1.0000
  C   C42       1.0  0.6494872838638442  0.17142072678528963  0.17412869489120775  1.0000
  S   S1        1.0  0.4484068659248599  0.08199666517743553  0.09357062995952048  1.0000
  C   C43       1.0  0.4127795965243337  0.1962215984090634  0.2022516987297991  1.0000
  H   H19       1.0  0.8600698967952659  0.442931922628516  0.5117430411675079  1.0000
  H   H20       1.0  0.7428072062621144  0.34193198461779817  0.2817036991417461  1.0000
  H   H21       1.0  0.7435208946136533  0.33907809716977844  0.8647794433743154  1.0000
  H   H22       1.0  0.9185110398565939  0.4944230159080023  0.06126380165880163  1.0000
  H   H23       1.0  0.8599889383229192  0.44325941423676585  0.6187733351158808  1.0000
  H   H24       1.0  0.6242241671847082  0.39225040212067896  0.9138818860331512  1.0000
  H   H25       1.0  0.5089289732533043  0.28942849594785125  0.9219882242370079  1.0000
  H   H26       1.0  0.5722432809480064  0.03613219378322219  0.25234240094061433  1.0000
  H   H27       1.0  0.6882694309596461  0.13603345946695944  0.24437401550761662  1.0000
  H   H28       1.0  0.4421685392364959  0.19019097870183388  0.2952683328425134  1.0000
  H   H29       1.0  0.3576207594081747  0.17109072481301424  0.22303459279996107  1.0000
  H   H30       1.0  0.41547923698563133  0.29695214026761807  0.15561816771547643  1.0000
  Zn  Zn1       1.0  0.7586910728341643  0.4209853701118167  0.5669807859276346  1.0000
  Zn  Zn2       1.0  0.9109981915053681  0.42098168044805906  0.5669763994191239  1.0000
  C   C44       1.0  0.8348283704675948  0.4158789516185841  0.804165717855684  1.0000
  C   C45       1.0  0.8348625572643041  0.42608973769704406  0.3297915942168399  1.0000
  C   C46       1.0  0.8348755494063181  0.658194609081088  0.5617044813723127  1.0000
  C   C47       1.0  0.8348153261462045  0.18377251982082932  0.5722529005915931  1.0000
  O   O1        1.0  0.8926578427190676  0.42783361578968515  0.37817294752454433  1.0000
  O   O2        1.0  0.8926306638376402  0.4141312932416441  0.7557806618708387  1.0000
  O   O3        1.0  0.8926679821600702  0.6098042515553845  0.5599914974132112  1.0000
  O   O4        1.0  0.8926204724328702  0.23216066673979352  0.5739620146094062  1.0000
  O   O5        1.0  0.7770687399317181  0.6098063838227539  0.5599951707320177  1.0000
  O   O6        1.0  0.7770314218137208  0.414134985925394  0.755784265292929  1.0000
  O   O7        1.0  0.7770586008498153  0.42783726275788325  0.37817498963388196  1.0000
  O   O8        1.0  0.7770212305524414  0.23216430444681313  0.573964154086176  1.0000
