data_image0
_chemical_formula_structural       NC8NC6H8C12NCOCH13C12NCOH11Zn2C4O8
_chemical_formula_sum              "N4 C45 H32 O10 Zn2"
_cell_length_a       17.457602349358154
_cell_length_b       10.299155265289647
_cell_length_c       10.299148425239203
_cell_angle_alpha    85.52041506248938
_cell_angle_beta     92.86184502014838
_cell_angle_gamma    91.66712233072684

_space_group_name_H-M_alt    "P 1"
_space_group_IT_number       1

loop_
  _space_group_symop_operation_xyz
  'x, y, z'

loop_
  _atom_site_type_symbol
  _atom_site_label
  _atom_site_symmetry_multiplicity
  _atom_site_fract_x
  _atom_site_fract_y
  _atom_site_fract_z
  _atom_site_occupancy
  N   N1        1.0  0.7223062627552262  0.4534917827687437  0.6259654141237316  1.0000
  C   C1        1.0  0.66124025200094  0.40756827705874343  0.6153635111023312  1.0000
  C   C2        1.0  0.5852715488630732  0.350445146691291  0.602184284480314  1.0000
  C   C3        1.0  0.5267225737477557  0.3905781176650909  0.677073838432644  1.0000
  C   C4        1.0  0.4521913845881464  0.3355731190200206  0.6645084199108846  1.0000
  C   C5        1.0  0.3900503406733654  0.37794752599605297  0.7438193381326492  1.0000
  C   C6        1.0  0.315507958980744  0.39644029816185755  0.6880466453165284  1.0000
  C   C7        1.0  0.2569590060201674  0.43638928770810637  0.76304421738918  1.0000
  C   C8        1.0  0.1809786678603082  0.45548887357878853  0.7050557390411001  1.0000
  N   N2        1.0  0.11990339389746031  0.47083856048080097  0.6584331555151772  1.0000
  C   C9        1.0  0.272460140542872  0.4580884487066488  0.8943229540160651  1.0000
  C   C10       1.0  0.3462176722364928  0.43998452447640224  0.9504831458576724  1.0000
  C   C11       1.0  0.4047549106240617  0.40021540885276674  0.8759432660341755  1.0000
  C   C12       1.0  0.43749818520834743  0.23975828796477527  0.5756206545433373  1.0000
  C   C13       1.0  0.49603531909361404  0.19990384652254178  0.5011310403036888  1.0000
  C   C14       1.0  0.5697816342010247  0.2550209978683524  0.5142464064440537  1.0000
  H   H1        1.0  0.5390396472145015  0.4657490940185507  0.743684893909353  1.0000
  H   H2        1.0  0.30318174631802747  0.381511723559371  0.5860207188919666  1.0000
  H   H3        1.0  0.2275833352736817  0.48894848869864593  0.9531526175542671  1.0000
  H   H4        1.0  0.35802988037650985  0.456471007630189  0.05213529869624589  1.0000
  H   H5        1.0  0.4612369219633018  0.3852034636651165  0.9220572236139428  1.0000
  H   H6        1.0  0.3810253254690886  0.19442450042114134  0.5649824467610303  1.0000
  H   H7        1.0  0.4842319857834841  0.1258498981252849  0.4333212396610515  1.0000
  H   H8        1.0  0.6146586014809281  0.22329099502004968  0.455928172599138  1.0000
  C   C15       1.0  0.9211941643346008  0.08077151722224851  0.6423252940511397  1.0000
  C   C16       1.0  0.9081093583418764  0.0899685741918772  0.5063226044103759  1.0000
  C   C17       1.0  0.9014008020304353  0.9774908108764286  0.43724257798806754  1.0000
  C   C18       1.0  0.9079259665966741  0.8547009581879422  0.5059998233160516  1.0000
  C   C19       1.0  0.9210228505263724  0.8435491533288224  0.642085095247628  1.0000
  C   C20       1.0  0.9275797332554779  0.9570987192332334  0.7094103115646562  1.0000
  C   C21       1.0  0.8875596043217417  0.9881938972595239  0.2933682319212332  1.0000
  C   C22       1.0  0.9264794817895459  0.0840437739840949  0.2151233979583036  1.0000
  C   C23       1.0  0.9134603154987708  0.09398548162452824  0.07972856758200009  1.0000
  C   C24       1.0  0.8617380096242128  0.007414596633128712  0.019750649891931316  1.0000
  C   C25       1.0  0.8218810250149016  0.9133401547426762  0.09785079578231226  1.0000
  C   C26       1.0  0.8349281391941583  0.9031436657894792  0.23321057042458393  1.0000
  N   N3        1.0  0.846250443427384  0.01704904528304252  0.8809157060903461  1.0000
  C   C27       1.0  0.9022831219824236  0.05647958228008676  0.7872670501831398  1.0000
  O   O1        1.0  0.9726599499854722  0.06207035838973485  0.8208742887371963  1.0000
  C   C28       1.0  0.8778292256973136  0.0819290741041816  0.6467210188200809  1.0000
  H   H9        1.0  0.9262509547369523  0.4047111644549546  0.694633995931127  1.0000
  H   H10       1.0  0.9020473467110289  0.18477523247250582  0.45401448804266886  1.0000
  H   H11       1.0  0.9038069823598787  0.7677486217515949  0.4530315086753254  1.0000
  H   H12       1.0  0.937674900314223  0.949290084799855  0.8143117936372679  1.0000
  H   H13       1.0  0.9462019432601121  0.6152374971804007  0.8988456157542508  1.0000
  H   H14       1.0  0.9674400343905101  0.15085905381126707  0.25856322585392455  1.0000
  H   H15       1.0  0.9429011153506056  0.17075553412896283  0.022548292623585153  1.0000
  H   H16       1.0  0.7808469780401786  0.8472261545222872  0.053537872587578805  1.0000
  H   H17       1.0  0.8030220239396144  0.8298819836665925  0.29102253095509245  1.0000
  H   H18       1.0  0.7922196304077527  0.9858387775666377  0.8454280399314973  1.0000
  H   H19       1.0  0.8224501866120276  0.13296085217105813  0.6377448353160862  1.0000
  H   H20       1.0  0.8707368699586134  0.9880327391132947  0.6009147733245208  1.0000
  H   H21       1.0  0.9215120334291484  0.14395402310039507  0.5948891690573856  1.0000
  C   C29       1.0  0.9211661633981701  0.46231868466891957  0.2608136514810002  1.0000
  C   C30       1.0  0.9989964430827265  0.5012759061161036  0.2631892877433606  1.0000
  C   C31       1.0  0.03833620917453362  0.5208084984356196  0.14725176413272734  1.0000
  C   C32       1.0  0.9988347886225079  0.5009286773775805  0.0279190329379857  1.0000
  C   C33       1.0  0.9210508156550634  0.46200195204864847  0.023596713479181908  1.0000
  C   C34       1.0  0.8826728410623744  0.44291622045193946  0.14058704200103733  1.0000
  C   C35       1.0  0.12062495283110097  0.5619942746677831  0.15085378649512715  1.0000
  C   C36       1.0  0.17218980519549731  0.5068687543940107  0.07148353965917909  1.0000
  C   C37       1.0  0.24958631888639848  0.545761497047643  0.07501908304176297  1.0000
  C   C38       1.0  0.27723047505301013  0.6392474544314044  0.15875812378833465  1.0000
  C   C39       1.0  0.22558907065017975  0.6962159885686379  0.23655317522237373  1.0000
  C   C40       1.0  0.14815786239661222  0.6574284087695188  0.23311160829423438  1.0000
  N   N4        1.0  0.3568977131922968  0.6789329328182179  0.15871760580236294  1.0000
  C   C41       1.0  0.4010186866803256  0.7175336648608583  0.2710397426202553  1.0000
  O   O2        1.0  0.3750632841603885  0.7022376534921768  0.3832846030729422  1.0000
  H   H22       1.0  0.7743875769466136  0.3880302398573936  0.4636928331941035  1.0000
  H   H23       1.0  0.029432166802011883  0.5148001143173231  0.3555974535512374  1.0000
  H   H24       1.0  0.02859783558993989  0.5176200408956873  0.9381120183151248  1.0000
  H   H25       1.0  0.8226770164484224  0.41288756774546687  0.13796829891322826  1.0000
  H   H26       1.0  0.8911352689210297  0.4469934864218592  0.6944612906628795  1.0000
  H   H27       1.0  0.15286396682782177  0.43251031346510005  0.007754349148891837  1.0000
  H   H28       1.0  0.2883608872791663  0.501911841326248  0.013244001768083491  1.0000
  H   H29       1.0  0.24447906318565527  0.7727201137343562  0.29783952404981506  1.0000
  H   H30       1.0  0.10947322124079673  0.7039484407146079  0.29300066826077864  1.0000
  H   H31       1.0  0.38640629733815857  0.6712803751803171  0.07394685073528118  1.0000
  H   H32       1.0  0.4586153547184253  0.757089088300698  0.2599082247703284  1.0000
  Zn  Zn1       1.0  0.8370442059128802  0.458494202061942  0.635342402957777  1.0000
  Zn  Zn2       1.0  0.005165437274012641  0.4658254882578694  0.6490668031926874  1.0000
  C   C42       1.0  0.9210720762181648  0.4568877292040554  0.8794159014646719  1.0000
  C   C43       1.0  0.9211394024599703  0.4674336798467149  0.4049935815138266  1.0000
  C   C44       1.0  0.9210520448935804  0.6993698913555149  0.6369547076496407  1.0000
  C   C45       1.0  0.9211593767565673  0.22494995476048696  0.6474548403797629  1.0000
  O   O3        1.0  0.9849315536477931  0.4719268377474737  0.45859002328076337  1.0000
  O   O4        1.0  0.9848800498495657  0.45795786826042195  0.8362355883553216  1.0000
  O   O5        1.0  0.9848630140276691  0.6537652427372689  0.640446388259371  1.0000
  O   O6        1.0  0.9849485321139394  0.2761194701002194  0.6543791213101326  1.0000
  O   O7        1.0  0.8572610537014287  0.6482002177192008  0.6300300801500354  1.0000
  O   O8        1.0  0.8572780891797882  0.45239440367673045  0.825819210504785  1.0000
  O   O9        1.0  0.857329593275316  0.46636332855547646  0.4481720839552841  1.0000
  O   O10       1.0  0.857346571725688  0.27055595157823764  0.643961279360939  1.0000
