data_image0
_chemical_formula_structural       NC10NC5H10C12SCH12C12ClH9Zn2C4O8
_chemical_formula_sum              "N2 C44 H31 S1 Cl1 Zn2 O8"
_cell_length_a       19.4436361288709
_cell_length_b       10.299776766347529
_cell_length_c       10.299771906710086
_cell_angle_alpha    85.54586025256013
_cell_angle_beta     89.71369758328774
_cell_angle_gamma    89.39962546058797

_space_group_name_H-M_alt    "P 1"
_space_group_IT_number       1

loop_
  _space_group_symop_operation_xyz
  'x, y, z'

loop_
  _atom_site_type_symbol
  _atom_site_label
  _atom_site_symmetry_multiplicity
  _atom_site_fract_x
  _atom_site_fract_y
  _atom_site_fract_z
  _atom_site_occupancy
  N   N1        1.0  0.6472800459283229  0.4097132671194441  0.5621593570099741  1.0000
  C   C1        1.0  0.5884444884404891  0.41960832895741174  0.57654384709076  1.0000
  C   C2        1.0  0.5151156835804098  0.43194877247715313  0.5945368069815269  1.0000
  C   C3        1.0  0.4729237033773489  0.39999649169945206  0.4998612954701782  1.0000
  C   C4        1.0  0.397017984614599  0.41043216899325907  0.5051898957293564  1.0000
  C   C5        1.0  0.3572983796566878  0.3856344913433616  0.6122613585982841  1.0000
  C   C6        1.0  0.2811752919449664  0.3895571246940137  0.5993021418846196  1.0000
  C   C7        1.0  0.24061575081063674  0.44717393172288644  0.6930758553914287  1.0000
  C   C8        1.0  0.1689502079995223  0.4508165733313998  0.6825321088471066  1.0000
  C   C9        1.0  0.136849560731139  0.39644626709001285  0.5785011566812197  1.0000
  C   C10       1.0  0.0630547403316787  0.40015022386389787  0.5678021307844747  1.0000
  N   N2        1.0  0.0037287099343624006  0.4031280106808808  0.5592008232988359  1.0000
  C   C11       1.0  0.1766843890506322  0.3381221985312277  0.485110644316991  1.0000
  C   C12       1.0  0.2483663343768773  0.33442545132960966  0.4954026102013105  1.0000
  C   C13       1.0  0.3854569640030192  0.3451128762052964  0.7433543027296103  1.0000
  C   C14       1.0  0.4441197678816571  0.3882121424824301  0.7905990241481466  1.0000
  C   C15       1.0  0.48829949206241036  0.48610396831095937  0.7162362297894194  1.0000
  H   H1        1.0  0.4950149267021923  0.3709219898087872  0.40955284271434333  1.0000
  H   H2        1.0  0.37230235001659406  0.4329701490353044  0.41203243797171063  1.0000
  H   H3        1.0  0.2644901696529022  0.4904264783815697  0.77392649139686  1.0000
  H   H4        1.0  0.1386078771303175  0.49609653136905885  0.7554553607773125  1.0000
  H   H5        1.0  0.1523381012010847  0.2950651505325228  0.40459450164840915  1.0000
  H   H6        1.0  0.278043539728477  0.28690180499333695  0.4231755826329968  1.0000
  H   H7        1.0  0.3545118593163392  0.280866514708376  0.8075982024417896  1.0000
  H   H8        1.0  0.4592896040487097  0.35409949903733917  0.8885320099628624  1.0000
  H   H9        1.0  0.4581710605831644  0.5768289595250782  0.6909887210170191  1.0000
  H   H10       1.0  0.5315891102433791  0.5116601359251578  0.779322610151548  1.0000
  C   C16       1.0  0.8255725177413396  0.025054247141034214  0.5606779542928444  1.0000
  C   C17       1.0  0.8297172439006606  0.01337707489705231  0.6971567667541547  1.0000
  C   C18       1.0  0.8317511904096806  0.8903227596201121  0.76631757551897  1.0000
  C   C19       1.0  0.8295857297333448  0.778091723863223  0.6971730485614522  1.0000
  C   C20       1.0  0.8254428404353018  0.7877769148744186  0.5606934714760274  1.0000
  C   C21       1.0  0.8234590383668846  0.9116963861507206  0.4932099020897234  1.0000
  C   C22       1.0  0.836128263364266  0.8790336751152078  0.9106968229854846  1.0000
  C   C23       1.0  0.796770960264663  0.7862792950153497  0.9850658044514502  1.0000
  C   C24       1.0  0.8009109543484451  0.7758890205698604  0.12094007015561181  1.0000
  C   C25       1.0  0.844236921339346  0.8579772092042779  0.1842534397056097  1.0000
  C   C26       1.0  0.8837584761435718  0.9501543774478018  0.11125615294678148  1.0000
  C   C27       1.0  0.8797193342862104  0.9608926804144384  0.9753706352286218  1.0000
  S   S1        1.0  0.849624949041116  0.8441831187002575  0.358598186838356  1.0000
  C   C28       1.0  0.7805125077603031  0.9615162106042603  0.3787004299463932  1.0000
  H   H11       1.0  0.824020247758255  0.35695676189589753  0.5086731068745383  1.0000
  H   H12       1.0  0.8304248059038126  0.1001800180322876  0.7501089611544698  1.0000
  H   H13       1.0  0.8320866243267079  0.6830167840330803  0.7499142230993909  1.0000
  H   H14       1.0  0.8202620286203716  0.9199363310536759  0.3879222974305565  1.0000
  H   H15       1.0  0.8238298739342342  0.4640142754922408  0.5086937935729996  1.0000
  H   H16       1.0  0.7621437348070599  0.7229683429074193  0.938239313603324  1.0000
  H   H17       1.0  0.770165226704993  0.7043789119761971  0.17691647515066422  1.0000
  H   H18       1.0  0.9176538249870628  0.013534274557700732  0.15967764488012204  1.0000
  H   H19       1.0  0.9113332573009869  0.0320173969877835  0.9208000599613881  1.0000
  H   H20       1.0  0.7942769848004364  0.0576055182988664  0.32970877257096554  1.0000
  H   H21       1.0  0.7725518149056801  0.9723127451533872  0.48404525439569746  1.0000
  H   H22       1.0  0.7321112965996552  0.9268898747306068  0.33698027687554555  1.0000
  C   C29       1.0  0.8254749136450116  0.40652250612020935  0.1793167078689324  1.0000
  C   C30       1.0  0.8878479708605861  0.4742525801654174  0.17247262886635184  1.0000
  C   C31       1.0  0.9194864644436802  0.5084631805277378  0.05187406091092894  1.0000
  C   C32       1.0  0.8879143546436657  0.47403619329682556  0.9372022975462011  1.0000
  C   C33       1.0  0.8255404126750381  0.40630869546650783  0.9420547279798788  1.0000
  C   C34       1.0  0.7946703001675635  0.372930289678975  0.06357706213166181  1.0000
  C   C35       1.0  0.9854724150657159  0.5801145469388613  0.04568733965698524  1.0000
  C   C36       1.0  0.9963252270780647  0.6829183464905637  0.12540131176046998  1.0000
  C   C37       1.0  0.05846375813909477  0.7502571377931699  0.11939059573672317  1.0000
  C   C38       1.0  0.1104545245870896  0.7158260877708482  0.03397037828147531  1.0000
  C   C39       1.0  0.10025817708966067  0.6138696202115983  0.954379769013117  1.0000
  C   C40       1.0  0.038181328825386274  0.5463293691203337  0.9600143380578774  1.0000
  Cl  Cl1       1.0  0.18837544566819497  0.8004360768821519  0.026665664702374414  1.0000
  H   H23       1.0  0.8016894999528847  0.3807715967796099  0.5093737347492513  1.0000
  H   H24       1.0  0.9124515728364503  0.4989973485235246  0.2612497030503875  1.0000
  H   H25       1.0  0.9116114624402462  0.5017392634320512  0.8438965798932578  1.0000
  H   H26       1.0  0.7465519394544459  0.3206807828978697  0.06808875503913847  1.0000
  H   H27       1.0  0.8017861871128783  0.3804552414026172  0.6164537415381428  1.0000
  H   H28       1.0  0.9564477620470004  0.7123079687584148  0.19110676964494933  1.0000
  H   H29       1.0  0.0660553459733344  0.8293902058575049  0.1809627027561973  1.0000
  H   H30       1.0  0.14044915203563946  0.5866213357385892  0.8883281745276506  1.0000
  H   H31       1.0  0.03173142431289944  0.4666349353138075  0.8986522800125178  1.0000
  Zn  Zn1       1.0  0.7501434331479578  0.40780943090860045  0.5613131001590643  1.0000
  Zn  Zn2       1.0  0.9008653169510592  0.40502123628596887  0.5600577611162934  1.0000
  C   C41       1.0  0.8255273837921294  0.401175469399512  0.7978807912848784  1.0000
  C   C42       1.0  0.8254830119174764  0.4116568059207961  0.32349018378198324  1.0000
  C   C43       1.0  0.8254633491339997  0.643607617776671  0.5555153771136874  1.0000
  C   C44       1.0  0.8255469954160343  0.16922309818364045  0.5658556675884792  1.0000
  O   O1        1.0  0.8826839001447171  0.41231615280478673  0.3713997245997904  1.0000
  O   O2        1.0  0.8827209180389383  0.398398967700329  0.7490181033141594  1.0000
  O   O3        1.0  0.8826684382999654  0.5941660073730306  0.5533063230449606  1.0000
  O   O4        1.0  0.8827363284425779  0.21654912340096577  0.5671114079228521  1.0000
  O   O5        1.0  0.7682723702224564  0.5962815447464933  0.5542594537740599  1.0000
  O   O6        1.0  0.7683248496870188  0.4005160653866786  0.7499711648295075  1.0000
  O   O7        1.0  0.7682878317121357  0.4144332056723874  0.37235122471282867  1.0000
  O   O8        1.0  0.768340260017126  0.21866616695257557  0.5680630054035816  1.0000
