data_image0
_chemical_formula_structural       NC10NC5H10C12ClH9C13NH13Zn2C4O8
_chemical_formula_sum              "N3 C44 H32 Cl1 Zn2 O8"
_cell_length_a       19.4436361288709
_cell_length_b       10.299768534541528
_cell_length_c       10.299780419254978
_cell_angle_alpha    85.5745780732884
_cell_angle_beta     89.69141269769756
_cell_angle_gamma    89.43641405984484

_space_group_name_H-M_alt    "P 1"
_space_group_IT_number       1

loop_
  _space_group_symop_operation_xyz
  'x, y, z'

loop_
  _atom_site_type_symbol
  _atom_site_label
  _atom_site_symmetry_multiplicity
  _atom_site_fract_x
  _atom_site_fract_y
  _atom_site_fract_z
  _atom_site_occupancy
  N   N1        1.0  0.6480594275242141  0.40897898998636184  0.5622118048995706  1.0000
  C   C1        1.0  0.5892242358206605  0.418881263027979  0.5765957357208822  1.0000
  C   C2        1.0  0.5158958759611624  0.431230726949152  0.5945879961103577  1.0000
  C   C3        1.0  0.4737127725551983  0.3992307974617022  0.49991611774681655  1.0000
  C   C4        1.0  0.3978094921368378  0.40966910808553014  0.5052445010841571  1.0000
  C   C5        1.0  0.3580591217975603  0.38492565978526194  0.6123119428614929  1.0000
  C   C6        1.0  0.281940071095752  0.38884172440648745  0.5993532115072671  1.0000
  C   C7        1.0  0.2413805709482146  0.4465055805503382  0.6931232890759231  1.0000
  C   C8        1.0  0.16971846614489342  0.45014287524401264  0.682579936775149  1.0000
  C   C9        1.0  0.1376210213981679  0.3957203199334878  0.5785530045060099  1.0000
  C   C10       1.0  0.0638296922472949  0.39941885100466945  0.5678543786478527  1.0000
  N   N2        1.0  0.004506468599771201  0.4023922759161105  0.5592533927666439  1.0000
  C   C11       1.0  0.1774554882387214  0.33734939981371537  0.4851661145794255  1.0000
  C   C12       1.0  0.24913402966400902  0.3336578726364232  0.4954576958377608  1.0000
  C   C13       1.0  0.386176582460893  0.3444704973705097  0.7433999784011729  1.0000
  C   C14       1.0  0.4448441931893959  0.3875933887922012  0.7906428477119689  1.0000
  C   C15       1.0  0.4890727238647407  0.4854470987886761  0.7162827298953829  1.0000
  H   H1        1.0  0.49581294076275645  0.3701108368552508  0.40961112853232495  1.0000
  H   H2        1.0  0.3731209524245738  0.43215990051365627  0.4120905404882278  1.0000
  H   H3        1.0  0.2652528400210684  0.4897987284749412  0.7739707994675009  1.0000
  H   H4        1.0  0.1393763284372594  0.4954594184269685  0.7555003605304231  1.0000
  H   H5        1.0  0.1531113468958257  0.294251918430781  0.40465308456964033  1.0000
  H   H6        1.0  0.2788101334679263  0.2860980054636313  0.4232334732963574  1.0000
  H   H7        1.0  0.355196226046664  0.2802569510449411  0.8076415365119505  1.0000
  H   H8        1.0  0.4599820014145876  0.35353041041003985  0.8885721720944322  1.0000
  H   H9        1.0  0.458980417755104  0.5761588263705617  0.6910360470700285  1.0000
  H   H10       1.0  0.5323578777732701  0.5110349928606028  0.7793666831924777  1.0000
  C   C16       1.0  0.826221367746282  0.02432138029067521  0.5607310122409976  1.0000
  C   C17       1.0  0.8307680719052352  0.033773888548439324  0.42422995308529843  1.0000
  C   C18       1.0  0.8331380437531329  0.9214229621938125  0.35507062060161876  1.0000
  C   C19       1.0  0.8308994315120758  0.7984837470424986  0.42424435217233825  1.0000
  C   C20       1.0  0.826351109350529  0.7870397396326625  0.5607453627096612  1.0000
  C   C21       1.0  0.8240380548355501  0.9005150270883107  0.6282242819536057  1.0000
  C   C22       1.0  0.8379489922125435  0.9324765788407875  0.21066387170942336  1.0000
  C   C23       1.0  0.7988298903632268  0.02672361274929025  0.13652779876527887  1.0000
  C   C24       1.0  0.803419372391474  0.03693066616207852  0.0006155386785118289  1.0000
  C   C25       1.0  0.8470617451969127  0.9534136822873841  0.9371481127005783  1.0000
  C   C26       1.0  0.886169761926371  0.8594787746007433  0.00977311917472301  1.0000
  C   C27       1.0  0.8817024188335745  0.8488772160984546  0.14569900821884496  1.0000
  Cl  Cl1       1.0  0.8527432977401558  0.9664674067087267  0.7666229600050172  1.0000
  H   H11       1.0  0.8244535599089303  0.3481739110499429  0.6127416751254753  1.0000
  H   H12       1.0  0.8334262664952441  0.1287258643954161  0.3714774666150067  1.0000
  H   H13       1.0  0.8317627393089309  0.711622689069399  0.3712932160402649  1.0000
  H   H14       1.0  0.8205297853135616  0.8924546762482684  0.7335285713440265  1.0000
  H   H15       1.0  0.8246453700245436  0.45522478626324486  0.6127633111117139  1.0000
  H   H16       1.0  0.7640487623583452  0.09135223798559133  0.18355801586177667  1.0000
  H   H17       1.0  0.7728889500635456  0.10959675495970034  0.9447594735094844  1.0000
  H   H18       1.0  0.9201840559913055  0.7948173432809404  0.961059857892756  1.0000
  H   H19       1.0  0.9131057935686983  0.7764879858356609  0.20005358442484011  1.0000
  C   C28       1.0  0.8263330545235461  0.405594843063257  0.17938366577466813  1.0000
  C   C29       1.0  0.8761465735795366  0.5037025835048452  0.1703106735411477  1.0000
  C   C30       1.0  0.9013344622853718  0.5535108163640576  0.04856983835602713  1.0000
  C   C31       1.0  0.8760521402905084  0.5038765595645704  0.9350112849268624  1.0000
  C   C32       1.0  0.8262394378899827  0.4057662847100929  0.9420927169789532  1.0000
  C   C33       1.0  0.8016569411671396  0.3571782771244634  0.06473097483178081  1.0000
  C   C34       1.0  0.9540352068367345  0.6572977635874264  0.04006294885654116  1.0000
  C   C35       1.0  0.9494035633742  0.7619600359451832  0.9442772141172613  1.0000
  C   C36       1.0  0.9990289860781331  0.8595587150387154  0.9363558240648215  1.0000
  C   C37       1.0  0.05385401368020437  0.8548425547469116  0.02457519554264609  1.0000
  C   C38       1.0  0.059144946188559366  0.7498892647360678  0.11929868027597168  1.0000
  C   C39       1.0  0.009533740250246892  0.6522656241842293  0.12739272250474132  1.0000
  C   C40       1.0  0.10818393665661419  0.9580553975613544  0.013670954840822924  1.0000
  N   N3        1.0  0.16090376552475116  0.9244295783798779  0.9203548598989046  1.0000
  H   H20       1.0  0.8073797153949714  0.36816382154876437  0.5102974864789263  1.0000
  H   H21       1.0  0.8947971402254103  0.5428634335982081  0.2580265629534726  1.0000
  H   H22       1.0  0.8959968993268095  0.5406626472271996  0.8410390075477832  1.0000
  H   H23       1.0  0.7632283084198326  0.28149157196372077  0.07096180921234763  1.0000
  H   H24       1.0  0.8072454682643324  0.36840500818112387  0.6173358664575077  1.0000
  H   H25       1.0  0.9069867916464411  0.7690902001672004  0.876327680620895  1.0000
  H   H26       1.0  0.9946126612154432  0.939039670550377  0.861554827553574  1.0000
  H   H27       1.0  0.10181722386524639  0.7434066321781807  0.18671958202506045  1.0000
  H   H28       1.0  0.015148627485944255  0.5717453723594343  0.20071786323450835  1.0000
  H   H29       1.0  0.08443494397451601  0.05351985124435776  0.9805894555883694  1.0000
  H   H30       1.0  0.13190473975714534  0.9689272982798767  0.11033099533301871  1.0000
  H   H31       1.0  0.19562444140654578  0.0014787122756092508  0.9101287552791422  1.0000
  H   H32       1.0  0.18848331747998226  0.843617338008575  0.9608968014683446  1.0000
  Zn  Zn1       1.0  0.7509223436529884  0.40707473694892804  0.5613655828538853  1.0000
  Zn  Zn2       1.0  0.9016435408705715  0.4042859238031282  0.5601102953894681  1.0000
  C   C41       1.0  0.8262546998691656  0.40056032155215227  0.7979243202838988  1.0000
  C   C42       1.0  0.8263128307882501  0.4108019473741027  0.3235516717443303  1.0000
  C   C43       1.0  0.8263236748031794  0.6428686716645329  0.5555677399145389  1.0000
  C   C44       1.0  0.8262438041497299  0.16849203794565426  0.5659083217486036  1.0000
  O   O1        1.0  0.8835039514081885  0.4114854934222314  0.37145939638104863  1.0000
  O   O2        1.0  0.8834574803655157  0.39775915106068593  0.7490634876566229  1.0000
  O   O3        1.0  0.8835124072760864  0.5934262227542861  0.5533588407426939  1.0000
  O   O4        1.0  0.8834489730802173  0.2158184319484795  0.5671639463524989  1.0000
  O   O5        1.0  0.7691168600095961  0.5955422297566741  0.5543119323123915  1.0000
  O   O6        1.0  0.7690619333697853  0.3998767183322385  0.7500165100129452  1.0000
  O   O7        1.0  0.7691084046421933  0.41360301508650044  0.37241085739428414  1.0000
  O   O8        1.0  0.769053426297876  0.2179359443459976  0.5681155047297506  1.0000
