data_image0
_chemical_formula_structural       NC9NC5H8C16H10C13NH13Zn2C4O8
_chemical_formula_sum              "N3 C47 H31 Zn2 O8"
_cell_length_a       17.807436237873137
_cell_length_b       10.29914801576943
_cell_length_c       10.299780419254978
_cell_angle_alpha    85.54946318164076
_cell_angle_beta     89.37921623596309
_cell_angle_gamma    88.40369483635645

_space_group_name_H-M_alt    "P 1"
_space_group_IT_number       1

loop_
  _space_group_symop_operation_xyz
  'x, y, z'

loop_
  _atom_site_type_symbol
  _atom_site_label
  _atom_site_symmetry_multiplicity
  _atom_site_fract_x
  _atom_site_fract_y
  _atom_site_fract_z
  _atom_site_occupancy
  N   N1        1.0  0.7078001162155707  0.38754078150089777  0.5565966112506184  1.0000
  C   C1        1.0  0.6472091402488405  0.3523459017801043  0.5455878971819113  1.0000
  C   C2        1.0  0.5718406256606547  0.3085673472665458  0.5318942521709833  1.0000
  C   C3        1.0  0.5537533504435358  0.23712344029453192  0.4269251930892253  1.0000
  C   C4        1.0  0.48057440740051893  0.19450631419094488  0.4135469675757071  1.0000
  C   C5        1.0  0.4244339725389162  0.2229555292155727  0.5051055095609955  1.0000
  C   C6        1.0  0.3466636253391111  0.17777944374886556  0.4909699435248118  1.0000
  C   C7        1.0  0.2844952351065276  0.2595476563830994  0.5168735219716543  1.0000
  C   C8        1.0  0.2111739569065945  0.21672747965470096  0.5035090625586149  1.0000
  C   C9        1.0  0.1479558050786965  0.30118733180279844  0.5297753981200835  1.0000
  N   N2        1.0  0.09714139858109322  0.3690872099034037  0.5508928079090618  1.0000
  C   C10       1.0  0.1994374913494085  0.09188108490282065  0.4642157844380843  1.0000
  C   C11       1.0  0.2607485109489404  0.01009901704180094  0.43830382242163735  1.0000
  C   C12       1.0  0.3339503291542254  0.052524577387337734  0.4514659167022357  1.0000
  C   C13       1.0  0.4432126919789174  0.2948938892863082  0.6102935824158349  1.0000
  C   C14       1.0  0.5164445006513861  0.3373205717506189  0.623516242823535  1.0000
  H   H1        1.0  0.5961547827560741  0.21462053055661  0.3552244420968236  1.0000
  H   H2        1.0  0.4676655052862859  0.14080146960683093  0.3306520458932718  1.0000
  H   H3        1.0  0.2930024669025502  0.357026429397729  0.5457084969007824  1.0000
  H   H4        1.0  0.1429691246775014  0.05784007291818272  0.4536356089366389  1.0000
  H   H5        1.0  0.2515432111412649  0.9134401390532186  0.40826813340207146  1.0000
  H   H6        1.0  0.3805845166190011  0.9867702732106571  0.4324458754747573  1.0000
  H   H7        1.0  0.401527890038187  0.31685799662425174  0.6832890129250009  1.0000
  H   H8        1.0  0.5298820636811575  0.3922458635281285  0.7053690606699734  1.0000
  C   C15       1.0  0.9024208269487228  0.9969150378724273  0.5539110054900904  1.0000
  C   C16       1.0  0.8852855015541509  0.007297569361847778  0.4206934583298496  1.0000
  C   C17       1.0  0.876652756752905  0.8954293199366008  0.35298392786787924  1.0000
  C   C18       1.0  0.8853858416918534  0.7720409122638654  0.42028741444746287  1.0000
  C   C19       1.0  0.9025278521834078  0.7597026398296828  0.5535896131355071  1.0000
  C   C20       1.0  0.9109411408771138  0.8726606445657353  0.6195806025355162  1.0000
  C   C21       1.0  0.8585258344500759  0.90745838298441  0.2120558263330028  1.0000
  C   C22       1.0  0.8940809519840393  0.824769928719293  0.12632071047289073  1.0000
  C   C23       1.0  0.8769942716359951  0.8362176889819503  0.9936849992709895  1.0000
  C   C24       1.0  0.8241770840300477  0.9302621411631379  0.9449827911571713  1.0000
  C   C25       1.0  0.7884851533360636  0.012937121825237208  0.029436022401652773  1.0000
  C   C26       1.0  0.8055182672221147  0.0017331706082861498  0.16209346407005998  1.0000
  C   C27       1.0  0.8066140561926467  0.9419225999793579  0.8084214721505467  1.0000
  C   C28       1.0  0.7919052096443628  0.9516881218322988  0.6940533440167234  1.0000
  C   C29       1.0  0.774681324059622  0.9631234172973389  0.5601294318562955  1.0000
  C   C30       1.0  0.7599749461814389  0.972887448908158  0.44577977457118667  1.0000
  H   H9        1.0  0.9089731694626634  0.32039790563773507  0.6051668400211763  1.0000
  H   H10       1.0  0.879625093335915  0.10261011785544483  0.368868402536205  1.0000
  H   H11       1.0  0.8777862612867771  0.6854968934455178  0.3689853286011173  1.0000
  H   H12       1.0  0.9241558597231447  0.8639365451395669  0.7223356039747806  1.0000
  H   H13       1.0  0.9344172389196319  0.5291303237471215  0.8053755716120106  1.0000
  H   H14       1.0  0.9358090981807272  0.7523951111054096  0.16155764483832025  1.0000
  H   H15       1.0  0.9051095943378087  0.7719485162050481  0.9291008613284935  1.0000
  H   H16       1.0  0.7473547323446829  0.08584766911246366  0.9928204942986976  1.0000
  H   H17       1.0  0.776527286920072  0.06565386850053012  0.22588767536024634  1.0000
  H   H18       1.0  0.7470615624851977  0.9814610906924636  0.3453711326468656  1.0000
  C   C31       1.0  0.9025254874892538  0.37822153961983895  0.17239542772280525  1.0000
  C   C32       1.0  0.9569314777718113  0.47468043510494407  0.1628952949833311  1.0000
  C   C33       1.0  0.9844415111861933  0.5236549593581286  0.0409383908280907  1.0000
  C   C34       1.0  0.9568283220048535  0.4748575716422083  0.927596558099613  1.0000
  C   C35       1.0  0.9024232238562345  0.3783961143132393  0.9351051254736071  1.0000
  C   C36       1.0  0.8755743942229546  0.3306217793368815  0.057954248937033714  1.0000
  C   C37       1.0  0.04200091005123552  0.6256974927555652  0.03197960662188404  1.0000
  C   C38       1.0  0.03693708750320379  0.7305240436265217  0.9361836386006481  1.0000
  C   C39       1.0  0.09113764651699885  0.8264800904564067  0.9278367817737263  1.0000
  C   C40       1.0  0.15102229587282845  0.819938338131845  0.015635510179558887  1.0000
  C   C41       1.0  0.15680626173930068  0.7147987936729352  0.11036427267723026  1.0000
  C   C42       1.0  0.10262123258890976  0.6188173096990186  0.11888368302350472  1.0000
  C   C43       1.0  0.21036124441773696  0.9213524760610052  0.004267065455532348  1.0000
  N   N3        1.0  0.2679477356514621  0.8859683603161914  0.9105592496667323  1.0000
  H   H19       1.0  0.8818247826992951  0.34141787040639504  0.5034718143030368  1.0000
  H   H20       1.0  0.9773013907455348  0.5132241790264376  0.25045019360950915  1.0000
  H   H21       1.0  0.978611967032177  0.5109832402389876  0.8334543538838934  1.0000
  H   H22       1.0  0.8336029002180573  0.25620707525695585  0.06451460146412957  1.0000
  H   H23       1.0  0.8816781359022807  0.3416635494074416  0.6105111234820293  1.0000
  H   H24       1.0  0.9906056529412747  0.7390669590070822  0.8685580180269752  1.0000
  H   H25       1.0  0.08631015753667826  0.9061157288469401  0.8530349458370892  1.0000
  H   H26       1.0  0.2034167516185983  0.7068949665325608  0.17745900724368102  1.0000
  H   H27       1.0  0.10875793788773214  0.5381023743928843  0.1922008782186957  1.0000
  H   H28       1.0  0.18441628817277644  0.017616742341052927  0.9713267696334511  1.0000
  H   H29       1.0  0.2362705755291472  0.9314357540833564  0.1007394406822919  1.0000
  H   H30       1.0  0.3058690301918645  0.9618690631864373  0.9000316180116084  1.0000
  H   H31       1.0  0.29807607982383644  0.8042301997387971  0.9509240213474635  1.0000
  Zn  Zn1       1.0  0.8201555973851947  0.38221201551873807  0.5549581287911853  1.0000
  Zn  Zn2       1.0  0.9847858962969319  0.37440539132615025  0.5525419710482962  1.0000
  C   C44       1.0  0.9024401309210484  0.37318914119449054  0.7909388964018278  1.0000
  C   C45       1.0  0.9025031607316756  0.38342981917947205  0.31656130382451475  1.0000
  C   C46       1.0  0.9025044555181674  0.6155185550967055  0.5484754164975691  1.0000
  C   C47       1.0  0.9024387797295008  0.14109884753211577  0.5590248544468428  1.0000
  O   O1        1.0  0.964972007331796  0.38220952599599256  0.364027771931865  1.0000
  O   O2        1.0  0.9649218718217727  0.3684834073639256  0.741638247054307  1.0000
  O   O3        1.0  0.9649729723553938  0.5641675140097271  0.5458472833539099  1.0000
  O   O4        1.0  0.964920850635368  0.1865254312827216  0.559818639081737  1.0000
  O   O5        1.0  0.8400205868665183  0.5700919782275966  0.5476814615754289  1.0000
  O   O6        1.0  0.8399694865577124  0.37440943199236587  0.7434723553754412  1.0000
  O   O7        1.0  0.8400196223207449  0.38813550500510474  0.36586031892816173  1.0000
  O   O8        1.0  0.8399684656068835  0.1924514010247329  0.5616512834462442  1.0000
