data_image0
_chemical_formula_structural       NC11NC3H8C12ClH9C16H10Zn2C4O8
_chemical_formula_sum              "N2 C46 H27 Cl1 Zn2 O8"
_cell_length_a       17.807433833752565
_cell_length_b       10.299768534541528
_cell_length_c       10.299151387937775
_cell_angle_alpha    85.58714147101236
_cell_angle_beta     88.51281441211556
_cell_angle_gamma    90.7030232555817

_space_group_name_H-M_alt    "P 1"
_space_group_IT_number       1

loop_
  _space_group_symop_operation_xyz
  'x, y, z'

loop_
  _atom_site_type_symbol
  _atom_site_label
  _atom_site_symmetry_multiplicity
  _atom_site_fract_x
  _atom_site_fract_y
  _atom_site_fract_z
  _atom_site_occupancy
  N   N1        1.0  0.7078455677249673  0.43782515177335335  0.5346851358879012  1.0000
  C   C1        1.0  0.6570121344915861  0.4031277912893012  0.6012468714432464  1.0000
  C   C2        1.0  0.5937702194139867  0.3599671335831658  0.6840411762251943  1.0000
  C   C3        1.0  0.6054716937793818  0.2964710556903163  0.8067584754251234  1.0000
  C   C4        1.0  0.5441377416190502  0.2549891618366755  0.8872688846309997  1.0000
  C   C5        1.0  0.4709478370079759  0.2766903598618393  0.8457027849124794  1.0000
  C   C6        1.0  0.4582696499231451  0.340340786792636  0.7225252907290258  1.0000
  C   C7        1.0  0.3805120869434666  0.36337087827599657  0.6781785630449724  1.0000
  C   C8        1.0  0.3617399785451648  0.34644208938943977  0.5485972594546566  1.0000
  C   C9        1.0  0.288520129176271  0.3681045404382892  0.5069870870545297  1.0000
  C   C10       1.0  0.2331294661443049  0.4070139466645084  0.5941379489929666  1.0000
  C   C11       1.0  0.1577731713466796  0.4293342623222194  0.5511664936687917  1.0000
  N   N2        1.0  0.0971920831103099  0.44727813786613013  0.5166205710412997  1.0000
  C   C12       1.0  0.2512101101127439  0.4241530785790175  0.7231881217781437  1.0000
  C   C13       1.0  0.3243771624648398  0.4024558095480557  0.7650537236140986  1.0000
  C   C14       1.0  0.5204609112685904  0.3818181229314357  0.6420312972999394  1.0000
  H   H1        1.0  0.6619304820281136  0.27907131222488446  0.8401237041968475  1.0000
  H   H2        1.0  0.553315954895966  0.20557871997314092  0.982004141221777  1.0000
  H   H3        1.0  0.4242949910873743  0.24216235902135508  0.9091412286000882  1.0000
  H   H4        1.0  0.4034201906264416  0.31477046549562093  0.47987967135145837  1.0000
  H   H5        1.0  0.27508734268626284  0.3541801693691773  0.40695181744036146  1.0000
  H   H6        1.0  0.20881294505664602  0.45460146131225  0.7913909082604909  1.0000
  H   H7        1.0  0.33728182463288653  0.4179254962479886  0.8649062774614027  1.0000
  H   H8        1.0  0.5119814024894835  0.43259100785764604  0.5475303923187966  1.0000
  C   C15       1.0  0.9024515585572853  0.06118461487219706  0.5256538287960695  1.0000
  C   C16       1.0  0.9074151849150575  0.07081163990485928  0.38895418584060404  1.0000
  C   C17       1.0  0.9100025175344765  0.9585521195682406  0.3196914274863083  1.0000
  C   C18       1.0  0.9075586691050369  0.8355274128375862  0.3889630185681856  1.0000
  C   C19       1.0  0.9025932754044821  0.8239088158310033  0.5256626814736474  1.0000
  C   C20       1.0  0.9000680798725811  0.937294888185169  0.5932425418672203  1.0000
  C   C21       1.0  0.9152546193299037  0.9697904015656249  0.17507455473252787  1.0000
  C   C22       1.0  0.8725233992898708  0.06226071014066337  0.10259313566527695  1.0000
  C   C23       1.0  0.8775337636337942  0.07264433514330282  0.9664805042969502  1.0000
  C   C24       1.0  0.9252029919161999  0.9910772958667058  0.9011607861174782  1.0000
  C   C25       1.0  0.9679220734555558  0.898918281604644  0.972131543232138  1.0000
  C   C26       1.0  0.9630451215606496  0.8881456508454163  0.10825262793443002  1.0000
  Cl  Cl1       1.0  0.9314055305428385  0.004349106311345441  0.7303874854975447  1.0000
  H   H9        1.0  0.900521625589686  0.3849690574366922  0.5777416573245255  1.0000
  H   H10       1.0  0.9103176711529719  0.16587160839576387  0.33608676735719656  1.0000
  H   H11       1.0  0.9085005992114724  0.7486935326889054  0.33597300861568224  1.0000
  H   H12       1.0  0.8962381097748898  0.9290998743423858  0.6987000590380863  1.0000
  H   H13       1.0  0.9007311399246912  0.49202856899468683  0.5777551653891548  1.0000
  H   H14       1.0  0.8345329664748071  0.12533452924546928  0.15109939805872652  1.0000
  H   H15       1.0  0.8441843112079194  0.14392422388612758  0.9119158968588921  1.0000
  H   H16       1.0  0.005074861023884436  0.8357767774283632  0.9219746621545561  1.0000
  H   H17       1.0  0.9973480685442784  0.8171815730835026  0.16127868609090967  1.0000
  C   C27       1.0  0.9025659219812804  0.44237904646769866  0.1442852777411494  1.0000
  C   C28       1.0  0.8300894422685736  0.49457186836736766  0.14274061601395882  1.0000
  C   C29       1.0  0.7932975931718721  0.521207559810877  0.024803566471994554  1.0000
  C   C30       1.0  0.8299588215152967  0.49494628729574286  0.9074343499022013  1.0000
  C   C31       1.0  0.9024788936547776  0.4427143798468034  0.9070312990874516  1.0000
  C   C32       1.0  0.9383367305482686  0.4167542738070711  0.025904044232808676  1.0000
  C   C33       1.0  0.7166262552633269  0.5764215553547198  0.024214909013313468  1.0000
  C   C34       1.0  0.6975626071583162  0.6757699915238815  0.9297966557086483  1.0000
  C   C35       1.0  0.6253871548042722  0.7276978914861292  0.9293714571991649  1.0000
  C   C36       1.0  0.5713285550256904  0.6810628112417123  0.023106715463384164  1.0000
  C   C37       1.0  0.5897114148402202  0.5822561791916476  0.11739447396826286  1.0000
  C   C38       1.0  0.6618652974627112  0.5302401636120766  0.11807023642889591  1.0000
  C   C39       1.0  0.4970342873282776  0.7345689759860585  0.02254049163412164  1.0000
  C   C40       1.0  0.43481388646139124  0.7793795783286808  0.02206620205029597  1.0000
  C   C41       1.0  0.361954444058522  0.8318523945453329  0.021510812425151515  1.0000
  C   C42       1.0  0.2997440981747596  0.8766559931354927  0.02103670600701224  1.0000
  H   H18       1.0  0.9304274938055587  0.4222404991504589  0.4723606053102849  1.0000
  H   H19       1.0  0.8024895972432567  0.5162959133443998  0.233325482524243  1.0000
  H   H20       1.0  0.8014556171921979  0.5136330588261775  0.8163843199244996  1.0000
  H   H21       1.0  0.9942387922071959  0.3764930330462932  0.026380049401800276  1.0000
  H   H22       1.0  0.03916783900249432  0.3433664773220122  0.6990451892850844  1.0000
  H   H23       1.0  0.7387555067992125  0.7144717292001943  0.8573397713759685  1.0000
  H   H24       1.0  0.6118149976021602  0.8044167768685602  0.8561502977850153  1.0000
  H   H25       1.0  0.5482274111359823  0.545188553583428  0.19019630633281248  1.0000
  H   H26       1.0  0.6745494888370268  0.452738090517806  0.1909395623119472  1.0000
  H   H27       1.0  0.2451182781355421  0.9159971894796659  0.020620408805567036  1.0000
  Zn  Zn1       1.0  0.8202025600168833  0.4405496080325788  0.5294795772477432  1.0000
  Zn  Zn2       1.0  0.9848350728770554  0.4445430667199186  0.5218367156845245  1.0000
  C   C43       1.0  0.9024927141168808  0.43747733860368165  0.7628559691995791  1.0000
  C   C44       1.0  0.9025467168488802  0.44761701842515245  0.2884603677598119  1.0000
  C   C45       1.0  0.9025632050701291  0.6797353720316577  0.5204859977122038  1.0000
  C   C46       1.0  0.9024761694202706  0.20535742336972262  0.5308304110763293  1.0000
  O   O1        1.0  0.965017451019237  0.4508847607086408  0.33394641882755205  1.0000
  O   O2        1.0  0.9649742477309782  0.43723955917928214  0.7115687891876645  1.0000
  O   O3        1.0  0.9650303276908674  0.6328659651075139  0.5158533615193022  1.0000
  O   O4        1.0  0.9649613148942585  0.25525836266507396  0.5296617517283027  1.0000
  O   O5        1.0  0.8400762618186844  0.6298343107260629  0.5216545438052673  1.0000
  O   O6        1.0  0.840020182153161  0.4342094650639241  0.7173699022457898  1.0000
  O   O7        1.0  0.8400633856611119  0.44785462065218407  0.33974597046541644  1.0000
  O   O8        1.0  0.840007249520227  0.2522282133625917  0.5354614007350811  1.0000
