data_image0
_chemical_formula_structural       NC11NC3H8C12OCH12C12BrH9Zn2C4O8
_chemical_formula_sum              "N2 C43 H29 O9 Br1 Zn2"
_cell_length_a       17.807433833752565
_cell_length_b       10.29979075500242
_cell_length_c       10.299148005577397
_cell_angle_alpha    85.5479051999474
_cell_angle_beta     88.49799670841169
_cell_angle_gamma    90.66694566819858

_space_group_name_H-M_alt    "P 1"
_space_group_IT_number       1

loop_
  _space_group_symop_operation_xyz
  'x, y, z'

loop_
  _atom_site_type_symbol
  _atom_site_label
  _atom_site_symmetry_multiplicity
  _atom_site_fract_x
  _atom_site_fract_y
  _atom_site_fract_z
  _atom_site_occupancy
  N   N1        1.0  0.7075499279595632  0.43867521472644455  0.534477771421418  1.0000
  C   C1        1.0  0.656718816754148  0.4039391604107603  0.6010461444388993  1.0000
  C   C2        1.0  0.5934797905523027  0.3607303725200639  0.6838487055192959  1.0000
  C   C3        1.0  0.6051853739456411  0.29716295506909307  0.8065781988697927  1.0000
  C   C4        1.0  0.5438540538628962  0.25563425743761403  0.8870965922627552  1.0000
  C   C5        1.0  0.4706626870202545  0.27735961868240366  0.8455263445672241  1.0000
  C   C6        1.0  0.45798040588802075  0.34108165291605896  0.7223366181162467  1.0000
  C   C7        1.0  0.3802213274254668  0.3641375243749889  0.6779854761324906  1.0000
  C   C8        1.0  0.361475346837094  0.34728428429269775  0.5483989272588672  1.0000
  C   C9        1.0  0.2882540560916202  0.3689709243425574  0.5067846080954514  1.0000
  C   C10       1.0  0.23283583495698382  0.407829447891793  0.593936496700955  1.0000
  C   C11       1.0  0.1574780700674989  0.4301747440297812  0.550960763570042  1.0000
  N   N2        1.0  0.0968957999965214  0.44813870206184925  0.5164114019003401  1.0000
  C   C12       1.0  0.2508903567222224  0.42489333993377265  0.7229918678508154  1.0000
  C   C13       1.0  0.3240588236865787  0.4031717331585214  0.7648616329857332  1.0000
  C   C14       1.0  0.520169034277524  0.3826057832794083  0.6418346417736012  1.0000
  H   H1        1.0  0.6616453287226455  0.2797438156653862  0.8399467554290045  1.0000
  H   H2        1.0  0.5530355817200542  0.2061687439117741  0.9818412981797917  1.0000
  H   H3        1.0  0.4240125834064555  0.24279474345383556  0.9089712468224822  1.0000
  H   H4        1.0  0.40317764808586837  0.3156527834703524  0.47968061977673493  1.0000
  H   H5        1.0  0.2748417503598138  0.3551048783086075  0.40674536692612717  1.0000
  H   H6        1.0  0.2084716256915669  0.455301902750767  0.7911954579179463  1.0000
  H   H7        1.0  0.3369424726367357  0.4185831972588663  0.8647180084003321  1.0000
  H   H8        1.0  0.5116856804781001  0.43343359976280804  0.5473241759294878  1.0000
  C   C15       1.0  0.9022939570342082  0.062040922331781934  0.5254802168240058  1.0000
  C   C16       1.0  0.880511786634292  0.050325288334224894  0.6579358483893147  1.0000
  C   C17       1.0  0.8694149866178059  0.9272511584195169  0.7250217371941505  1.0000
  C   C18       1.0  0.8803768338922201  0.815039725003153  0.6578763219587773  1.0000
  C   C19       1.0  0.9021589711929718  0.8247631435703928  0.5254197593661429  1.0000
  C   C20       1.0  0.9129973136627559  0.948701853658303  0.45996396425401054  1.0000
  C   C21       1.0  0.8463752608612425  0.9159108958033733  0.8651534015874911  1.0000
  C   C22       1.0  0.7915472056318467  0.8237051177889151  0.9127654285179252  1.0000
  C   C23       1.0  0.769930516831717  0.8133073031674676  0.04451432301917335  1.0000
  C   C24       1.0  0.8026554238139527  0.8944346410809584  0.1303485294660266  1.0000
  C   C25       1.0  0.8576829793597222  0.9872540665784331  0.08459904827727405  1.0000
  C   C26       1.0  0.8790669094055037  0.9972851167720256  0.9523342271964055  1.0000
  O   O1        1.0  0.8923866920383501  0.07078465621108654  0.166861512059032  1.0000
  C   C27       1.0  0.8762439109956476  0.07134856955387603  0.30295369951308604  1.0000
  H   H9        1.0  0.9106267693508158  0.39395735472367077  0.47502870326334135  1.0000
  H   H10       1.0  0.8711295503553446  0.13711562252662501  0.7088025826857374  1.0000
  H   H11       1.0  0.8728736777248903  0.7199491193609907  0.7095950251399601  1.0000
  H   H12       1.0  0.9298019160162794  0.9569715878844759  0.3577800138989704  1.0000
  H   H13       1.0  0.9104215825328005  0.5010158398893803  0.4749338662186109  1.0000
  H   H14       1.0  0.7646940305341259  0.7608338758184665  0.8477985031865858  1.0000
  H   H15       1.0  0.7274919066547241  0.7423004142444205  0.08016410560867149  1.0000
  H   H16       1.0  0.784824567045817  0.8842358198087786  0.23184773197336717  1.0000
  H   H17       1.0  0.9221112779264258  0.06788027987481482  0.9181692723700561  1.0000
  H   H18       1.0  0.8892078640100225  0.9751266149930209  0.3529773547831607  1.0000
  H   H19       1.0  0.9116841344116506  0.14684231606781717  0.34352570867994225  1.0000
  H   H20       1.0  0.8162666788280827  0.09479913280057839  0.3201729972861709  1.0000
  C   C28       1.0  0.9023288435890161  0.44345657641851655  0.14405706197211088  1.0000
  C   C29       1.0  0.8316526854535674  0.5025183963380977  0.14189422642793592  1.0000
  C   C30       1.0  0.7957125897394632  0.532408165443707  0.023664269424936935  1.0000
  C   C31       1.0  0.8314019621527279  0.5024394973849347  0.9066288319349463  1.0000
  C   C32       1.0  0.9021240486649535  0.44334752706599523  0.9068429273790075  1.0000
  C   C33       1.0  0.9371518647178781  0.4142179564060562  0.026000974287391898  1.0000
  C   C34       1.0  0.720946280844565  0.594890387954764  0.02242114160513431  1.0000
  C   C35       1.0  0.7051477108188661  0.6958239245247266  0.10322337956970773  1.0000
  C   C36       1.0  0.6347437407273377  0.7545215039987911  0.10186010822689595  1.0000
  C   C37       1.0  0.5793380486673446  0.7132311877156425  0.020069886336974818  1.0000
  C   C38       1.0  0.5943819227077933  0.6130661712299204  0.9394501336063565  1.0000
  C   C39       1.0  0.6647220607548265  0.554145075305978  0.9404238478265232  1.0000
  Br  Br1       1.0  0.48321041842523055  0.7935651738890375  0.0184729307494087  1.0000
  H   H21       1.0  0.9295292712644223  0.42079191298061325  0.47235975394600005  1.0000
  H   H22       1.0  0.8039266655111712  0.5237906740942959  0.23251836024507933  1.0000
  H   H23       1.0  0.8044170711381105  0.5268785030086649  0.8150623149225225  1.0000
  H   H24       1.0  0.9916672362656438  0.368666065464609  0.026953130718183393  1.0000
  H   H25       1.0  0.03581791912620247  0.3325548642880294  0.6998883323308522  1.0000
  H   H26       1.0  0.7475318700333445  0.7304711535329111  0.16616131180408122  1.0000
  H   H27       1.0  0.6233849485495285  0.832311575005426  0.16418485602280453  1.0000
  H   H28       1.0  0.5515529637067241  0.5805601122800061  0.8762256517801124  1.0000
  H   H29       1.0  0.6748238692939238  0.4756351621979582  0.8783585808473653  1.0000
  Zn  Zn1       1.0  0.8199067347000477  0.4414026970653895  0.5292716926984469  1.0000
  Zn  Zn2       1.0  0.984538977533045  0.4454005986953269  0.5216280681451311  1.0000
  C   C40       1.0  0.9021620084897242  0.4381944514833205  0.7626605811159011  1.0000
  C   C41       1.0  0.9022855011980698  0.4486105265236917  0.2882392236042366  1.0000
  C   C42       1.0  0.9021819902195446  0.6805930777578164  0.5202559075632798  1.0000
  C   C43       1.0  0.9022654635483683  0.20621033858396087  0.5306439691316658  1.0000
  O   O2        1.0  0.9647480342655892  0.45185175639438024  0.33372735893412875  1.0000
  O   O3        1.0  0.9646515386754451  0.43798655678274745  0.7113707378194756  1.0000
  O   O4        1.0  0.9646668315915271  0.6337264924030022  0.515627287869102  1.0000
  O   O5        1.0  0.964732685196174  0.2561118287139894  0.5294707141112129  1.0000
  O   O6        1.0  0.8397129708560154  0.6306914656838543  0.5214290493339271  1.0000
  O   O7        1.0  0.8396976776789115  0.43495309036596197  0.7171724299110551  1.0000
  O   O8        1.0  0.8397941737462419  0.44881824494642664  0.3395274895278819  1.0000
  O   O9        1.0  0.8397788246492568  0.253078307963299  0.5352709420798178  1.0000
