data_image0
_chemical_formula_structural       NC10NC3NCH9C12BrH9C12NH11Zn2C4O8
_chemical_formula_sum              "N4 C42 H29 Br1 Zn2 O8"
_cell_length_a       19.437513618241372
_cell_length_b       10.299144633409057
_cell_length_c       10.299774167527174
_cell_angle_alpha    85.56689002636797
_cell_angle_beta     90.34073838346127
_cell_angle_gamma    89.4968152816428

_space_group_name_H-M_alt    "P 1"
_space_group_IT_number       1

loop_
  _space_group_symop_operation_xyz
  'x, y, z'

loop_
  _atom_site_type_symbol
  _atom_site_label
  _atom_site_symmetry_multiplicity
  _atom_site_fract_x
  _atom_site_fract_y
  _atom_site_fract_z
  _atom_site_occupancy
  N   N1        1.0  0.6476003176012097  0.41016009740694837  0.5755431022611466  1.0000
  C   C1        1.0  0.5886630589518178  0.4271705183072807  0.5725654305420338  1.0000
  C   C2        1.0  0.5152176850750092  0.4484234874406261  0.5688693446736159  1.0000
  C   C3        1.0  0.473479222979054  0.34722437636062353  0.5572212328396016  1.0000
  C   C4        1.0  0.397587052730111  0.35728809732336564  0.5499991454483013  1.0000
  C   C5        1.0  0.357992521342488  0.43815702364796194  0.6157302239736866  1.0000
  C   C6        1.0  0.2818124769821386  0.42954626183162903  0.6072874027746131  1.0000
  C   C7        1.0  0.2487049770069544  0.3081949818288756  0.6119433547237414  1.0000
  C   C8        1.0  0.1769719194506732  0.30182116662581593  0.6047762856269894  1.0000
  C   C9        1.0  0.1373758398803119  0.4163259995720534  0.5933155300166602  1.0000
  C   C10       1.0  0.06352839115860222  0.40961394444860777  0.5859804126153432  1.0000
  N   N2        1.0  0.0041601402695406004  0.4042180423370887  0.5800834365478111  1.0000
  C   C11       1.0  0.169766803958732  0.5373668581302384  0.5894048538083321  1.0000
  C   C12       1.0  0.24148420596709771  0.5439946946619254  0.5966339148321098  1.0000
  C   C13       1.0  0.3866534753473049  0.530467952574204  0.7056364564660345  1.0000
  N   N3        1.0  0.4436242729001448  0.5936799026706163  0.6852265112271387  1.0000
  C   C14       1.0  0.4874685331759207  0.5843931184536801  0.5721249599701155  1.0000
  H   H1        1.0  0.4958852466739879  0.2521595211047103  0.54511057569594  1.0000
  H   H2        1.0  0.3728895759408298  0.28775864944214224  0.49169092557068184  1.0000
  H   H3        1.0  0.2781758596965996  0.21827997002568011  0.6229731768379971  1.0000
  H   H4        1.0  0.1523999824967943  0.20758989886025625  0.6086732038775184  1.0000
  H   H5        1.0  0.13961076139820272  0.6266274306187345  0.5806871454825719  1.0000
  H   H6        1.0  0.2655745263984629  0.6386387843246124  0.5927214940219696  1.0000
  H   H7        1.0  0.35664455230597597  0.5508733806355861  0.7899972056936027  1.0000
  H   H8        1.0  0.5302048969734897  0.654711203164686  0.5778807013403244  1.0000
  H   H9        1.0  0.4577960668716375  0.6124836735258157  0.4814804639891259  1.0000
  C   C15       1.0  0.8259732721754863  0.02579272174341174  0.5778932779457122  1.0000
  C   C16       1.0  0.7966404674357399  0.035185777348777814  0.4525646550258797  1.0000
  C   C17       1.0  0.7816755105766086  0.9228132725647745  0.38894325970663135  1.0000
  C   C18       1.0  0.7964391746160775  0.79992349159518  0.4523408585087727  1.0000
  C   C19       1.0  0.8257937908161227  0.7885752952310758  0.5777446153833319  1.0000
  C   C20       1.0  0.8403792971433063  0.9020246936154708  0.6397499097072352  1.0000
  C   C21       1.0  0.7506460125814349  0.933795150559353  0.25635982656502865  1.0000
  C   C22       1.0  0.7736785500184871  0.02869180516528913  0.161189979115693  1.0000
  C   C23       1.0  0.7444125553400183  0.03882203621127789  0.03644874677945431  1.0000
  C   C24       1.0  0.691875262615036  0.9545982207711425  0.0052463080954967545  1.0000
  C   C25       1.0  0.6685760110867163  0.8600253987471139  0.09897226438998707  1.0000
  C   C26       1.0  0.6977221148089497  0.8494798650340195  0.2238122443527797  1.0000
  Br  Br1       1.0  0.6519803918613369  0.9687189650603614  0.8347826564005594  1.0000
  H   H10       1.0  0.8372845281467383  0.34965666641672577  0.6260768630698472  1.0000
  H   H11       1.0  0.7844933469768715  0.13009439667852973  0.4048511106561936  1.0000
  H   H12       1.0  0.7858765091773864  0.7130169694152021  0.40304347360948944  1.0000
  H   H13       1.0  0.8630065786958867  0.8940639301797331  0.7364172834165981  1.0000
  H   H14       1.0  0.8815949159508897  0.5598830661073815  0.8141086369838846  1.0000
  H   H15       1.0  0.814900844916057  0.0938932659575673  0.18271606671739904  1.0000
  H   H16       1.0  0.7627334076362319  0.11196543317455143  0.9640271837322052  1.0000
  H   H17       1.0  0.6277659165482395  0.7948425127452308  0.07530291784886978  1.0000
  H   H18       1.0  0.6782825085515022  0.77656919978895  0.29535974115734054  1.0000
  C   C27       1.0  0.8259069620983664  0.40706907466224473  0.1964671750102529  1.0000
  C   C28       1.0  0.7585368967070478  0.3588865644595689  0.19843952307280754  1.0000
  C   C29       1.0  0.7243758349137847  0.334588332628339  0.0822907788364502  1.0000
  C   C30       1.0  0.7584895757130186  0.35911866993125985  0.9631341650675438  1.0000
  C   C31       1.0  0.8258600792705739  0.4072989461823988  0.9591706786499787  1.0000
  C   C32       1.0  0.8591914052641919  0.4310048487399074  0.07635162677224172  1.0000
  C   C33       1.0  0.6531022101518299  0.2836145961460268  0.08543075731331262  1.0000
  C   C34       1.0  0.633789612652104  0.18547584657965888  0.18050246905455336  1.0000
  C   C35       1.0  0.5667036684738187  0.13755494713682848  0.18332406084541497  1.0000
  C   C36       1.0  0.5178691425854571  0.1868977752679264  0.09138829718390262  1.0000
  C   C37       1.0  0.5367278237446106  0.284653902044536  0.9964702449201446  1.0000
  C   C38       1.0  0.6037930849719043  0.3326764149437702  0.9933820902198334  1.0000
  N   N4        1.0  0.4492558050016056  0.13782619809857488  0.09441086530170884  1.0000
  H   H19       1.0  0.8515897549778472  0.4253749520578516  0.5231733802064318  1.0000
  H   H20       1.0  0.7321268116137458  0.34182235407866557  0.29039226464989976  1.0000
  H   H21       1.0  0.7327281470543144  0.3388710260580854  0.8734796765183486  1.0000
  H   H22       1.0  0.9111644585209713  0.46817454766020616  0.07406206600419885  1.0000
  H   H23       1.0  0.851520955184553  0.42571307159680316  0.6302026618754564  1.0000
  H   H24       1.0  0.6708082839945231  0.1445879898615403  0.25163140561704656  1.0000
  H   H25       1.0  0.5528427100104244  0.06173409805016372  0.2569805007791739  1.0000
  H   H26       1.0  0.499422328787365  0.3238811146289673  0.9250679224824148  1.0000
  H   H27       1.0  0.6168495398088757  0.40937722517185815  0.9200472574268224  1.0000
  H   H28       1.0  0.412493642775393  0.17399769564935919  0.026271377906762705  1.0000
  H   H29       1.0  0.43471293084616097  0.06496218522600183  0.16481092164553668  1.0000
  Zn  Zn1       1.0  0.7504957861755194  0.4084418614658154  0.5768608539565299  1.0000
  Zn  Zn2       1.0  0.9012646797601662  0.4059256111793548  0.5787763563248829  1.0000
  C   C39       1.0  0.8258686324258372  0.4020814445781393  0.8150044039482767  1.0000
  C   C40       1.0  0.8258934795080328  0.4122876393651591  0.3406329543916964  1.0000
  C   C41       1.0  0.8258244854283919  0.6443916277197101  0.572597729811354  1.0000
  C   C42       1.0  0.8259375754215206  0.16997589668859914  0.583039697414631  1.0000
  O   O1        1.0  0.883104965337539  0.4130784673337473  0.38974323119315346  1.0000
  O   O2        1.0  0.8830872485258792  0.39937986095878264  0.7673475754844226  1.0000
  O   O3        1.0  0.8830508278849709  0.5950484115555903  0.5716024609888064  1.0000
  O   O4        1.0  0.8831413345350341  0.2174099268571117  0.5854882476630372  1.0000
  O   O5        1.0  0.768619079950628  0.5969575466481432  0.5701489619578772  1.0000
  O   O6        1.0  0.7686555002254699  0.40129055644640865  0.7658940069069835  1.0000
  O   O7        1.0  0.7686732171894879  0.41498911709089725  0.3882881012946229  1.0000
  O   O8        1.0  0.7687095863803721  0.21932056735417405  0.5840332151297412  1.0000
