data_image0
_chemical_formula_structural       NC9NC5H8C16H10C13OH12Zn2C4O8
_chemical_formula_sum              "N2 C47 H30 O9 Zn2"
_cell_length_a       17.807436237873137
_cell_length_b       10.29914801576943
_cell_length_c       10.299153481560891
_cell_angle_alpha    85.55882765748771
_cell_angle_beta     89.40949667369763
_cell_angle_gamma    88.40369483635645

_space_group_name_H-M_alt    "P 1"
_space_group_IT_number       1

loop_
  _space_group_symop_operation_xyz
  'x, y, z'

loop_
  _atom_site_type_symbol
  _atom_site_label
  _atom_site_symmetry_multiplicity
  _atom_site_fract_x
  _atom_site_fract_y
  _atom_site_fract_z
  _atom_site_occupancy
  N   N1        1.0  0.7073622555313985  0.38732473905869025  0.5565334967124136  1.0000
  C   C1        1.0  0.6467679400387176  0.3521282116006863  0.5455243012745272  1.0000
  C   C2        1.0  0.5713952714428443  0.30834760748094414  0.5318300574926058  1.0000
  C   C3        1.0  0.5532761535514009  0.23688798918938003  0.42685640851328954  1.0000
  C   C4        1.0  0.4800931521841332  0.1942688606902503  0.41347759802087247  1.0000
  C   C5        1.0  0.4239804918768567  0.2227317798056192  0.5050401435128318  1.0000
  C   C6        1.0  0.3462058566113148  0.17755357858788035  0.4909039593821294  1.0000
  C   C7        1.0  0.284045324305815  0.2593256683588825  0.5168086704938977  1.0000
  C   C8        1.0  0.21071999195761842  0.21650349129539204  0.5034436267038986  1.0000
  C   C9        1.0  0.1475098081002469  0.30096727487619024  0.5297111107922805  1.0000
  N   N2        1.0  0.0967018076313188  0.3688703137403211  0.5508294439652395  1.0000
  C   C10       1.0  0.1989716066683772  0.0916512152937976  0.46414863043782173  1.0000
  C   C11       1.0  0.2602747657976447  0.009865269041193114  0.4382355353898679  1.0000
  C   C12       1.0  0.3334805767631324  0.05229279943267495  0.4513982051987693  1.0000
  C   C13       1.0  0.4427911204296576  0.29468588397694884  0.6102328158418682  1.0000
  C   C14       1.0  0.5160269402352425  0.3371145455524833  0.6234560544261978  1.0000
  H   H1        1.0  0.5956558352292035  0.21437434758989204  0.3551525223198597  1.0000
  H   H2        1.0  0.4671591036503996  0.1405516087490064  0.3305790516589173  1.0000
  H   H3        1.0  0.2925613032767084  0.35680875726916095  0.545644906266765  1.0000
  H   H4        1.0  0.1425000304689605  0.057608619713768405  0.453567992305558  1.0000
  H   H5        1.0  0.2510603545749303  0.9132018954392156  0.4081985330239035  1.0000
  H   H6        1.0  0.3801089944421851  0.9865356484176193  0.43237733229725706  1.0000
  H   H7        1.0  0.401128461868521  0.3166609169585486  0.6832314381634714  1.0000
  H   H8        1.0  0.5294893335592361  0.3920520887094805  0.7053124513849196  1.0000
  C   C15       1.0  0.9019821515781057  0.9966985934602423  0.5538477735205642  1.0000
  C   C16       1.0  0.8848064142468581  0.007061185517305946  0.420624401263864  1.0000
  C   C17       1.0  0.8761531295594208  0.8951828016193013  0.35291191012175327  1.0000
  C   C18       1.0  0.8849066312099488  0.7718044676444128  0.4202183396267234  1.0000
  C   C19       1.0  0.90208907931747  0.7594861473128652  0.5535263671127164  1.0000
  C   C20       1.0  0.9105223865728564  0.872454029297804  0.6195202420476038  1.0000
  C   C21       1.0  0.857983456300457  0.9071907711519723  0.21197764633721183  1.0000
  C   C22       1.0  0.8935125658336213  0.8244894844216151  0.1262387816066961  1.0000
  C   C23       1.0  0.8763856500505592  0.8359173923386322  0.9935972707498073  1.0000
  C   C24       1.0  0.8235536884858339  0.9299545549817293  0.9448929330737355  1.0000
  C   C25       1.0  0.7878873769291619  0.012642176242064984  0.029349857136684143  1.0000
  C   C26       1.0  0.8049607328422321  0.001458080623277791  0.1620130994102691  1.0000
  C   C27       1.0  0.8059492343686848  0.9415945738841325  0.8083256427602303  1.0000
  C   C28       1.0  0.7912056939106992  0.9513429776050908  0.6939525137433216  1.0000
  C   C29       1.0  0.7739411821113723  0.9627582279120838  0.5600227455997802  1.0000
  C   C30       1.0  0.7592001159266744  0.9725051441555577  0.44566808823924564  1.0000
  H   H9        1.0  0.9085500427009452  0.32018913297951435  0.6051058492742718  1.0000
  H   H10       1.0  0.8791302847447702  0.10236597705833628  0.36879707935771755  1.0000
  H   H11       1.0  0.8772914881655  0.6852527701494023  0.36891401053536255  1.0000
  H   H12       1.0  0.923768276452282  0.8637453098005127  0.7222797365721099  1.0000
  H   H13       1.0  0.9340548460683887  0.5289515174750553  0.8053233352311668  1.0000
  H   H14       1.0  0.935251401258497  0.7521199409212714  0.16147725674919244  1.0000
  H   H15       1.0  0.9044813809632402  0.7716385528843492  0.929010308788695  1.0000
  H   H16       1.0  0.7467458485091086  0.08554724307374051  0.9927327279760023  1.0000
  H   H17       1.0  0.7759891047027375  0.0653883269600617  0.22581010017858483  1.0000
  H   H18       1.0  0.7462562729721325  0.9810637572040373  0.3452550558270566  1.0000
  C   C31       1.0  0.9019710782404943  0.377947991588663  0.17231551352868668  1.0000
  C   C32       1.0  0.8242968668528788  0.3572474454119974  0.17413518435753494  1.0000
  C   C33       1.0  0.7850506962148572  0.3469081535664198  0.05788817318884276  1.0000
  C   C34       1.0  0.8244741572024711  0.35755636728835705  0.9388244862970767  1.0000
  C   C35       1.0  0.9021001767052752  0.378236761654261  0.9350585835353349  1.0000
  C   C36       1.0  0.9403953741890341  0.38830821321871123  0.05234426931400371  1.0000
  C   C37       1.0  0.7029299008551998  0.3250356635818554  0.060785081249324024  1.0000
  C   C38       1.0  0.6554255694255373  0.3925295139335574  0.968786055827386  1.0000
  C   C39       1.0  0.5781450593935895  0.3719901559522585  0.9715901536550127  1.0000
  C   C40       1.0  0.5470680204654962  0.28274341173510664  0.06554349648439106  1.0000
  C   C41       1.0  0.5940685246694912  0.21636981327505556  0.1584679737585224  1.0000
  C   C42       1.0  0.6713525944487674  0.23687935267683158  0.1558419858722797  1.0000
  C   C43       1.0  0.46381219139920465  0.2634010615503364  0.07068940384532052  1.0000
  O   O1        1.0  0.430081681640081  0.3525951883734675  0.1506540164453274  1.0000
  H   H19       1.0  0.048489575645418226  0.4178555256293033  0.3761102136956853  1.0000
  H   H20       1.0  0.7940079670052087  0.3509187659022184  0.26605776824062444  1.0000
  H   H21       1.0  0.7946659389924141  0.3479160673037469  0.849086707561781  1.0000
  H   H22       1.0  0.00027023984650687005  0.40426328536658596  0.05015534096857599  1.0000
  H   H23       1.0  0.9319479472152025  0.3862775623250996  0.6061281423301828  1.0000
  H   H24       1.0  0.6778924501951741  0.46272672166082396  0.8958693551822492  1.0000
  H   H25       1.0  0.5425084294786023  0.4259639514909388  0.9006094883504834  1.0000
  H   H26       1.0  0.5709092189253596  0.14841200540282173  0.2328337739191706  1.0000
  H   H27       1.0  0.7065376940331315  0.18272644243759317  0.22735256387143288  1.0000
  H   H28       1.0  0.4518745266974545  0.16217103688479506  0.10972587150709101  1.0000
  H   H29       1.0  0.4400350103107286  0.27789447100394216  0.9709012848603771  1.0000
  H   H30       1.0  0.3754671018985831  0.3358286711946934  0.15075888081463384  1.0000
  Zn  Zn1       1.0  0.8197172396625256  0.3819957278354875  0.5548949426083767  1.0000
  Zn  Zn2       1.0  0.9843468056256703  0.37418874200274876  0.5524786792161032  1.0000
  C   C44       1.0  0.9020733586617107  0.3730081741026603  0.7908860287601072  1.0000
  C   C45       1.0  0.9019924846275353  0.3831778492796756  0.31648769345562333  1.0000
  C   C46       1.0  0.9020641312455634  0.6153012971088216  0.5484119468504183  1.0000
  C   C47       1.0  0.9020016556600794  0.14088316853895777  0.5589618460864738  1.0000
  O   O2        1.0  0.9644757303210506  0.3819646606740106  0.36395623709101965  1.0000
  O   O3        1.0  0.9645401440647398  0.3682950611618825  0.741583223682774  1.0000
  O   O4        1.0  0.9645318508308331  0.5639498626541215  0.5457836987884963  1.0000
  O   O5        1.0  0.9644839673628618  0.1863098710998503  0.5597556654305502  1.0000
  O   O6        1.0  0.8395800217453421  0.5698746014039378  0.5476179572116502  1.0000
  O   O7        1.0  0.8395883151828598  0.37422136031180697  0.7434174122024861  1.0000
  O   O8        1.0  0.8395239012185471  0.3878909139709146  0.3657888642176237  1.0000
  O   O9        1.0  0.8395321382724618  0.19223611514422823  0.5615883899296219  1.0000
