data_image0
_chemical_formula_structural       NC10NC3NCH9C12OCH12C12NCOH11Zn2C4O8
_chemical_formula_sum              "N4 C44 H32 O10 Zn2"
_cell_length_a       19.437513618241372
_cell_length_b       10.29979075500242
_cell_length_c       10.299148425239203
_cell_angle_alpha    85.53236164649607
_cell_angle_beta     90.33234682354211
_cell_angle_gamma    89.50469088654314

_space_group_name_H-M_alt    "P 1"
_space_group_IT_number       1

loop_
  _space_group_symop_operation_xyz
  'x, y, z'

loop_
  _atom_site_type_symbol
  _atom_site_label
  _atom_site_symmetry_multiplicity
  _atom_site_fract_x
  _atom_site_fract_y
  _atom_site_fract_z
  _atom_site_occupancy
  N   N1        1.0  0.6478092291762034  0.4110664547246956  0.5755282462093936  1.0000
  C   C1        1.0  0.5888734365678386  0.4280777555924815  0.5725520262734209  1.0000
  C   C2        1.0  0.5154298925767301  0.449331807007596  0.5688577570591211  1.0000
  C   C3        1.0  0.4736848873462964  0.3481482413490622  0.5571976368673537  1.0000
  C   C4        1.0  0.39779398959539375  0.3582163473362572  0.5499757814349611  1.0000
  C   C5        1.0  0.35820050035675594  0.43903291995392646  0.6157229341977535  1.0000
  C   C6        1.0  0.2820204521665923  0.43042875452682994  0.6072782356620263  1.0000
  C   C7        1.0  0.24890372424945661  0.30908293541424836  0.6119219262736408  1.0000
  C   C8        1.0  0.1771707319405571  0.30271465233045336  0.6047533621926513  1.0000
  C   C9        1.0  0.1375838840849342  0.41721933422825663  0.5933033646927572  1.0000
  C   C10       1.0  0.0637364883216404  0.41051295455926806  0.5859666973467408  1.0000
  N   N2        1.0  0.0043682800203392  0.40512161514618605  0.5800684752385277  1.0000
  C   C11       1.0  0.1699839980850369  0.538254226853484  0.5894050026592099  1.0000
  C   C12       1.0  0.24170134883974168  0.544876469064826  0.5966355925702456  1.0000
  C   C13       1.0  0.38686154025734026  0.5312735605317582  0.7056492231318339  1.0000
  N   N3        1.0  0.4438384790896793  0.5944953940126563  0.6852435999004247  1.0000
  C   C14       1.0  0.4876904516016581  0.5852893232454168  0.5721280835049785  1.0000
  H   H1        1.0  0.4960848512324465  0.25309881625334407  0.545075565086389  1.0000
  H   H2        1.0  0.3730957498991188  0.2887331817254055  0.49165353527856803  1.0000
  H   H3        1.0  0.2783672070853265  0.21916660538557386  0.62294353367919  1.0000
  H   H4        1.0  0.1525916084511827  0.208487425818646  0.6086407916328112  1.0000
  H   H5        1.0  0.1398351359196998  0.6275145284761532  0.5806957055027733  1.0000
  H   H6        1.0  0.2657988871739472  0.6395164986584148  0.5927327023206388  1.0000
  H   H7        1.0  0.3568478513564298  0.5516178131126721  0.7900218099961478  1.0000
  H   H8        1.0  0.5304315353605467  0.6555982608244375  0.577891900435717  1.0000
  H   H9        1.0  0.45802676713427515  0.6134420017104829  0.48147614208242007  1.0000
  C   C15       1.0  0.8261538750645806  0.02672514940851234  0.5778381620175685  1.0000
  C   C16       1.0  0.8062204714393425  0.015835529929344894  0.7090320014221219  1.0000
  C   C17       1.0  0.796065471592344  0.8931823159502401  0.7754750687290459  1.0000
  C   C18       1.0  0.8060968758098978  0.7805553253840433  0.7089646377208627  1.0000
  C   C19       1.0  0.8260302490204413  0.789452730998314  0.5777698653462002  1.0000
  C   C20       1.0  0.8359487344070837  0.9129803102606971  0.5129419211793469  1.0000
  C   C21       1.0  0.7749812511040103  0.8827157484207632  0.9142720942568092  1.0000
  C   C22       1.0  0.7247752328415707  0.7926674442148942  0.9587016384746077  1.0000
  C   C23       1.0  0.7049932985497306  0.7830892867122062  0.08919833351760609  1.0000
  C   C24       1.0  0.7349720724382589  0.862897600703451  0.17693461540915578  1.0000
  C   C25       1.0  0.7853609974578643  0.953551144288822  0.13437924259448852  1.0000
  C   C26       1.0  0.804929715532947  0.9627718931224498  0.0033530944178918887  1.0000
  O   O1        1.0  0.8171515582477797  0.03568535218275648  0.21865859956077482  1.0000
  C   C27       1.0  0.8023830809677043  0.03685103288871594  0.35381652360321103  1.0000
  H   H10       1.0  0.8337794622144343  0.3583255281308826  0.5278693544723068  1.0000
  H   H11       1.0  0.7976338726874034  0.10298334835652723  0.7593551049758767  1.0000
  H   H12       1.0  0.7992312234398934  0.6857475819819652  0.7602488367275537  1.0000
  H   H13       1.0  0.851327042615257  0.920612786303292  0.41173142373700333  1.0000
  H   H14       1.0  0.833591542665913  0.4653921621665624  0.5277626012727821  1.0000
  H   H15       1.0  0.7001760630425624  0.7308770599020458  0.8921740441210424  1.0000
  H   H16       1.0  0.6661321552433777  0.7137526789611199  0.12238474905750474  1.0000
  H   H17       1.0  0.7186538499225562  0.8533768523394486  0.2774007609027813  1.0000
  H   H18       1.0  0.8443457730876442  0.03167238760202995  0.9716867129030116  1.0000
  H   H19       1.0  0.8142609211041701  0.9401021581753162  0.40459404466120297  1.0000
  H   H20       1.0  0.8348435385981053  0.11093066397781581  0.3964472548719008  1.0000
  H   H21       1.0  0.7474581208095373  0.0626712418405071  0.36755367300696384  1.0000
  C   C28       1.0  0.8261437743869303  0.40824393175001705  0.196408468964685  1.0000
  C   C29       1.0  0.895942186375787  0.4426389786584721  0.19332471140592888  1.0000
  C   C30       1.0  0.9312221921378121  0.45986560588568426  0.07462767229864364  1.0000
  C   C31       1.0  0.8957972037279895  0.44230124657050784  0.9580657400029762  1.0000
  C   C32       1.0  0.826040320020127  0.4079339808453746  0.959199567721241  1.0000
  C   C33       1.0  0.7916228501987744  0.3910978397645748  0.07888193976913538  1.0000
  C   C34       1.0  0.005018966935625757  0.49622786620934267  0.07245756187588981  1.0000
  C   C35       1.0  0.05125928639567068  0.43808614008338  0.9894533395494278  1.0000
  C   C36       1.0  0.12066870183590894  0.4724421222313093  0.98755994756154  1.0000
  C   C37       1.0  0.1454631916147513  0.5643013953026517  0.06937658947271186  1.0000
  C   C38       1.0  0.09915429408472498  0.6242904744912061  0.15081138050622434  1.0000
  C   C39       1.0  0.029713769284174685  0.5900416792454044  0.15280120827900823  1.0000
  N   N4        1.0  0.2169089855489965  0.5993170372744299  0.06374778439404949  1.0000
  C   C40       1.0  0.2564774474384164  0.6353302321605645  0.1729785241215065  1.0000
  O   O2        1.0  0.23320047938549582  0.6215558289643035  0.28704353952868655  1.0000
  H   H22       1.0  0.6945122962541959  0.3425592662601762  0.4095832417518661  1.0000
  H   H23       1.0  0.9232369610554041  0.454379271776868  0.28359760924812094  1.0000
  H   H24       1.0  0.9224888578615573  0.45724784954206243  0.8661713767307604  1.0000
  H   H25       1.0  0.7378184273470532  0.3645859598898451  0.08047159556191152  1.0000
  H   H26       1.0  0.7992119728785795  0.3946790763979313  0.632162559410133  1.0000
  H   H27       1.0  0.03392527590845962  0.36486561138894147  0.9270661974878913  1.0000
  H   H28       1.0  0.15543935439234424  0.4263245971060692  0.9230517691983442  1.0000
  H   H29       1.0  0.11609752980721089  0.6996820493616176  0.21078674875285675  1.0000
  H   H30       1.0  0.9950238670067391  0.6388241027334916  0.21541760774818974  1.0000
  H   H31       1.0  0.24337148403351683  0.5899365406159158  0.9769024535008919  1.0000
  H   H32       1.0  0.30813072200486835  0.6715086698408201  0.1578091446860066  1.0000
  Zn  Zn1       1.0  0.7507044742062915  0.4093474101717076  0.5768459680242073  1.0000
  Zn  Zn2       1.0  0.9014730414825834  0.40682998581764585  0.578761424996632  1.0000
  C   C41       1.0  0.8260591849399517  0.40281891506537004  0.8150161900793336  1.0000
  C   C42       1.0  0.8261199768540631  0.41336009200106716  0.34059135118696915  1.0000
  C   C43       1.0  0.8260507604496993  0.6452831688013771  0.5726072341857644  1.0000
  C   C44       1.0  0.8261283501410942  0.17089427879384655  0.5830003758100144  1.0000
  O   O3        1.0  0.8833278766474831  0.41411610695565115  0.38970735003318935  1.0000
  O   O4        1.0  0.8832811393715861  0.4001512537050076  0.7673536049700318  1.0000
  O   O5        1.0  0.8832735650085162  0.5959442173056497  0.5716066480823805  1.0000
  O   O6        1.0  0.8833353995751543  0.21832315354382503  0.5854542088849204  1.0000
  O   O7        1.0  0.7688420646638088  0.5978542433060186  0.5701531834754359  1.0000
  O   O8        1.0  0.7688496387801881  0.40206284003708026  0.7659000709731287  1.0000
  O   O9        1.0  0.7688963763209439  0.4160276486655132  0.38825225453110734  1.0000
  O   O10       1.0  0.768903899234102  0.22023468592536166  0.5839992107582754  1.0000
