data_image0
_chemical_formula_structural       NC12NC2H8C12NH11C12NCOCH13Zn2C4O8
_chemical_formula_sum              "N4 C44 H32 O9 Zn2"
_cell_length_a       19.240039667572717
_cell_length_b       10.299770795358612
_cell_length_c       10.299158637457994
_cell_angle_alpha    85.57628442395506
_cell_angle_beta     89.9815795743678
_cell_angle_gamma    90.01598423534

_space_group_name_H-M_alt    "P 1"
_space_group_IT_number       1

loop_
  _space_group_symop_operation_xyz
  'x, y, z'

loop_
  _atom_site_type_symbol
  _atom_site_label
  _atom_site_symmetry_multiplicity
  _atom_site_fract_x
  _atom_site_fract_y
  _atom_site_fract_z
  _atom_site_occupancy
  N   N1        1.0  0.6549358563893519  0.4207664892102372  0.5673637816704666  1.0000
  C   C1        1.0  0.5947874875987105  0.4207665731624599  0.5673636997284279  1.0000
  C   C2        1.0  0.5199694504986866  0.4207666903995553  0.5673635624163895  1.0000
  C   C3        1.0  0.48346831742636637  0.3563379331554053  0.6707798654921364  1.0000
  C   C4        1.0  0.4107975378766158  0.3562270825664353  0.6708664141557341  1.0000
  C   C5        1.0  0.37363721561435076  0.4207667828843662  0.5673633347277107  1.0000
  C   C6        1.0  0.4108525717337578  0.48530667025682006  0.46386044983307695  1.0000
  C   C7        1.0  0.48352322869148195  0.48519558421194087  0.46394712101018687  1.0000
  C   C8        1.0  0.2964321251793903  0.42076670418974205  0.5673632393150403  1.0000
  C   C9        1.0  0.2592201967409949  0.3075208596659669  0.6092398357772437  1.0000
  C   C10       1.0  0.1865495400345441  0.3076277275575241  0.6091485042694367  1.0000
  C   C11       1.0  0.1500998382264218  0.420766575038531  0.5673633002321492  1.0000
  C   C12       1.0  0.0752818010117016  0.4207664613833606  0.567363548900961  1.0000
  N   N2        1.0  0.015133484117648598  0.420766420633206  0.5673637573244084  1.0000
  C   C13       1.0  0.1865976472953369  0.5339054983284097  0.525578043299926  1.0000
  C   C14       1.0  0.2592683752457756  0.5340125462833905  0.5254865491872367  1.0000
  H   H1        1.0  0.5111618383159497  0.30645602613338263  0.75152435680502  1.0000
  H   H2        1.0  0.3836828133243699  0.30714365137754673  0.7527263855291719  1.0000
  H   H3        1.0  0.3837807655106638  0.5343901284802068  0.3820004276093911  1.0000
  H   H4        1.0  0.5112594792025579  0.5350773910686233  0.3832029055003634  1.0000
  H   H5        1.0  0.2862947936598214  0.21837659295782896  0.6404120361181693  1.0000
  H   H6        1.0  0.1588159763784567  0.2193830024470904  0.641353638931357  1.0000
  H   H7        1.0  0.15890138749746646  0.6221501989071472  0.4933729231897632  1.0000
  H   H8        1.0  0.2863802571636869  0.6231568921522597  0.4943143040705289  1.0000
  C   C15       1.0  0.8349750190149083  0.039397941202458764  0.567403345565201  1.0000
  C   C16       1.0  0.8148248017178601  0.048527225637529314  0.43599161571037603  1.0000
  C   C17       1.0  0.8046782832520545  0.936016936042664  0.36936916061336045  1.0000
  C   C18       1.0  0.8149520269517767  0.8132455882095172  0.43592306214926135  1.0000
  C   C19       1.0  0.8351009863963381  0.8021250121539663  0.5673353425572165  1.0000
  C   C20       1.0  0.8449999859654468  0.9157556959387559  0.63233946799708  1.0000
  C   C21       1.0  0.7833608271668189  0.9467285942746869  0.23034317770462343  1.0000
  C   C22       1.0  0.73276020344522  0.03789068385081662  0.18515556833916347  1.0000
  C   C23       1.0  0.7127260153485576  0.04784327090365381  0.054303252333604446  1.0000
  C   C24       1.0  0.7429132585444589  0.9670524845132407  0.9665583858692566  1.0000
  C   C25       1.0  0.7933472531324486  0.8760881649386134  0.010855427438920096  1.0000
  C   C26       1.0  0.8134371229487622  0.8658795416175236  0.1416777701164298  1.0000
  N   N3        1.0  0.7223912660054473  0.9773640821577624  0.8327215342794827  1.0000
  H   H9        1.0  0.842623623045513  0.3633715254809773  0.6174944395763646  1.0000
  H   H10       1.0  0.8078952088244589  0.14341456432781952  0.38463885551175925  1.0000
  H   H11       1.0  0.8062776354017703  0.7261990091468329  0.3855104149639941  1.0000
  H   H12       1.0  0.8605444375414092  0.9079448304086973  0.7337177977833289  1.0000
  H   H13       1.0  0.8428088939672376  0.4704351112248735  0.617394814819709  1.0000
  H   H14       1.0  0.7080251266076006  0.10032494358217736  0.25135947200672537  1.0000
  H   H15       1.0  0.673546743336742  0.11831292515019398  0.021391355710325133  1.0000
  H   H16       1.0  0.8172229024647163  0.8133081093510718  0.9439622438374031  1.0000
  H   H17       1.0  0.8531494570913094  0.7959196552299198  0.1731501094951  1.0000
  H   H18       1.0  0.744598588066722  0.9175456256247939  0.7665812434787478  1.0000
  H   H19       1.0  0.6848389548234697  0.04489335895220026  0.7987864591541096  1.0000
  C   C27       1.0  0.8351031438196347  0.4206235044631832  0.1859962880213324  1.0000
  C   C28       1.0  0.836740574247317  0.5573266224286908  0.17467056399954828  1.0000
  C   C29       1.0  0.8375162477946712  0.6267768517744043  0.05177062046436931  1.0000
  C   C30       1.0  0.8366075839356365  0.557686491827251  0.939359053374722  1.0000
  C   C31       1.0  0.8349728679759496  0.4208994650598201  0.9487424787203311  1.0000
  C   C32       1.0  0.8342337520101045  0.35320904279441634  0.07244891141681942  1.0000
  C   C33       1.0  0.8392492811696667  0.7713919758233108  0.04076293277280274  1.0000
  C   C34       1.0  0.8819192500051488  0.8392258026263804  0.12332426431925914  1.0000
  C   C35       1.0  0.8835557900875445  0.9753162613669124  0.1128345923911338  1.0000
  C   C36       1.0  0.8429955804142564  0.046301561006985015  0.018678718488610135  1.0000
  C   C37       1.0  0.7994979754534903  0.9788281219681134  0.9379004343461617  1.0000
  C   C38       1.0  0.7978899744502582  0.8427655726431993  0.9481291169256947  1.0000
  N   N4        1.0  0.842753290486944  0.18634738948120644  0.0074308626233587916  1.0000
  C   C39       1.0  0.9023139454310759  0.26533518886827334  0.03065538122473943  1.0000
  O   O1        1.0  0.9622299513410786  0.2159225641503193  0.039175907214688444  1.0000
  C   C40       1.0  0.8941849606631983  0.4091501899988361  0.035245128842454676  1.0000
  H   H20       1.0  0.834495092564726  0.3680397760755012  0.5178284194402278  1.0000
  H   H21       1.0  0.8364454729907713  0.6101438148719454  0.2616167131920959  1.0000
  H   H22       1.0  0.838123130404454  0.6107000390277357  0.8443827212864323  1.0000
  H   H23       1.0  0.8329731428993215  0.24776673405465055  0.08046980982229424  1.0000
  H   H24       1.0  0.8323093639119378  0.16270573027949276  0.7591609881813786  1.0000
  H   H25       1.0  0.9144398737373308  0.7869988098306151  0.19552145223416173  1.0000
  H   H26       1.0  0.9156356202146047  0.024655785001526986  0.17986170763858045  1.0000
  H   H27       1.0  0.7669972856509428  0.0319301211741112  0.8662724590384614  1.0000
  H   H28       1.0  0.7635331558415446  0.7933792693776871  0.8847862481093824  1.0000
  H   H29       1.0  0.7977075136454432  0.2338023438391974  0.9724799084035993  1.0000
  H   H30       1.0  0.845317306004693  0.43086485484428305  0.08666100435493629  1.0000
  H   H31       1.0  0.8923240274617001  0.4558174828679036  0.9345221759356419  1.0000
  H   H32       1.0  0.9385329430360767  0.44991778219541523  0.0878962498494178  1.0000
  Zn  Zn1       1.0  0.7588811183745463  0.4207630049308786  0.5673712634612622  1.0000
  Zn  Zn2       1.0  0.9111882373435931  0.42075931527763455  0.5673668754930201  1.0000
  C   C41       1.0  0.8349950857845775  0.4156736093968094  0.8045675520401183  1.0000
  C   C42       1.0  0.8350759333714283  0.4258503494354251  0.3301707141880976  1.0000
  C   C43       1.0  0.8350744864429317  0.6579514810068765  0.5621730071637019  1.0000
  C   C44       1.0  0.8349964804717736  0.18357091755069033  0.572565328444413  1.0000
  O   O2        1.0  0.892866558254215  0.42759746041615854  0.3785553039530214  1.0000
  O   O3        1.0  0.8928020399544988  0.41392271819789483  0.7561792581460005  1.0000
  O   O4        1.0  0.8928653775912474  0.6095651640523059  0.5604439480788124  1.0000
  O   O5        1.0  0.8928031686635302  0.23195502381799193  0.5742905166451473  1.0000
  O   O6        1.0  0.7772661350796656  0.6095672963931922  0.5604476223038011  1.0000
  O   O7        1.0  0.7772027977092743  0.4139264108161185  0.7561828629857565  1.0000
  O   O8        1.0  0.7772673163144319  0.4276011072135939  0.3785573473790682  1.0000
  O   O9        1.0  0.7772039267027401  0.23195866136185317  0.5742926574409231  1.0000
