data_image0
_chemical_formula_structural       NC11NC3H8C12OCH12C12SCH12Zn2C4O8
_chemical_formula_sum              "N2 C44 H32 O9 S1 Zn2"
_cell_length_a       17.807433833752565
_cell_length_b       10.29979075500242
_cell_length_c       10.299780138516091
_cell_angle_alpha    85.57237843546018
_cell_angle_beta     88.51639907153644
_cell_angle_gamma    90.66694566819858

_space_group_name_H-M_alt    "P 1"
_space_group_IT_number       1

loop_
  _space_group_symop_operation_xyz
  'x, y, z'

loop_
  _atom_site_type_symbol
  _atom_site_label
  _atom_site_symmetry_multiplicity
  _atom_site_fract_x
  _atom_site_fract_y
  _atom_site_fract_z
  _atom_site_occupancy
  N   N1        1.0  0.7072725920579574  0.43804081416220364  0.534629317589417  1.0000
  C   C1        1.0  0.6564540782730313  0.4033335762046606  0.6011908069297733  1.0000
  C   C2        1.0  0.5932307216546864  0.3601606321861657  0.6839848055942692  1.0000
  C   C3        1.0  0.6049595304171308  0.29664634232228426  0.806701607779764  1.0000
  C   C4        1.0  0.5436434476612527  0.25515249978423515  0.8872116749571741  1.0000
  C   C5        1.0  0.4704442140514617  0.2768598659498107  0.8456457259420849  1.0000
  C   C6        1.0  0.4577386204554607  0.34052857336900644  0.72246873824772  1.0000
  C   C7        1.0  0.3799711489684207  0.36356524594514195  0.6781221825100703  1.0000
  C   C8        1.0  0.36120064537953184  0.34665590996875917  0.5485490338732517  1.0000
  C   C9        1.0  0.2879714795268097  0.36832453586158787  0.5069390179476034  1.0000
  C   C10       1.0  0.23256975104382452  0.40722078603565937  0.5940818943835915  1.0000
  C   C11       1.0  0.1572038534126708  0.4295474786828133  0.5511106052710266  1.0000
  N   N2        1.0  0.0966150452092912  0.4474964808622097  0.5165648162686414  1.0000
  C   C12       1.0  0.25064869528933464  0.4243405440335959  0.7231239202244721  1.0000
  C   C13       1.0  0.3238250857016178  0.4026370619937518  0.7649893557065621  1.0000
  C   C14       1.0  0.5199120146248651  0.38201785574559843  0.641975086422979  1.0000
  H   H1        1.0  0.6614257998705955  0.2792416476200612  0.8400667137759075  1.0000
  H   H2        1.0  0.5528429050372714  0.2057279996894581  0.9819465835495165  1.0000
  H   H3        1.0  0.4238061167715322  0.24232245498006022  0.9090840675109009  1.0000
  H   H4        1.0  0.4028899423535222  0.3149946621168631  0.4798378323878534  1.0000
  H   H5        1.0  0.2745402423365754  0.3544151844790009  0.4069101215982709  1.0000
  H   H6        1.0  0.20824287112817264  0.45477863106740424  0.7913204575205721  1.0000
  H   H7        1.0  0.336727631504628  0.41809175228314466  0.8648354052108818  1.0000
  H   H8        1.0  0.511410775634248  0.43280476019662606  0.5474743936813506  1.0000
  C   C15       1.0  0.9020149184324536  0.06140262687355569  0.5256326934077253  1.0000
  C   C16       1.0  0.8802578139791923  0.049744330748985544  0.658074628051212  1.0000
  C   C17       1.0  0.8691737093180504  0.9266992412165252  0.7251535796638466  1.0000
  C   C18       1.0  0.8801228499723195  0.8144587416498974  0.6580151077761613  1.0000
  C   C19       1.0  0.9018799211502286  0.8241248219411232  0.5255722422016242  1.0000
  C   C20       1.0  0.9127058767441272  0.9480351972876406  0.46012321571758186  1.0000
  C   C21       1.0  0.8461605021230825  0.9154196393022292  0.865270753375067  1.0000
  C   C22       1.0  0.7913414570090971  0.8232344717542387  0.9128778568590383  1.0000
  C   C23       1.0  0.7697497004124711  0.812893689070881  0.044613127520463425  1.0000
  C   C24       1.0  0.8024908506877592  0.8940581832061875  0.1304384580561797  1.0000
  C   C25       1.0  0.8575097485868781  0.9868578045027337  0.08469370771246454  1.0000
  C   C26       1.0  0.8788686487950429  0.9968315994220721  0.9524425638221596  1.0000
  O   O1        1.0  0.8922290286408185  0.0704240042083164  0.16694766492849888  1.0000
  C   C27       1.0  0.8761120017277861  0.07104682962956255  0.3030257794131357  1.0000
  H   H9        1.0  0.9103381832882808  0.3932972196317317  0.4751863969180825  1.0000
  H   H10       1.0  0.8708852037375323  0.13655668431735246  0.7089361023396252  1.0000
  H   H11       1.0  0.8726294810691452  0.7193905241870747  0.7097284628492577  1.0000
  H   H12       1.0  0.9294911417737614  0.9562606977557054  0.3579498319618095  1.0000
  H   H13       1.0  0.910132978523272  0.5003556637440383  0.4750915696802247  1.0000
  H   H14       1.0  0.7644759875493667  0.7603351066661168  0.8479176496029279  1.0000
  H   H15       1.0  0.7273178366118919  0.7419022323546944  0.0802592236507349  1.0000
  H   H16       1.0  0.7846792016616085  0.8839032992759908  0.23192716477239872  1.0000
  H   H17       1.0  0.9219065519288384  0.06741197307561508  0.9182811419125294  1.0000
  H   H18       1.0  0.8890854212349002  0.974846529489575  0.35304426185599735  1.0000
  H   H19       1.0  0.9115599030039557  0.14655813910161242  0.343593593125022  1.0000
  H   H20       1.0  0.8161380281457137  0.09450484682818039  0.32024329657959283  1.0000
  C   C28       1.0  0.9019776243457939  0.44265316912511365  0.14424898061708147  1.0000
  C   C29       1.0  0.8305568507533161  0.38290727410547687  0.15106222039108141  1.0000
  C   C30       1.0  0.7943376355962007  0.35274709728015163  0.03736899645336478  1.0000
  C   C31       1.0  0.8304953058232851  0.3831312176320305  0.9157611597296564  1.0000
  C   C32       1.0  0.9019172000630146  0.44287431639458297  0.9069560299100448  1.0000
  C   C33       1.0  0.937258383330024  0.47230152652393675  0.021741525954403595  1.0000
  C   C34       1.0  0.7187794136670101  0.2895559508001233  0.04563968862871337  1.0000
  C   C35       1.0  0.663133103529439  0.32986535296278086  0.9572614270238478  1.0000
  C   C36       1.0  0.59203417826734  0.2703601472887651  0.9652815490867113  1.0000
  C   C37       1.0  0.5755444956584187  0.17015020006762338  0.061618083608509844  1.0000
  C   C38       1.0  0.6305223359196332  0.12902563307055592  0.14962177997555215  1.0000
  C   C39       1.0  0.7016677696336558  0.1883585389865643  0.14196192311114508  1.0000
  S   S1        1.0  0.48434563948749026  0.09366438831330326  0.07145736607505482  1.0000
  C   C40       1.0  0.4457994051462336  0.20694311669232102  0.18196479412859357  1.0000
  H   H21       1.0  0.9292031723387759  0.4653718346684148  0.46910932926721904  1.0000
  H   H22       1.0  0.8024844142850694  0.3613032525962907  0.24491588900924643  1.0000
  H   H23       1.0  0.8032567550848698  0.3584683737710743  0.8279548513635975  1.0000
  H   H24       1.0  0.9923566447799728  0.5183921619914311  0.01571702138049824  1.0000
  H   H25       1.0  0.9291155593327599  0.4656971696410179  0.5761437969335055  1.0000
  H   H26       1.0  0.6742904602008322  0.40850387562738  0.8830586477748321  1.0000
  H   H27       1.0  0.5496989735702373  0.30266514948535517  0.8969115830741372  1.0000
  H   H28       1.0  0.618216624423177  0.05105519362363653  0.22400264385155144  1.0000
  H   H29       1.0  0.7435991379526438  0.15399274759410253  0.2102499903015298  1.0000
  H   H30       1.0  0.477568218677293  0.20168457669179318  0.2735054351792119  1.0000
  H   H31       1.0  0.3861854567995259  0.18036665023199916  0.20550528108947774  1.0000
  H   H32       1.0  0.4486855204650963  0.30773488265592364  0.13523078872533434  1.0000
  Zn  Zn1       1.0  0.8196284135984168  0.44076604287495624  0.5294237772146639  1.0000
  Zn  Zn2       1.0  0.9842592099494257  0.444760635705044  0.5217809430703833  1.0000
  C   C41       1.0  0.9019278539769936  0.437658827519255  0.7627885314422684  1.0000
  C   C42       1.0  0.9019615670338537  0.44786953332603496  0.28841623271480143  1.0000
  C   C43       1.0  0.9019019629678121  0.6799525207816968  0.520408924380394  1.0000
  C   C44       1.0  0.9019874021367746  0.2055742784295147  0.5307959117440408  1.0000
  O   O2        1.0  0.9644327082908486  0.45113045426531095  0.33389966422480977  1.0000
  O   O3        1.0  0.9644076780561428  0.43742873028576046  0.7115039919065484  1.0000
  O   O4        1.0  0.9643859284183033  0.6330839317732442  0.5157807833207702  1.0000
  O   O5        1.0  0.9644544017574198  0.25547526067666526  0.5296227780470995  1.0000
  O   O6        1.0  0.839433165610012  0.6300514165415882  0.5215819448392416  1.0000
  O   O7        1.0  0.8394549149737014  0.4343977753264363  0.7173050840589483  1.0000
  O   O8        1.0  0.8394799453900949  0.4480994535988727  0.3396991950408532  1.0000
  O   O9        1.0  0.8395016388475237  0.25244425074964205  0.5354224062279251  1.0000
