data_image0
_chemical_formula_structural       NC10NC3NH7C16H10C12NCOCH13Zn2C4O8
_chemical_formula_sum              "N4 C47 H30 O9 Zn2"
_cell_length_a       19.210446455230148
_cell_length_b       10.29914801576943
_cell_length_c       10.299158637457994
_cell_angle_alpha    85.55741753884429
_cell_angle_beta     89.9723271520695
_cell_angle_gamma    89.9607823085547

_space_group_name_H-M_alt    "P 1"
_space_group_IT_number       1

loop_
  _space_group_symop_operation_xyz
  'x, y, z'

loop_
  _atom_site_type_symbol
  _atom_site_label
  _atom_site_symmetry_multiplicity
  _atom_site_fract_x
  _atom_site_fract_y
  _atom_site_fract_z
  _atom_site_occupancy
  N   N1        1.0  0.6558946779803604  0.41979956690088427  0.5667813314123804  1.0000
  C   C1        1.0  0.5956661969662381  0.4220073117042067  0.5670116600506792  1.0000
  C   C2        1.0  0.5208618421469093  0.42474451090589826  0.5672970077204602  1.0000
  C   C3        1.0  0.4852540458054256  0.5409880826274178  0.5823656573911613  1.0000
  C   C4        1.0  0.4125885809879278  0.5411396124744932  0.5823130033380488  1.0000
  C   C5        1.0  0.3756951070499728  0.425453555517894  0.5673832277318074  1.0000
  C   C6        1.0  0.2983729399254743  0.4240969359261011  0.5672331393082304  1.0000
  C   C7        1.0  0.2606328990327864  0.5276532635976281  0.5038324610781373  1.0000
  C   C8        1.0  0.1878544975037501  0.5262508997080659  0.5037239076695446  1.0000
  C   C9        1.0  0.1518147449969121  0.42154971841090494  0.5669649395993552  1.0000
  C   C10       1.0  0.0768851874845188  0.4202475012217548  0.5668285943166258  1.0000
  N   N2        1.0  0.0166473050433734  0.419200474401622  0.5667190076018533  1.0000
  C   C11       1.0  0.1888311377616883  0.3181190834564087  0.6303405624697496  1.0000
  C   C12       1.0  0.2616113684448703  0.31924717742569486  0.6304994640364059  1.0000
  C   C13       1.0  0.4139128032026272  0.3110304615344397  0.5526020673379264  1.0000
  N   N3        1.0  0.4846828341056631  0.3134756596151942  0.5527667217014354  1.0000
  H   H1        1.0  0.5133571639259246  0.6304318673269047  0.5943808900214058  1.0000
  H   H2        1.0  0.3853216995854004  0.6311657698730986  0.5957227509671619  1.0000
  H   H3        1.0  0.2873711894315222  0.6088950878896029  0.45281131588304313  1.0000
  H   H4        1.0  0.1597188633426827  0.6066654083126768  0.4540334714467953  1.0000
  H   H5        1.0  0.1614534127543226  0.23674107862155602  0.6799318718115952  1.0000
  H   H6        1.0  0.2891019235541618  0.2389523447741635  0.6816275904640781  1.0000
  H   H7        1.0  0.3876454598396407  0.22014130869161663  0.5391463933895557  1.0000
  C   C14       1.0  0.8362247200808958  0.03809879839055341  0.5669157298671388  1.0000
  C   C15       1.0  0.8203538609454327  0.04767694098808373  0.43344327563605867  1.0000
  C   C16       1.0  0.8123581797222726  0.9354033590864479  0.3656052939630159  1.0000
  C   C17       1.0  0.820446852223394  0.8124248289437107  0.43303866558156967  1.0000
  C   C18       1.0  0.836323901612762  0.8008912637745849  0.5665958724098987  1.0000
  C   C19       1.0  0.8441163216228216  0.9142442972644412  0.632712047751885  1.0000
  C   C20       1.0  0.7955688966100889  0.9465814842000857  0.22440753417601988  1.0000
  C   C21       1.0  0.8285172533695436  0.8655116514812726  0.13918337391218905  1.0000
  C   C22       1.0  0.8126914400840809  0.8761573347825146  0.006293489391646423  1.0000
  C   C23       1.0  0.7637548433508586  0.967772794054555  0.9568235215134298  1.0000
  C   C24       1.0  0.7306797794965122  0.04882270030406288  0.04076375108658348  1.0000
  C   C25       1.0  0.7464559586315925  0.03841837250597058  0.17367459095069626  1.0000
  C   C26       1.0  0.7474878440708089  0.9786087836157822  0.8200009319612613  1.0000
  C   C27       1.0  0.7338644074491945  0.9876838214227847  0.7054139925861387  1.0000
  C   C28       1.0  0.717911524077677  0.9983105681994442  0.5712338550373128  1.0000
  C   C29       1.0  0.7042903739894965  0.007384231551331721  0.45666542319932324  1.0000
  H   H8        1.0  0.8422935311419876  0.36188929869186626  0.6182690534281408  1.0000
  H   H9        1.0  0.8151115170327609  0.14272268195130255  0.38153362708359184  1.0000
  H   H10       1.0  0.8134077030150816  0.7255251445823383  0.3816239134852655  1.0000
  H   H11       1.0  0.8563558865025148  0.9061405429853151  0.7356636337597489  1.0000
  H   H12       1.0  0.865859895429034  0.571816479347774  0.8188564127545734  1.0000
  H   H13       1.0  0.8671796958080247  0.7950554049625062  0.17502671507632117  1.0000
  H   H14       1.0  0.838745308032202  0.8131685395223879  0.9421135505234122  1.0000
  H   H15       1.0  0.6925712364757761  0.11984189625045327  0.003550409087667017  1.0000
  H   H16       1.0  0.7195907686858679  0.10101842498064517  0.237051875325049  1.0000
  H   H17       1.0  0.6923299076783026  0.015351674366116841  0.3560646795836986  1.0000
  C   C30       1.0  0.8363395582605152  0.41935694950987634  0.18538274184572878  1.0000
  C   C31       1.0  0.8379746762955099  0.5560691064472953  0.17401158549867768  1.0000
  C   C32       1.0  0.8387490884710503  0.6255240213881847  0.05108857038027237  1.0000
  C   C33       1.0  0.8378414683540069  0.5564292279737568  0.9386999790071555  1.0000
  C   C34       1.0  0.836209071937122  0.4196331505006461  0.9481288639215903  1.0000
  C   C35       1.0  0.8354712114234251  0.35193813325948664  0.07185778066614579  1.0000
  C   C36       1.0  0.8404796769016191  0.7701487061750669  0.040032820719572815  1.0000
  C   C37       1.0  0.8832129890209229  0.8379174087855854  0.12256437282217525  1.0000
  C   C38       1.0  0.8848472370087439  0.9740168552650277  0.11202947106719541  1.0000
  C   C39       1.0  0.8442220245427795  0.04507571464420712  0.017857163778554508  1.0000
  C   C40       1.0  0.8006597883936041  0.9776688071746351  0.9371086831163167  1.0000
  C   C41       1.0  0.7990541224685856  0.8415972250513302  0.9473825813718171  1.0000
  N   N4        1.0  0.8439744078629589  0.18513399569694622  0.006563096505040056  1.0000
  C   C42       1.0  0.903624035432542  0.26402954117572675  0.029751232141836947  1.0000
  O   O1        1.0  0.9636341030157419  0.21451302392838967  0.038277720874961396  1.0000
  C   C43       1.0  0.8954774393875653  0.40787043485453767  0.03429488676597159  1.0000
  H   H18       1.0  0.8357324300651033  0.3667697079754688  0.5172323453312968  1.0000
  H   H19       1.0  0.8376772522144039  0.6088913340780628  0.2609403416338456  1.0000
  H   H20       1.0  0.8393574747588338  0.6094448161275654  0.8437058760281255  1.0000
  H   H21       1.0  0.8342123895808868  0.24648884859280984  0.07991372167428712  1.0000
  H   H22       1.0  0.8335505965202198  0.16142162997782172  0.758633108084787  1.0000
  H   H23       1.0  0.915785565289544  0.7856318401564417  0.19477318846691327  1.0000
  H   H24       1.0  0.9169747481021671  0.02330727497006313  0.17903474560856814  1.0000
  H   H25       1.0  0.7681071458181068  0.030829424349852363  0.8654687876424876  1.0000
  H   H26       1.0  0.7646461163407418  0.792263808349364  0.8840619623045578  1.0000
  H   H27       1.0  0.7988575494879013  0.2326679447771336  0.9716042556865747  1.0000
  H   H28       1.0  0.8465337251819371  0.42966823553673805  0.08571203762780555  1.0000
  H   H29       1.0  0.893611988372273  0.4545448377663166  0.9335568426093603  1.0000
  H   H30       1.0  0.9398923077359868  0.44856778350309545  0.08692487750673705  1.0000
  Zn  Zn1       1.0  0.7600000908921051  0.41962322011499875  0.5667708467081827  1.0000
  Zn  Zn2       1.0  0.9125418729958849  0.4193662415943018  0.566740132636754  1.0000
  C   C44       1.0  0.8362315088168623  0.414406808252638  0.8039556593574353  1.0000
  C   C45       1.0  0.8363121210139324  0.42458428945505533  0.32955544643270596  1.0000
  C   C46       1.0  0.8363024623893535  0.656705393587161  0.5614810830310797  1.0000
  C   C47       1.0  0.8362411151748383  0.182284143798495  0.5720300926633068  1.0000
  O   O2        1.0  0.8941917234167427  0.4262354442621279  0.37792946967216423  1.0000
  O   O3        1.0  0.8941275893907937  0.41255963275354834  0.755557951409245  1.0000
  O   O4        1.0  0.8941841046980247  0.6082188064986125  0.5597580150686521  1.0000
  O   O5        1.0  0.8941351560752014  0.23057627986050488  0.5737293086436195  1.0000
  O   O6        1.0  0.7784067557577662  0.6084131819379011  0.5597816707049665  1.0000
  O   O7        1.0  0.7783502406621156  0.4127555686039801  0.7555815371449646  1.0000
  O   O8        1.0  0.7784143749955973  0.4264313342873205  0.3779514940092559  1.0000
  O   O9        1.0  0.7783578076333441  0.2307721606313622  0.573751430353499  1.0000
