data_image0
_chemical_formula_structural       NC10NC3NCH9C12NH11C12SCH12Zn2C4O8
_chemical_formula_sum              "N4 C43 H32 S1 Zn2 O8"
_cell_length_a       19.437513618241372
_cell_length_b       10.299770795358612
_cell_length_c       10.299780138516091
_cell_angle_alpha    85.57228714023374
_cell_angle_beta     90.3395305496005
_cell_angle_gamma    89.53989505547142

_space_group_name_H-M_alt    "P 1"
_space_group_IT_number       1

loop_
  _space_group_symop_operation_xyz
  'x, y, z'

loop_
  _atom_site_type_symbol
  _atom_site_label
  _atom_site_symmetry_multiplicity
  _atom_site_fract_x
  _atom_site_fract_y
  _atom_site_fract_z
  _atom_site_occupancy
  N   N1        1.0  0.6481785200635377  0.41006544477629925  0.5756953488398255  1.0000
  C   C1        1.0  0.5892480779762987  0.42707460671629316  0.5727195126741829  1.0000
  C   C2        1.0  0.5158112205021428  0.4483260026935443  0.5690257201607369  1.0000
  C   C3        1.0  0.47403253194294553  0.34713462370884374  0.5573666901597822  1.0000
  C   C4        1.0  0.3981444553089127  0.3571976448911731  0.5501456890894467  1.0000
  C   C5        1.0  0.3585814409839572  0.43805992697172824  0.615885488585195  1.0000
  C   C6        1.0  0.2823980568255336  0.42944988453301525  0.6074417388922162  1.0000
  C   C7        1.0  0.2492421125894694  0.3081077227086728  0.6120845972388085  1.0000
  C   C8        1.0  0.1775065930802811  0.30173444756936196  0.6049168409189516  1.0000
  C   C9        1.0  0.1379563033086122  0.4162307350749064  0.5934684406685948  1.0000
  C   C10       1.0  0.0641062596217679  0.4095192469235256  0.5861325995608819  1.0000
  N   N2        1.0  0.0047359226109981  0.40412380060923137  0.5802350416970574  1.0000
  C   C11       1.0  0.17039557956057572  0.537262492729311  0.5895708245192672  1.0000
  C   C12       1.0  0.2421155441301993  0.5438897695185974  0.5968006001697814  1.0000
  C   C13       1.0  0.3872782057338481  0.5303631488575884  0.7058016749571732  1.0000
  N   N3        1.0  0.4442744381627996  0.5935704976575007  0.6853985513989642  1.0000
  C   C14       1.0  0.4881162542812019  0.5842853472292304  0.5722960057829529  1.0000
  H   H1        1.0  0.4964007805409358  0.25207704150241206  0.545245776740602  1.0000
  H   H2        1.0  0.3734199007675761  0.2876739243948039  0.4918299712212548  1.0000
  H   H3        1.0  0.2786770161990383  0.21819940447066544  0.6231047171595039  1.0000
  H   H4        1.0  0.1528970352258356  0.20751025789728494  0.6088035917524104  1.0000
  H   H5        1.0  0.1402752293609605  0.6265164019592746  0.5808627476195465  1.0000
  H   H6        1.0  0.2662436502597102  0.6385267500661225  0.5928983913194892  1.0000
  H   H7        1.0  0.3572764807265942  0.5507663412730752  0.790164620141045  1.0000
  H   H8        1.0  0.530880595419556  0.654598078590036  0.5780593337868132  1.0000
  H   H9        1.0  0.4584559991155505  0.6123745305107127  0.4816545467810802  1.0000
  C   C15       1.0  0.8263981705762921  0.025727052252676463  0.5780040527578953  1.0000
  C   C16       1.0  0.8064389000455636  0.03519812457947258  0.44634542198556604  1.0000
  C   C17       1.0  0.7963884880937278  0.9228599724333312  0.37959866568280165  1.0000
  C   C18       1.0  0.8065648328898578  0.7999143934069588  0.4462784756061029  1.0000
  C   C19       1.0  0.8265228583334268  0.7884520501692489  0.5779376410484927  1.0000
  C   C20       1.0  0.8363280965212299  0.9019147952136226  0.6430630350622368  1.0000
  C   C21       1.0  0.7752730395294339  0.9339332173978888  0.24031147976869804  1.0000
  C   C22       1.0  0.7251794313755667  0.025933223244658743  0.19448854941747196  1.0000
  C   C23       1.0  0.7053350714737997  0.036225644213287556  0.06339076480746275  1.0000
  C   C24       1.0  0.7352087585337225  0.9549431792340753  0.9760310833586603  1.0000
  C   C25       1.0  0.7851373355064886  0.8631437557236308  0.0209613936617139  1.0000
  C   C26       1.0  0.8050368115002738  0.8525943821310561  0.1520299083452723  1.0000
  N   N4        1.0  0.714881235711012  0.9656028708596501  0.8419427755133344  1.0000
  H   H10       1.0  0.833974315461344  0.34957088592986896  0.6281888539445803  1.0000
  H   H11       1.0  0.7995743779199022  0.13020344364204783  0.394908084567009  1.0000
  H   H12       1.0  0.797973236257289  0.713014508855374  0.3957592099125795  1.0000
  H   H13       1.0  0.8517252466684819  0.8938402645125588  0.7446318310565427  1.0000
  H   H14       1.0  0.8341577043689578  0.45663142265718565  0.6280915696247118  1.0000
  H   H15       1.0  0.7007007287697412  0.0887707659201622  0.26037714300815407  1.0000
  H   H16       1.0  0.6665485742712133  0.10734393543126086  0.02998683746533004  1.0000
  H   H17       1.0  0.8087652295809734  0.7999746432068604  0.9543727253081657  1.0000
  H   H18       1.0  0.8443508445116737  0.7819771685945043  0.18400107433395818  1.0000
  H   H19       1.0  0.7368577357397819  0.905422823491214  0.776085932551819  1.0000
  H   H20       1.0  0.6777051580588833  0.03375402022563123  0.8075362302416527  1.0000
  C   C27       1.0  0.8264881523898364  0.40697778252265193  0.1966191137059965  1.0000
  C   C28       1.0  0.7610625590143292  0.35005656713607114  0.19928569365035154  1.0000
  C   C29       1.0  0.7278836909471555  0.32132885373649667  0.0834895977798491  1.0000
  C   C30       1.0  0.7610062699489122  0.35028294382463554  0.9639810603947083  1.0000
  C   C31       1.0  0.8264328886869517  0.4072013186453236  0.9593226554598506  1.0000
  C   C32       1.0  0.8588074288424019  0.4352307913579285  0.0761600452815594  1.0000
  C   C33       1.0  0.6586679587932587  0.2611260222246976  0.08737341166862933  1.0000
  C   C34       1.0  0.6077209752369479  0.3036359334525851  0.9957645628100273  1.0000
  C   C35       1.0  0.5425902044049056  0.24694267846042428  0.9996567113505246  1.0000
  C   C36       1.0  0.5274565565881152  0.14738518710736792  0.09503564906824202  1.0000
  C   C37       1.0  0.5777910994142212  0.10408654978069354  0.18623112098106187  1.0000
  C   C38       1.0  0.6429644059316948  0.16060566632625428  0.18270193737986262  1.0000
  S   S1        1.0  0.4439130227966711  0.07450627549716882  0.09957996413734715  1.0000
  C   C39       1.0  0.4086498070057027  0.18930900979493148  0.20784977256534165  1.0000
  H   H21       1.0  0.8514283235841247  0.4286196823933974  0.5230601659889675  1.0000
  H   H22       1.0  0.7353471821919101  0.32956279944321865  0.2915094931398261  1.0000
  H   H23       1.0  0.7360535579985567  0.3266973864181921  0.8745932887006114  1.0000
  H   H24       1.0  0.9092806489781463  0.4791422998168111  0.07333452240139282  1.0000
  H   H25       1.0  0.851348194754366  0.42894848110021444  0.6300895478630091  1.0000
  H   H26       1.0  0.6179643302876817  0.38183295060145017  0.9222097456420442  1.0000
  H   H27       1.0  0.5038307377910631  0.2809218023342719  0.928828948084842  1.0000
  H   H28       1.0  0.566496314691316  0.026603027593005812  0.2598973537930329  1.0000
  H   H29       1.0  0.6813533738762186  0.12458173073325085  0.2534243510111769  1.0000
  H   H30       1.0  0.4377415275095555  0.1827941259917476  0.30123481905730354  1.0000
  H   H31       1.0  0.3540475381267707  0.16509018638619444  0.22792915632868183  1.0000
  H   H32       1.0  0.4113256886377262  0.2899862983235486  0.16128357607682298  1.0000
  Zn  Zn1       1.0  0.7510732887690108  0.4083473276140144  0.5770129150557683  1.0000
  Zn  Zn2       1.0  0.9018411575978269  0.4058312513895015  0.5789281458019138  1.0000
  C   C40       1.0  0.8264409472278685  0.4019854260436255  0.815155762687189  1.0000
  C   C41       1.0  0.8264751457780579  0.41219476413521616  0.34078544640289543  1.0000
  C   C42       1.0  0.826496127455858  0.6442793253938368  0.5727752491766003  1.0000
  C   C43       1.0  0.8264199138434333  0.16989930536712294  0.5831660286312248  1.0000
  O   O1        1.0  0.8836864002012613  0.41298512728735504  0.3898958052115087  1.0000
  O   O2        1.0  0.8836590165816425  0.39928443942673075  0.767498645955506  1.0000
  O   O3        1.0  0.8837028039218079  0.5949398406440181  0.571774656497843  1.0000
  O   O4        1.0  0.8836425614228098  0.21732973619028462  0.5856196966445382  1.0000
  O   O5        1.0  0.7692718334943544  0.5968488436732566  0.5703213635527387  1.0000
  O   O6        1.0  0.7692280464111506  0.4011950027338764  0.7660452836322569  1.0000
  O   O7        1.0  0.7692554301822743  0.41489564488035513  0.38844088156233925  1.0000
  O   O8        1.0  0.7692115913924352  0.21924024452309276  0.5841648703595974  1.0000
