data_image0
_chemical_formula_structural       NC8NC6H8C12NCOCH13C12SCH12Zn2C4O8
_chemical_formula_sum              "N3 C45 H33 O9 S1 Zn2"
_cell_length_a       17.457602349358154
_cell_length_b       10.299155265289647
_cell_length_c       10.299780138516091
_cell_angle_alpha    85.56043235920357
_cell_angle_beta     92.86764560524759
_cell_angle_gamma    91.66712233072684

_space_group_name_H-M_alt    "P 1"
_space_group_IT_number       1

loop_
  _space_group_symop_operation_xyz
  'x, y, z'

loop_
  _atom_site_type_symbol
  _atom_site_label
  _atom_site_symmetry_multiplicity
  _atom_site_fract_x
  _atom_site_fract_y
  _atom_site_fract_z
  _atom_site_occupancy
  N   N1        1.0  0.722209684337746  0.45252506915118107  0.6261166690891173  1.0000
  C   C1        1.0  0.6611429283947824  0.406594104382924  0.6155159331347555  1.0000
  C   C2        1.0  0.5851732989128017  0.3494617016594659  0.6023381572938808  1.0000
  C   C3        1.0  0.5266295876494139  0.3896473618103531  0.6772194673366274  1.0000
  C   C4        1.0  0.4520975152891573  0.33463352265914126  0.6646554320274618  1.0000
  C   C5        1.0  0.3899620459960411  0.37706372950036915  0.7439576196318793  1.0000
  C   C6        1.0  0.3154157441412446  0.39551726231791573  0.688191066324042  1.0000
  C   C7        1.0  0.2568720626249971  0.435519017038311  0.7631803825963779  1.0000
  C   C8        1.0  0.18088764855938672  0.45457780462614306  0.7051982876722489  1.0000
  N   N2        1.0  0.11980909757907351  0.46989468981643445  0.6585808364023331  1.0000
  C   C9        1.0  0.2723824244937689  0.457310540298836  0.8944446679416369  1.0000
  C   C10       1.0  0.3461439035861738  0.4392461280450535  0.9505986776187187  1.0000
  C   C11       1.0  0.4046759026997779  0.3994245692605123  0.8760670032123627  1.0000
  C   C12       1.0  0.4373980681483478  0.23875615386714677  0.575777451505225  1.0000
  C   C13       1.0  0.4959299662927272  0.19884930462878336  0.5012960371494359  1.0000
  C   C14       1.0  0.5696772032556131  0.2539756834010187  0.5144099595384775  1.0000
  H   H1        1.0  0.5389513430873346  0.46486520293349987  0.7438231902083245  1.0000
  H   H2        1.0  0.3030823602598284  0.38051690651469916  0.5861763710053984  1.0000
  H   H3        1.0  0.2275097542557225  0.4882119703966159  0.9532678554574638  1.0000
  H   H4        1.0  0.3579632566730178  0.4558041294280126  0.05223964049670715  1.0000
  H   H5        1.0  0.4611611553060811  0.38444506793651056  0.9221758845261254  1.0000
  H   H6        1.0  0.38092446066861513  0.19341488172273547  0.5651404147864161  1.0000
  H   H7        1.0  0.4841218667537824  0.12474764807457062  0.433493701070758  1.0000
  H   H8        1.0  0.6145500714518451  0.22220465026760583  0.45609814541729543  1.0000
  C   C15       1.0  0.9210987358236294  0.07981631373614118  0.642474748106201  1.0000
  C   C16       1.0  0.9080043704466847  0.0889176848668165  0.506487029764068  1.0000
  C   C17       1.0  0.9012909586245452  0.9763913197163556  0.43741460773331764  1.0000
  C   C18       1.0  0.9078209560137803  0.853649841767521  0.5061642842017775  1.0000
  C   C19       1.0  0.9209274051322595  0.8425937808488214  0.6422345757439898  1.0000
  C   C20       1.0  0.9274890200296197  0.9561907139768004  0.7095523808405382  1.0000
  C   C21       1.0  0.8874396482470719  0.9869931820902514  0.2935560994841462  1.0000
  C   C22       1.0  0.9263540260263544  0.08278800900219485  0.2153198787830477  1.0000
  C   C23       1.0  0.9133253430766924  0.09263445846818552  0.07993995279167931  1.0000
  C   C24       1.0  0.8615988214622732  0.006021375507113014  0.01996863752483713  1.0000
  C   C25       1.0  0.8217473263716194  0.9120018816327746  0.09806018608078104  1.0000
  C   C26       1.0  0.8348039547457586  0.9019006261902635  0.2334050601970845  1.0000
  N   N3        1.0  0.8461014968071776  0.015558145661779266  0.8811489767989737  1.0000
  C   C27       1.0  0.9021275929667817  0.05492279535739564  0.7875106298201979  1.0000
  O   O1        1.0  0.9725067831621278  0.0605372161230755  0.8211141688591499  1.0000
  C   C28       1.0  0.8776638179541405  0.08027340483616263  0.6469800698909203  1.0000
  H   H9        1.0  0.9261592029104688  0.40379276319707635  0.6947776917971489  1.0000
  H   H10       1.0  0.9019386821725036  0.18368754133115783  0.45418467152094655  1.0000
  H   H11       1.0  0.9036982487295031  0.7666602390268252  0.4532018003608578  1.0000
  H   H12       1.0  0.9375915604246944  0.9484558838655726  0.8144423152634741  1.0000
  H   H13       1.0  0.9461245451007608  0.6144627707293848  0.8989668318211428  1.0000
  H   H14       1.0  0.9673176319346204  0.14963385128653028  0.2587549247832688  1.0000
  H   H15       1.0  0.9427621238299373  0.16936428130807868  0.022765972289458647  1.0000
  H   H16       1.0  0.780710164721298  0.8458567046816637  0.05375214089256386  1.0000
  H   H17       1.0  0.8029019029898463  0.8286796181596284  0.2912106567348822  1.0000
  H   H18       1.0  0.7920681894233775  0.9843229102986474  0.8456652171543939  1.0000
  H   H19       1.0  0.8222841479490751  0.13129886763345566  0.6380048744932947  1.0000
  H   H20       1.0  0.8705682425769056  0.9863448424750588  0.6011788667881408  1.0000
  H   H21       1.0  0.9213429825185642  0.14226188709747456  0.5951539258249543  1.0000
  C   C29       1.0  0.9210439191206463  0.4610950654501065  0.26100510268146393  1.0000
  C   C30       1.0  0.8481110388885639  0.3998930363162314  0.2585617204139039  1.0000
  C   C31       1.0  0.8111249915223187  0.3689944289059499  0.14017420836773664  1.0000
  C   C32       1.0  0.8480481788538152  0.4001157459854281  0.023252624523648402  1.0000
  C   C33       1.0  0.9209822036231323  0.4613150014264027  0.023704262783331487  1.0000
  C   C34       1.0  0.9570716295125078  0.49146274085254005  0.14307024765502363  1.0000
  C   C35       1.0  0.7339670650109261  0.3042627947926959  0.13865203344928578  1.0000
  C   C36       1.0  0.6771388101504308  0.3434442738187691  0.04304315334403408  1.0000
  C   C37       1.0  0.6045345936114347  0.28248949373848675  0.04184837318822532  1.0000
  C   C38       1.0  0.5876995871355284  0.181936787286596  0.13606611249578515  1.0000
  C   C39       1.0  0.6438452306397253  0.1419264951447743  0.23121384352756302  1.0000
  C   C40       1.0  0.7164969495675142  0.20270990763875107  0.23277496161982447  1.0000
  S   S1        1.0  0.49456989518433103  0.10359158901903442  0.13408543923739535  1.0000
  C   C41       1.0  0.4552011810104338  0.21609548971044146  0.23956605786751162  1.0000
  H   H22       1.0  0.9488458835633637  0.4843688039926586  0.5893940810588949  1.0000
  H   H23       1.0  0.8194441758047062  0.377716813876926  0.3487766089762683  1.0000
  H   H24       1.0  0.8202330212194552  0.3748974171315278  0.9319164124006827  1.0000
  H   H25       1.0  0.013336420610336797  0.5386767252992504  0.14418685581058543  1.0000
  H   H26       1.0  0.9487563981377151  0.4846923829898919  0.6964171086905204  1.0000
  H   H27       1.0  0.6885293466548694  0.42231553962528423  0.9702717027770618  1.0000
  H   H28       1.0  0.5613001042756848  0.31393650676442997  0.9679770702371173  1.0000
  H   H29       1.0  0.6312819550881456  0.06370002352941695  0.3040141976302808  1.0000
  H   H30       1.0  0.7593191281949608  0.16919374104798846  0.3065123922616755  1.0000
  H   H31       1.0  0.4876439947291058  0.21148223679661537  0.3352309261904436  1.0000
  H   H32       1.0  0.3943240755911438  0.1883053776845316  0.25537521393967166  1.0000
  H   H33       1.0  0.458144083179406  0.31695357281695125  0.1931851878086368  1.0000
  Zn  Zn1       1.0  0.8369482865870644  0.4575340857039323  0.6354926256957822  1.0000
  Zn  Zn2       1.0  0.005070482611582605  0.46487502781735723  0.6492155151363472  1.0000
  C   C42       1.0  0.9209933123791738  0.4560993328137366  0.8795392563720217  1.0000
  C   C43       1.0  0.9210272923301734  0.46631149963327667  0.4051691612576689  1.0000
  C   C44       1.0  0.9209562388937591  0.698410909348065  0.6371047529036928  1.0000
  C   C45       1.0  0.9210643087921732  0.22399836020994712  0.6476037297697417  1.0000
  O   O2        1.0  0.9848232107154028  0.47084236576251937  0.4587597030799988  1.0000
  O   O3        1.0  0.9847982509441001  0.4571390919967562  0.8363636965904488  1.0000
  O   O4        1.0  0.984767453451792  0.652808717331151  0.6405960491460752  1.0000
  O   O5        1.0  0.9848539508447868  0.27517274718590734  0.6545272484690274  1.0000
  O   O6        1.0  0.8571647609820061  0.6472363638316911  0.6301808876733226  1.0000
  O   O7        1.0  0.8571955581258753  0.45156829888260575  0.8259484653841729  1.0000
  O   O8        1.0  0.8572205180847249  0.4652715269414742  0.44834291057066866  1.0000
  O   O9        1.0  0.8572512582051789  0.26960189910338817  0.6441105533252631  1.0000
