data_image0
_chemical_formula_structural       NC8NC6H8C12SCH12C13NH13Zn2C4O8
_chemical_formula_sum              "N3 C44 H33 S1 Zn2 O8"
_cell_length_a       17.457602349358154
_cell_length_b       10.299776766347529
_cell_length_c       10.299780419254978
_cell_angle_alpha    85.57449051580876
_cell_angle_beta     92.86230706440833
_cell_angle_gamma    91.66964631390691

_space_group_name_H-M_alt    "P 1"
_space_group_IT_number       1

loop_
  _space_group_symop_operation_xyz
  'x, y, z'

loop_
  _atom_site_type_symbol
  _atom_site_label
  _atom_site_symmetry_multiplicity
  _atom_site_fract_x
  _atom_site_fract_y
  _atom_site_fract_z
  _atom_site_occupancy
  N   N1        1.0  0.7223375595451129  0.4525027677997242  0.6265779157667255  1.0000
  C   C1        1.0  0.6612697926793213  0.40657638623995185  0.6159625538084292  1.0000
  C   C2        1.0  0.5852989052739175  0.3494496838674983  0.6027665850454855  1.0000
  C   C3        1.0  0.5267523970333705  0.389626626488105  0.6776607410080429  1.0000
  C   C4        1.0  0.4522191063764348  0.3346182673338549  0.6650791874945399  1.0000
  C   C5        1.0  0.3900806705036138  0.37703925262393523  0.7443949386997506  1.0000
  C   C6        1.0  0.3155381430798295  0.3954952512104408  0.688634216418333  1.0000
  C   C7        1.0  0.2569916520963214  0.43548829595585414  0.7636363201619747  1.0000
  C   C8        1.0  0.1810111579447017  0.4545496579177519  0.7056602472241547  1.0000
  N   N2        1.0  0.11993575834359949  0.4698686134247805  0.6590476356008341  1.0000
  C   C9        1.0  0.2724954100435261  0.4572685867424766  0.8949076397683391  1.0000
  C   C10       1.0  0.3462531065670639  0.43920164853361254  0.9510559425526226  1.0000
  C   C11       1.0  0.4047878957675601  0.3993887518892585  0.8765115383689621  1.0000
  C   C12       1.0  0.4375212946083094  0.23875525528306762  0.576170626029817  1.0000
  C   C13       1.0  0.496055977037485  0.19885707167666555  0.5016764547899872  1.0000
  C   C14       1.0  0.5698044053751291  0.25397792162868393  0.5148079316145096  1.0000
  H   H1        1.0  0.5390730447277211  0.46483342852945  0.7442884529290832  1.0000
  H   H2        1.0  0.3032099592312266  0.38050346388293077  0.5866146702326387  1.0000
  H   H3        1.0  0.2276205193320297  0.48816322423344816  0.9537407063028585  1.0000
  H   H4        1.0  0.3580673350488963  0.4557509786249172  0.052702251753439344  1.0000
  H   H5        1.0  0.4612700373276845  0.3844071886627056  0.9226156870290512  1.0000
  H   H6        1.0  0.3810466988587196  0.19341851987544034  0.5655191509556892  1.0000
  H   H7        1.0  0.48424909152355283  0.12476644731789355  0.4338504839967221  1.0000
  H   H8        1.0  0.6146794349477821  0.22221371678004198  0.45648596209940595  1.0000
  C   C15       1.0  0.9212126630035333  0.07982385685153348  0.6428173885744024  1.0000
  C   C16       1.0  0.9258040854073812  0.0684922327667532  0.7797001500502181  1.0000
  C   C17       1.0  0.9280567306602855  0.9456085626173844  0.8490590610092548  1.0000
  C   C18       1.0  0.9256573853034556  0.8331980522857176  0.7797033594885503  1.0000
  C   C19       1.0  0.9210680119882745  0.8425378181949392  0.6428200160021862  1.0000
  C   C20       1.0  0.9188709094042382  0.966290837717357  0.5751432300188088  1.0000
  C   C21       1.0  0.9329054828201653  0.9346845197713088  0.9938648875954659  1.0000
  C   C22       1.0  0.8889874127057783  0.8393219477647998  0.06431771996063129  1.0000
  C   C23       1.0  0.893573697511483  0.8292766065678863  0.20059549979730606  1.0000
  C   C24       1.0  0.9418865227183568  0.9143072954201128  0.26821139776944736  1.0000
  C   C25       1.0  0.9859874865770583  0.00910436661510361  0.19914650493675612  1.0000
  C   C26       1.0  0.9815136991138186  0.019504507840147234  0.06286749761825183  1.0000
  S   S1        1.0  0.9478559586792324  0.9009608980750683  0.44308144751946266  1.0000
  C   C27       1.0  0.8707604178751774  0.01365966907327354  0.4563133101667113  1.0000
  H   H9        1.0  0.9194933052284203  0.4115965202516094  0.5906613076804339  1.0000
  H   H10       1.0  0.9265810005817706  0.15536873015274555  0.8327195654325747  1.0000
  H   H11       1.0  0.9284347065627847  0.7383170708137685  0.8326900097240117  1.0000
  H   H12       1.0  0.9153293467858978  0.9742642385060786  0.46954404261019556  1.0000
  H   H13       1.0  0.919280949616173  0.518641251333122  0.5906630715913719  1.0000
  H   H14       1.0  0.850373683139944  0.7736611281164779  0.014052316552188526  1.0000
  H   H15       1.0  0.8592656152188916  0.7557279501660275  0.25351275309010846  1.0000
  H   H16       1.0  0.02378447949975504  0.07478573426357182  0.2509340734615161  1.0000
  H   H17       1.0  0.016789874931443682  0.0927268033981925  0.011442283022212618  1.0000
  H   H18       1.0  0.8861252883609776  0.11064985489212642  0.4086925998900842  1.0000
  H   H19       1.0  0.8618562066284406  0.023973004351721894  0.5608607311814757  1.0000
  H   H20       1.0  0.8167814290696683  0.9757603940760777  0.40978492552377055  1.0000
  C   C28       1.0  0.9211925818145784  0.4610982495386309  0.26146880182613375  1.0000
  C   C29       1.0  0.9767194068111952  0.5625516499234975  0.25734368349790726  1.0000
  C   C30       1.0  0.004796116143787277  0.6140515909676174  0.13810470275015385  1.0000
  C   C31       1.0  0.9766140060260586  0.5627192772870488  0.022034903368948422  1.0000
  C   C32       1.0  0.9210880929221434  0.46126339741033484  0.02416854276653968  1.0000
  C   C33       1.0  0.8936861997421596  0.4110243415203605  0.14436507761334716  1.0000
  C   C34       1.0  0.06354131646574257  0.7213781149874023  0.13483246953035066  1.0000
  C   C35       1.0  0.05833528025718304  0.8257273468172805  0.03858300025961192  1.0000
  C   C36       1.0  0.1136524879898344  0.9266590549985816  0.035590805376897405  1.0000
  C   C37       1.0  0.17480836883056416  0.925627089518813  0.12925948121685193  1.0000
  C   C38       1.0  0.18074991358269954  0.821031147734669  0.22451223774846252  1.0000
  C   C39       1.0  0.12544857328611592  0.7200754338588908  0.2276784986437057  1.0000
  C   C40       1.0  0.23537103962147943  0.03248899600566846  0.1237518421612318  1.0000
  N   N3        1.0  0.2941896639645005  0.002406405766444575  0.035676748083039556  1.0000
  H   H21       1.0  0.9000654494778272  0.42239425352371285  0.5905000298378715  1.0000
  H   H22       1.0  0.9975081579392941  0.6029650990839857  0.3469120165455226  1.0000
  H   H23       1.0  0.9988472536160564  0.6008449716685413  0.9300437784497526  1.0000
  H   H24       1.0  0.8508500384454799  0.3327566274607463  0.14677887536673673  1.0000
  H   H25       1.0  0.8999156131949361  0.4226264149039012  0.6975250589616304  1.0000
  H   H26       1.0  0.01101916262028757  0.8300070803374942  0.9664173616871321  1.0000
  H   H27       1.0  0.10869618119848723  0.005841873147471421  0.9603482902781653  1.0000
  H   H28       1.0  0.22835078738350378  0.8174161041132  0.29617461878045925  1.0000
  H   H29       1.0  0.13174220018634064  0.6399338779048405  0.3015643187310435  1.0000
  H   H30       1.0  0.20884421534663833  0.12635592667622353  0.08830680059670404  1.0000
  H   H31       1.0  0.261826074373231  0.044954691660390456  0.22276918127184753  1.0000
  H   H32       1.0  0.3328893006897178  0.08178735904648393  0.02889909592180029  1.0000
  H   H33       1.0  0.3249836923706122  0.9234488403395567  0.07896248343250312  1.0000
  Zn  Zn1       1.0  0.8370758107899618  0.4575106947089971  0.6359554736088366  1.0000
  Zn  Zn2       1.0  0.005197493411615461  0.4648500411919958  0.6496807097193862  1.0000
  C   C41       1.0  0.9211070919868642  0.45605854960005754  0.8800018314913245  1.0000
  C   C42       1.0  0.9211680477699759  0.4663039050637412  0.4056346291817341  1.0000
  C   C43       1.0  0.9210920938244609  0.6983673559862105  0.6376442636459594  1.0000
  C   C44       1.0  0.9211829888506748  0.22399353591398952  0.6479922615734861  1.0000
  O   O1        1.0  0.9849611173765838  0.4708305487148712  0.4592266533683178  1.0000
  O   O2        1.0  0.9849144896562192  0.457101320322969  0.8368265701015749  1.0000
  O   O3        1.0  0.9849015181932919  0.6527687086389176  0.641121049134864  1.0000
  O   O4        1.0  0.9849740314825498  0.275163167163466  0.6549320722817575  1.0000
  O   O5        1.0  0.8572992153473491  0.6471975662343801  0.6307041063558851  1.0000
  O   O6        1.0  0.8573121865203024  0.4515317381788837  0.8264095580856294  1.0000
  O   O7        1.0  0.8573588145142268  0.46526092097972693  0.4488080800335954  1.0000
  O   O8        1.0  0.8573717286054756  0.2695935301606316  0.6445135963097268  1.0000
