data_image0
_chemical_formula_structural       NC11NC3H8C12SCH12C15H12Zn2C4O8
_chemical_formula_sum              "N2 C46 H32 S1 Zn2 O8"
_cell_length_a       17.807433833752565
_cell_length_b       10.299776766347529
_cell_length_c       10.299157797200024
_cell_angle_alpha    85.5458752322557
_cell_angle_beta     88.54730741847368
_cell_angle_gamma    90.66624570658541

_space_group_name_H-M_alt    "P 1"
_space_group_IT_number       1

loop_
  _space_group_symop_operation_xyz
  'x, y, z'

loop_
  _atom_site_type_symbol
  _atom_site_label
  _atom_site_symmetry_multiplicity
  _atom_site_fract_x
  _atom_site_fract_y
  _atom_site_fract_z
  _atom_site_occupancy
  N   N1        1.0  0.706809218923398  0.43885558614494147  0.5346503790436021  1.0000
  C   C1        1.0  0.6560114869766706  0.4041111211638986  0.6012141788631267  1.0000
  C   C2        1.0  0.5928139803266544  0.36089187148995805  0.6840110513014026  1.0000
  C   C3        1.0  0.6045810996289782  0.2973089442550334  0.8067321638227727  1.0000
  C   C4        1.0  0.54329014951091  0.2557700699653107  0.8872450775960918  1.0000
  C   C5        1.0  0.4700779378825253  0.27750068321689225  0.8456776893299582  1.0000
  C   C6        1.0  0.45733389081055503  0.34123828599141315  0.7224963661967971  1.0000
  C   C7        1.0  0.37955257419107535  0.3642997616701389  0.6781482618179995  1.0000
  C   C8        1.0  0.360742349103406  0.3474634949727353  0.5485616000914542  1.0000
  C   C9        1.0  0.28750019200968296  0.36915539303647216  0.5069501367982514  1.0000
  C   C10       1.0  0.2321249386345056  0.4080023056397102  0.5941050388059932  1.0000
  C   C11       1.0  0.1567456251949491  0.43035303216904763  0.551132249551098  1.0000
  N   N2        1.0  0.0961460316583078  0.4483213558407779  0.5165852545398546  1.0000
  C   C12       1.0  0.25024343912946007  0.42504929188210094  0.7231605522007403  1.0000
  C   C13       1.0  0.32343289967566546  0.40332239411921056  0.7650274544104976  1.0000
  C   C14       1.0  0.5194821574326097  0.38277259091033744  0.6419998687727824  1.0000
  H   H1        1.0  0.6610577864024164  0.27988558890919624  0.8400984272304766  1.0000
  H   H2        1.0  0.5525191852668099  0.2062925859899436  0.9819832717657808  1.0000
  H   H3        1.0  0.4234596600032621  0.24292780233315892  0.9091180772899459  1.0000
  H   H4        1.0  0.4024107793632526  0.3158411563069199  0.47984081070560625  1.0000
  H   H5        1.0  0.2740382977375325  0.35530245633244095  0.4069107171994142  1.0000
  H   H6        1.0  0.2078583339513659  0.4554487681800321  0.7913665003496775  1.0000
  H   H7        1.0  0.33636603287542016  0.41872076168445194  0.8648841755681145  1.0000
  H   H8        1.0  0.5109514002922981  0.4336123376927694  0.5474960570203999  1.0000
  C   C15       1.0  0.9015520491306507  0.062225141838772036  0.5256127452407169  1.0000
  C   C16       1.0  0.9060975726012218  0.050735078905649766  0.6619231936566752  1.0000
  C   C17       1.0  0.9083284972269203  0.9277725915481663  0.7310014977495336  1.0000
  C   C18       1.0  0.9059539261741406  0.8154438057928082  0.6619450499906196  1.0000
  C   C19       1.0  0.9014104089440595  0.8249419702050996  0.5256337590623068  1.0000
  C   C20       1.0  0.8992344812637366  0.9487718773699636  0.45823065880986524  1.0000
  C   C21       1.0  0.913128869167686  0.9166811062671615  0.8752029562874308  1.0000
  C   C22       1.0  0.8701501881986222  0.8221547076465445  0.9512438996733832  1.0000
  C   C23       1.0  0.8746904615850335  0.8119513273398975  0.08694996957925727  1.0000
  C   C24       1.0  0.92202252101166  0.8959907198025125  0.14843053910434512  1.0000
  C   C25       1.0  0.9651807934177921  0.9899473076165393  0.0737544026212319  1.0000
  C   C26       1.0  0.9607506761014807  0.0005032578213206573  0.9380328059166316  1.0000
  S   S1        1.0  0.9279311601204121  0.8824398555518663  0.3225562534628512  1.0000
  C   C27       1.0  0.8524446097143901  0.9966608561125693  0.3455886012555105  1.0000
  H   H9        1.0  0.8998495537919922  0.39405757792160867  0.4736709053834698  1.0000
  H   H10       1.0  0.906877548614974  0.13757006644418124  0.7148482303918171  1.0000
  H   H11       1.0  0.9086926722517694  0.7204816641166801  0.7145830529766504  1.0000
  H   H12       1.0  0.8957283168217982  0.9568674965710836  0.3530729199230658  1.0000
  H   H13       1.0  0.899641617482012  0.5011065189804234  0.4736996613548039  1.0000
  H   H14       1.0  0.8323216990576447  0.7572843163496521  0.905882431383431  1.0000
  H   H15       1.0  0.8411154462640456  0.7390569194600006  0.14423238954680018  1.0000
  H   H16       1.0  0.002210092437365807  0.05485369272129459  0.12074197462963265  1.0000
  H   H17       1.0  0.9952741820752768  0.07305137371110804  0.8821194961020178  1.0000
  H   H18       1.0  0.8674725013579728  0.09336981472472483  0.2960109786500461  1.0000
  H   H19       1.0  0.8437635886127085  0.007099280783555262  0.45127643374655835  1.0000
  H   H20       1.0  0.7995719344413738  0.9598548506151992  0.305917494129636  1.0000
  C   C28       1.0  0.9013940949110247  0.44368769054408785  0.14423525891572764  1.0000
  C   C29       1.0  0.8231487931913037  0.4238061675035847  0.1480406507682006  1.0000
  C   C30       1.0  0.7836369918557408  0.4136205769076733  0.03282030815664716  1.0000
  C   C31       1.0  0.8233720436437038  0.4236028656677979  0.9127629934032782  1.0000
  C   C32       1.0  0.901568311664542  0.44347940189563073  0.9070111934085832  1.0000
  C   C33       1.0  0.9401227223337543  0.4533999862729057  0.023298798389193243  1.0000
  C   C34       1.0  0.7009141843430359  0.392606710662996  0.037889758128755835  1.0000
  C   C35       1.0  0.667127015445029  0.3048071449763676  0.9583487910938411  1.0000
  C   C36       1.0  0.5892813705011396  0.28512526389513115  0.9631516175875592  1.0000
  C   C37       1.0  0.5438365090389317  0.3522001735083724  0.04809162536376044  1.0000
  C   C38       1.0  0.5772214732686123  0.44083549882369  0.1266745553097801  1.0000
  C   C39       1.0  0.6550663599732498  0.46052155978256537  0.12201971480493135  1.0000
  C   C40       1.0  0.4599743007565223  0.33334628814358225  0.050919543843906734  1.0000
  C   C41       1.0  0.4261705473360675  0.42629088534589243  0.9550789007998532  1.0000
  C   C42       1.0  0.3983888931993946  0.5027195330629897  0.8762707235264537  1.0000
  H   H21       1.0  0.04913791587567884  0.48041978248772854  0.344404647183022  1.0000
  H   H22       1.0  0.7929331709028221  0.4144467805349439  0.24098022189284762  1.0000
  H   H23       1.0  0.793047683309954  0.4176276262981975  0.8235376357956512  1.0000
  H   H24       1.0  0.00043787116086435596  0.4687275790405725  0.019577994682560496  1.0000
  H   H25       1.0  0.9316483097764026  0.45108322272393764  0.5773263497009995  1.0000
  H   H26       1.0  0.7009948272424353  0.25026553872286184  0.8934041893786975  1.0000
  H   H27       1.0  0.5644214519635987  0.217365861301267  0.9007447129126667  1.0000
  H   H28       1.0  0.5429150019325217  0.49505726481264856  0.1912945056452806  1.0000
  H   H29       1.0  0.6793131432490714  0.5303732611637657  0.1828138678214135  1.0000
  H   H30       1.0  0.44499950832512397  0.23274306841178438  0.028167222542370585  1.0000
  H   H31       1.0  0.4360575772281374  0.3482095845539639  0.1492508859809072  1.0000
  H   H32       1.0  0.374020032501488  0.5698218324126174  0.8070833675685858  1.0000
  Zn  Zn1       1.0  0.8191634150945888  0.44158372617501107  0.5294446591374198  1.0000
  Zn  Zn2       1.0  0.9837918251172805  0.4455825934816722  0.5218015606965938  1.0000
  C   C43       1.0  0.9015346865307567  0.43834514969058747  0.7628301689703987  1.0000
  C   C44       1.0  0.9014223511430017  0.44882285219472484  0.2884160949191421  1.0000
  C   C45       1.0  0.901432112772959  0.6807735787655587  0.5204545188582685  1.0000
  C   C46       1.0  0.9015248690302491  0.20639286145626068  0.5307918168384747  1.0000
  O   O1        1.0  0.9639074588803427  0.45205814299794467  0.3339039844081997  1.0000
  O   O2        1.0  0.9639987328550947  0.4381439270393519  0.7115409707223219  1.0000
  O   O3        1.0  0.9639150613556485  0.6339079286173228  0.5158209575469161  1.0000
  O   O4        1.0  0.9639910741792944  0.2562941493721069  0.5296239028123964  1.0000
  O   O5        1.0  0.8389641098529764  0.6308721689213757  0.5216223196229999  1.0000
  O   O6        1.0  0.8390477810433746  0.43510972764369527  0.7173422635925861  1.0000
  O   O7        1.0  0.8389565067702993  0.4490238987745232  0.3397037157961449  1.0000
  O   O8        1.0  0.8390401220901471  0.2532598958333505  0.535423731572934  1.0000
