data_image0
_chemical_formula_structural       NC10NC5H10C16H10C12SCH12Zn2C4O8
_chemical_formula_sum              "N2 C48 H32 S1 Zn2 O8"
_cell_length_a       19.4436361288709
_cell_length_b       10.29914801576943
_cell_length_c       10.299780138516091
_cell_angle_alpha    85.5534209466543
_cell_angle_beta     89.6968932683751
_cell_angle_gamma    89.43179634642199

_space_group_name_H-M_alt    "P 1"
_space_group_IT_number       1

loop_
  _space_group_symop_operation_xyz
  'x, y, z'

loop_
  _atom_site_type_symbol
  _atom_site_label
  _atom_site_symmetry_multiplicity
  _atom_site_fract_x
  _atom_site_fract_y
  _atom_site_fract_z
  _atom_site_occupancy
  N   N1        1.0  0.6479283955371705  0.40901451286747026  0.5616011627087445  1.0000
  C   C1        1.0  0.5890935153775172  0.41891871011025517  0.5759806603220121  1.0000
  C   C2        1.0  0.5157655467509656  0.4312705774315928  0.5939673915960686  1.0000
  C   C3        1.0  0.4735790113681538  0.3992611345492265  0.49931011817104  1.0000
  C   C4        1.0  0.3976755644362675  0.40970080107003626  0.5046338851937053  1.0000
  C   C5        1.0  0.3579316128160588  0.38496232370137595  0.6117115774298942  1.0000
  C   C6        1.0  0.2818117468710246  0.3888778741870722  0.5987512007135747  1.0000
  C   C7        1.0  0.2412545646153497  0.4465536198876796  0.6924954045227538  1.0000
  C   C8        1.0  0.1695917777353941  0.45019053913011353  0.681950515352989  1.0000
  C   C9        1.0  0.1374913639286704  0.3957557007868069  0.57794809227555  1.0000
  C   C10       1.0  0.06369934233674701  0.3994538516059387  0.5672479035455757  1.0000
  N   N2        1.0  0.0043755620103974  0.40242697082479983  0.5586456611965769  1.0000
  C   C11       1.0  0.17732356160556884  0.33737285014852025  0.48458738450202654  1.0000
  C   C12       1.0  0.24900277469504453  0.33368167605467836  0.4948805279095123  1.0000
  C   C13       1.0  0.3860573553444134  0.3445122822953439  0.7428166265857938  1.0000
  C   C14       1.0  0.44472554792124575  0.38764250046877535  0.7900402789976222  1.0000
  C   C15       1.0  0.48894626146233783  0.4855004208510778  0.715637604584457  1.0000
  H   H1        1.0  0.49567584744190535  0.37013223272728735  0.40901844348337524  1.0000
  H   H2        1.0  0.3729814000296858  0.4321873599962396  0.41147058325203334  1.0000
  H   H3        1.0  0.2651290996568718  0.4898564086380346  0.7733234288727637  1.0000
  H   H4        1.0  0.1392514227939672  0.4955163732840666  0.7548506100448056  1.0000
  H   H5        1.0  0.1529771629793238  0.2942657693982096  0.4040937526440218  1.0000
  H   H6        1.0  0.278677224187023  0.2861123524231497  0.4226776158863117  1.0000
  H   H7        1.0  0.3550829059831032  0.2802970291656255  0.8070860218549787  1.0000
  H   H8        1.0  0.45986970305935193  0.3535829828832644  0.8879840007121309  1.0000
  H   H9        1.0  0.4588489073421092  0.5762190387987627  0.6903512185565583  1.0000
  H   H10       1.0  0.5322335246429206  0.5110950592386481  0.778709952404828  1.0000
  C   C16       1.0  0.8261062791946053  0.024320263123071895  0.5602893568057956  1.0000
  C   C17       1.0  0.8104119415588074  0.0341714322644453  0.4269516256464645  1.0000
  C   C18       1.0  0.8025051337549537  0.9220354428133357  0.35918155015098674  1.0000
  C   C19       1.0  0.8105037839420387  0.7989178055818881  0.42654629239112296  1.0000
  C   C20       1.0  0.826204246139095  0.7871111050335943  0.5599687217772953  1.0000
  C   C21       1.0  0.8339100522779188  0.9003300436665971  0.6260187170579865  1.0000
  C   C22       1.0  0.7859025870502268  0.9335023942310279  0.2181263097482895  1.0000
  C   C23       1.0  0.8184494862708189  0.8518917312552118  0.13264266539981207  1.0000
  C   C24       1.0  0.8027997131463834  0.8628096515666435  0.9998871102083866  1.0000
  C   C25       1.0  0.7544423783542908  0.9552410037593756  0.9508123589758286  1.0000
  C   C26       1.0  0.7217701602337985  0.036833935665469664  0.035013160388675635  1.0000
  C   C27       1.0  0.7373708935967651  0.026158193279484765  0.16779006780718464  1.0000
  C   C28       1.0  0.7383563047897888  0.9663568360033477  0.8141278562521022  1.0000
  C   C29       1.0  0.7248843915542744  0.9756662390056484  0.6996565630797584  1.0000
  C   C30       1.0  0.709108940260305  0.9865674246710762  0.5656118458787533  1.0000
  C   C31       1.0  0.6956392880568305  0.9958754139347772  0.4511590408740922  1.0000
  H   H11       1.0  0.8321076211612765  0.3480063390077903  0.61159114643183  1.0000
  H   H12       1.0  0.8052271494332092  0.12930791821453202  0.37508691401579974  1.0000
  H   H13       1.0  0.8035436785170409  0.7121386576169929  0.3751908594978861  1.0000
  H   H14       1.0  0.8460134859772741  0.8920157307446935  0.7288664039841128  1.0000
  H   H15       1.0  0.8554121031808417  0.557527935429936  0.8119783241605802  1.0000
  H   H16       1.0  0.8566539688377242  0.7807911194967249  0.1681739456815181  1.0000
  H   H17       1.0  0.828536439220958  0.7993929652745858  0.9355018055949587  1.0000
  H   H18       1.0  0.6841128341831819  0.1084884003816895  0.9981075135517572  1.0000
  H   H19       1.0  0.7108324508250881  0.08919966225523113  0.2313792692644734  1.0000
  H   H20       1.0  0.6838118490420851  0.004048613795275324  0.3506598269507504  1.0000
  C   C32       1.0  0.8261828969884527  0.40560386651332303  0.17877672427887337  1.0000
  C   C33       1.0  0.7607795630355599  0.3487961303740874  0.1828377558180987  1.0000
  C   C34       1.0  0.7276119784081889  0.32012597697982215  0.06774877371789545  1.0000
  C   C35       1.0  0.7607232834893872  0.3490226285542162  0.9475342314251827  1.0000
  C   C36       1.0  0.8261276425865264  0.40582752202565064  0.9414813542730025  1.0000
  C   C37       1.0  0.8584911729009005  0.4338008299550722  0.057628772899905645  1.0000
  C   C38       1.0  0.6584197946221104  0.2600432000016659  0.07310781527718535  1.0000
  C   C39       1.0  0.6074871070331209  0.3026490019960333  0.982556174624952  1.0000
  C   C40       1.0  0.542378496316004  0.2460687124150327  0.9878365004627625  1.0000
  C   C41       1.0  0.5272530193002146  0.1465299841241714  0.08356649640241187  1.0000
  C   C42       1.0  0.5775734834778073  0.10313649612234421  0.17371789783180414  1.0000
  C   C43       1.0  0.6427246227945049  0.1595425551834817  0.16879970001851974  1.0000
  S   S1        1.0  0.4437379159226759  0.07379596004707767  0.08989148496506294  1.0000
  C   C44       1.0  0.4084816085929518  0.18867246387932712  0.19886487283177345  1.0000
  H   H21       1.0  0.851114584886207  0.42720250331963094  0.5046862316131944  1.0000
  H   H22       1.0  0.7350728695004622  0.32834712825147894  0.27560902124440867  1.0000
  H   H23       1.0  0.735779126709698  0.32548018848831783  0.8586789097171188  1.0000
  H   H24       1.0  0.9089472208176071  0.4776247936477207  0.053727486870951635  1.0000
  H   H25       1.0  0.8510344693783384  0.4275314755398205  0.6117171898198128  1.0000
  H   H26       1.0  0.6177245534450096  0.38083425593887044  0.9087601731544233  1.0000
  H   H27       1.0  0.5036298484821401  0.2801209300760885  0.9178124998519284  1.0000
  H   H28       1.0  0.5662849081601113  0.02566670191301168  0.2476471873685171  1.0000
  H   H29       1.0  0.681102958264019  0.12344601917008191  0.23872681600158163  1.0000
  H   H30       1.0  0.43756454460769845  0.18210436343397784  0.2916403728546948  1.0000
  H   H31       1.0  0.3538971022291617  0.16455036466408512  0.22010034105924126  1.0000
  H   H32       1.0  0.4111531395686561  0.2893536332659967  0.1522091914681929  1.0000
  Zn  Zn1       1.0  0.7507913483755303  0.4071100210791585  0.5607557820860885  1.0000
  Zn  Zn2       1.0  0.9015125985507513  0.40432085718565025  0.5595017269933917  1.0000
  C   C45       1.0  0.8261358810828068  0.40061116287377696  0.7973160131481025  1.0000
  C   C46       1.0  0.8261697119160891  0.41082132372577296  0.32294160900913305  1.0000
  C   C47       1.0  0.8261825687799306  0.6429259575025594  0.5548543895650466  1.0000
  C   C48       1.0  0.8261229725828967  0.168504969637564  0.5654033029116985  1.0000
  O   O1        1.0  0.8833632151086795  0.4115082106571353  0.37084875629694203  1.0000
  O   O2        1.0  0.8833363192221129  0.3978063851710463  0.7484566936439374  1.0000
  O   O3        1.0  0.8833732489747084  0.5934786609873026  0.5526672229922489  1.0000
  O   O4        1.0  0.8833262339333792  0.21583594505506953  0.566638130002223  1.0000
  O   O5        1.0  0.7689776615591376  0.5955949341629558  0.553619379498373  1.0000
  O   O6        1.0  0.7689407320088457  0.39992421875934303  0.7494087802516682  1.0000
  O   O7        1.0  0.7689676280484693  0.4136259985270505  0.37179928159065123  1.0000
  O   O8        1.0  0.7689306468621089  0.21795372366401145  0.5675887526634564  1.0000
