data_image0
_chemical_formula_structural       NC11NC3H8C16H10C12NH11Zn2C4O8
_chemical_formula_sum              "N3 C46 H29 Zn2 O8"
_cell_length_a       17.807433833752565
_cell_length_b       10.29914801576943
_cell_length_c       10.299774167527174
_cell_angle_alpha    85.55390253719857
_cell_angle_beta     88.5175958409119
_cell_angle_gamma    90.69784511463686

_space_group_name_H-M_alt    "P 1"
_space_group_IT_number       1

loop_
  _space_group_symop_operation_xyz
  'x, y, z'

loop_
  _atom_site_type_symbol
  _atom_site_label
  _atom_site_symmetry_multiplicity
  _atom_site_fract_x
  _atom_site_fract_y
  _atom_site_fract_z
  _atom_site_occupancy
  N   N1        1.0  0.7077111089960995  0.4381657268256629  0.5341317317685688  1.0000
  C   C1        1.0  0.6568823908020912  0.4034557464573212  0.6007052103864858  1.0000
  C   C2        1.0  0.5936463407031457  0.36027939107950413  0.6835141227262373  1.0000
  C   C3        1.0  0.6053564864369989  0.29676009053869623  0.8062528647221276  1.0000
  C   C4        1.0  0.5440282152616269  0.25526297749098625  0.8867772649453047  1.0000
  C   C5        1.0  0.4708353647013839  0.27697205943794034  0.8452038172905527  1.0000
  C   C6        1.0  0.45814847754058885  0.34064578830314685  0.7220048365489182  1.0000
  C   C7        1.0  0.3803877771261111  0.36368427967728945  0.6776503231239066  1.0000
  C   C8        1.0  0.3616103324941569  0.3467721931284313  0.5480831195113289  1.0000
  C   C9        1.0  0.2883875368618615  0.3684425307081034  0.5064656184043499  1.0000
  C   C10       1.0  0.23299921067246632  0.4073432664590253  0.5935949548196993  1.0000
  C   C11       1.0  0.1576398755360983  0.42967172192408554  0.5506159532666663  1.0000
  N   N2        1.0  0.09705634309019132  0.44762214127754607  0.5160639640351641  1.0000
  C   C12       1.0  0.2510851562770887  0.4244657905421536  0.7226309630298875  1.0000
  C   C13       1.0  0.3242551685132389  0.40276059570775513  0.7645038956131323  1.0000
  C   C14       1.0  0.520334058881979  0.38213834089604304  0.6414968532487566  1.0000
  H   H1        1.0  0.6618176385037179  0.2793540204766265  0.8396239830093766  1.0000
  H   H2        1.0  0.5532131405255297  0.2058345716450214  0.9815292467830796  1.0000
  H   H3        1.0  0.4241870789350868  0.24243189505120055  0.908654091265285  1.0000
  H   H4        1.0  0.4032887471226246  0.31510731345604226  0.479382938073583  1.0000
  H   H5        1.0  0.2749506697803812  0.3545309739893703  0.40644160813462427  1.0000
  H   H6        1.0  0.2086898200607105  0.4549073877726477  0.7908169046411522  1.0000
  H   H7        1.0  0.3371638323648907  0.4182176377188347  0.8643445234327998  1.0000
  H   H8        1.0  0.5118477871807541  0.4329292836074057  0.5469786148071496  1.0000
  C   C15       1.0  0.9023338079195032  0.06149139402481163  0.5252656824245374  1.0000
  C   C16       1.0  0.8851893489038113  0.07063498433449777  0.3925934327995  1.0000
  C   C17       1.0  0.8765519626746622  0.9581425114544093  0.3251586273034712  1.0000
  C   C18       1.0  0.8852896629023767  0.8353854880116782  0.3921842059436551  1.0000
  C   C19       1.0  0.9024408127720696  0.8242866427059685  0.5249408940769535  1.0000
  C   C20       1.0  0.9108586250853479  0.9378530025045992  0.590664142369755  1.0000
  C   C21       1.0  0.8584153781040895  0.9688609374439611  0.18480737890892152  1.0000
  C   C22       1.0  0.8939651365217871  0.8887144899380699  0.09794389180122476  1.0000
  C   C23       1.0  0.8768693621524232  0.8989268423850508  0.9658519283601326  1.0000
  C   C24       1.0  0.824048316747598  0.9891811639577761  0.9188274244316457  1.0000
  C   C25       1.0  0.7883616575944669  0.06930422848971762  0.004413382597241666  1.0000
  C   C26       1.0  0.8054038663637327  0.05933184683590853  0.1365287774005548  1.0000
  C   C27       1.0  0.8064759260610975  0.9995717558026653  0.7828250138963377  1.0000
  C   C28       1.0  0.7917592382614834  0.008273777791739434  0.668924965579921  1.0000
  C   C29       1.0  0.7745261706516346  0.01846372746230318  0.5355491693588594  1.0000
  C   C30       1.0  0.7598119527895486  0.02716443764505372  0.42166751333683417  1.0000
  H   H9        1.0  0.908889664168935  0.3854480430160876  0.5763129990348281  1.0000
  H   H10       1.0  0.8795253986770587  0.16553764582146746  0.3409485751143593  1.0000
  H   H11       1.0  0.8776865539886629  0.7482926117652899  0.3411238949915609  1.0000
  H   H12       1.0  0.9240803889629087  0.9300843727543444  0.6929986115994018  1.0000
  H   H13       1.0  0.9343474568433825  0.596020342350214  0.7757120033917024  1.0000
  H   H14       1.0  0.935696113058758  0.8193338025869815  0.1318553860199121  1.0000
  H   H15       1.0  0.9049806626776563  0.8366680244618511  0.9003754997692339  1.0000
  H   H16       1.0  0.7472283203797021  0.13926338474906363  0.9691043247973865  1.0000
  H   H17       1.0  0.7764168454550435  0.12117935458504014  0.20124309389295103  1.0000
  H   H18       1.0  0.74689168492694  0.034804397579399904  0.3216698142011194  1.0000
  C   C31       1.0  0.9024128590445666  0.4427751149756325  0.14375004610342823  1.0000
  C   C32       1.0  0.8288285840558189  0.3916818140600484  0.15000621137926817  1.0000
  C   C33       1.0  0.7915165615988027  0.36590762314340197  0.036029611891617463  1.0000
  C   C34       1.0  0.8287770038229842  0.39191188211798744  0.9147037969592371  1.0000
  C   C35       1.0  0.902361756382485  0.4430029679450851  0.9064564660932586  1.0000
  C   C36       1.0  0.9387675087074999  0.4681489800564178  0.021518029077662648  1.0000
  C   C37       1.0  0.7136686634515529  0.3118544387964852  0.04370162057277582  1.0000
  C   C38       1.0  0.6925411754554345  0.2128790062906003  0.14002208206487632  1.0000
  C   C39       1.0  0.6192672522010678  0.1620595934420428  0.14710941047514803  1.0000
  C   C40       1.0  0.5659617085351627  0.20929473868828197  0.05825813874272412  1.0000
  C   C41       1.0  0.5865933879484325  0.3078679349411635  0.9621202138717919  1.0000
  C   C42       1.0  0.6598447666992054  0.3587880707424558  0.9547676090868706  1.0000
  N   N3        1.0  0.49101948206751633  0.15725865399678307  0.06564357919941766  1.0000
  H   H19       1.0  0.9304646060185902  0.4621906413233705  0.46882319129510264  1.0000
  H   H20       1.0  0.799983159358881  0.37347657862259087  0.24363782567542658  1.0000
  H   H21       1.0  0.8006386187020221  0.3705511411564859  0.826687832140943  1.0000
  H   H22       1.0  0.9955345519628986  0.507564226432569  0.015923691293700415  1.0000
  H   H23       1.0  0.9303896139991136  0.4625257986928517  0.5758567524674132  1.0000
  H   H24       1.0  0.7329476866653998  0.17358877037408105  0.20881369758115098  1.0000
  H   H25       1.0  0.604101578767691  0.08563809918697385  0.22166342191875965  1.0000
  H   H26       1.0  0.5458730183465755  0.3454850951649222  0.8930738083921916  1.0000
  H   H27       1.0  0.6741323072738323  0.4360548058139291  0.8805860024416283  1.0000
  H   H28       1.0  0.45089119394578  0.19184348198852663  0.9998263070059843  1.0000
  H   H29       1.0  0.4751103614046219  0.08376462554573783  0.13698372073805998  1.0000
  Zn  Zn1       1.0  0.8200677320456508  0.4408911710562817  0.5289252499766819  1.0000
  Zn  Zn2       1.0  0.9846997030810317  0.4448860796783136  0.5212810359276527  1.0000
  C   C43       1.0  0.9023690234418508  0.4377856957098434  0.7622909317727316  1.0000
  C   C44       1.0  0.9024002096822007  0.447993237451519  0.28791539742040784  1.0000
  C   C45       1.0  0.9024170725376172  0.6801004748054251  0.5198274842029256  1.0000
  C   C46       1.0  0.9023521041854974  0.20567689657294452  0.530378917498904  1.0000
  O   O1        1.0  0.9648729386669187  0.45125486778278767  0.33339766930850145  1.0000
  O   O2        1.0  0.9648481510360651  0.4375551286660435  0.7110065048830654  1.0000
  O   O3        1.0  0.9648861089786018  0.6332273572406664  0.5152155940328822  1.0000
  O   O4        1.0  0.9648349245544681  0.25558264710693135  0.5291884853925175  1.0000
  O   O5        1.0  0.8399324543914031  0.63019460226581  0.5210178031135806  1.0000
  O   O6        1.0  0.8398944966689922  0.4345239341123246  0.7168086440568375  1.0000
  O   O7        1.0  0.8399192844480479  0.4482236275039453  0.3391982471627637  1.0000
  O   O8        1.0  0.8398812703247  0.25255139756746736  0.5349891606147112  1.0000
