data_image0
_chemical_formula_structural       NC11NC3H8C12NH11C16H10Zn2C4O8
_chemical_formula_sum              "N3 C46 H29 Zn2 O8"
_cell_length_a       17.807433833752565
_cell_length_b       10.299770795358612
_cell_length_c       10.299151387937775
_cell_angle_alpha    85.58089315832936
_cell_angle_beta     88.51281441211556
_cell_angle_gamma    90.70213480944165

_space_group_name_H-M_alt    "P 1"
_space_group_IT_number       1

loop_
  _space_group_symop_operation_xyz
  'x, y, z'

loop_
  _atom_site_type_symbol
  _atom_site_label
  _atom_site_symmetry_multiplicity
  _atom_site_fract_x
  _atom_site_fract_y
  _atom_site_fract_z
  _atom_site_occupancy
  N   N1        1.0  0.7078351105658022  0.4378366859630909  0.5345283481134915  1.0000
  C   C1        1.0  0.6570019296828692  0.40313904713786575  0.6010938672456658  1.0000
  C   C2        1.0  0.5937603285084356  0.359978043198244  0.6838928784854577  1.0000
  C   C3        1.0  0.6054622646744828  0.2964814559417841  0.8066171016209742  1.0000
  C   C4        1.0  0.5441286142078351  0.2549992293216501  0.887132034223737  1.0000
  C   C5        1.0  0.4709385517661084  0.2767006014331659  0.8455635680961047  1.0000
  C   C6        1.0  0.4582599017580601  0.3403515389657559  0.7223791331460596  1.0000
  C   C7        1.0  0.3805021712828192  0.3633818151958115  0.678029894143586  1.0000
  C   C8        1.0  0.3617301860059134  0.3464528905070239  0.5484504365545939  1.0000
  C   C9        1.0  0.2885101790881701  0.3681155153313984  0.5068379019705223  1.0000
  C   C10       1.0  0.2331192330719668  0.4070252336876934  0.5939845210292198  1.0000
  C   C11       1.0  0.1577627759409081  0.42934572839829954  0.5510106317841938  1.0000
  N   N2        1.0  0.0971815572005182  0.4472897478874356  0.5164627524651619  1.0000
  C   C12       1.0  0.2511997523892059  0.4241645030917989  0.7230328248761988  1.0000
  C   C13       1.0  0.32436696254337916  0.4024670600060032  0.764900792692828  1.0000
  C   C14       1.0  0.5204508614429696  0.38182920783448715  0.6418806168170825  1.0000
  H   H1        1.0  0.6619211794698162  0.27908157289613866  0.8399842277493061  1.0000
  H   H2        1.0  0.5533071868419746  0.20558839108904992  0.98187267878064  1.0000
  H   H3        1.0  0.42428595696421884  0.24217232361010677  0.9090057768927047  1.0000
  H   H4        1.0  0.4034106284317573  0.3147810125443993  0.47973630208650286  1.0000
  H   H5        1.0  0.2750774938687264  0.3541910325614044  0.40680415074066345  1.0000
  H   H6        1.0  0.2088023658850521  0.45461313008103366  0.7912322911118825  1.0000
  H   H7        1.0  0.3372715122019347  0.4179368708032931  0.8647516596467391  1.0000
  H   H8        1.0  0.511970983397726  0.43260250005923995  0.5473741753020864  1.0000
  C   C15       1.0  0.9024438406672431  0.061193127662976465  0.5255381118232525  1.0000
  C   C16       1.0  0.8806537097315694  0.06978275427206615  0.39513816836111726  1.0000
  C   C17       1.0  0.8696813909976131  0.9570006861225858  0.32902519608139347  1.0000
  C   C18       1.0  0.8807912257582978  0.8345044501201032  0.3950632344687286  1.0000
  C   C19       1.0  0.9025799970893351  0.8239234989245605  0.5254637915662781  1.0000
  C   C20       1.0  0.913284652456225  0.9378193319391848  0.5899708626891751  1.0000
  C   C21       1.0  0.8466290260883209  0.9671414256824932  0.1910696091901598  1.0000
  C   C22       1.0  0.7919303890098601  0.056971817177635  0.14842025470837172  1.0000
  C   C23       1.0  0.7702657163279748  0.06638783760765898  0.018573900756720052  1.0000
  C   C24       1.0  0.8028896556462394  0.9863820596172911  0.9293157780766084  1.0000
  C   C25       1.0  0.8574081164098379  0.8967449916706537  0.9710829298447208  1.0000
  C   C26       1.0  0.8791329747080615  0.887074393824928  0.1008965180360355  1.0000
  N   N3        1.0  0.7806974927193129  0.9961440426035584  0.7965093805307637  1.0000
  H   H9        1.0  0.9107149366665701  0.38537157214812146  0.5752451508790886  1.0000
  H   H10       1.0  0.8731597214377267  0.16448399864957564  0.34413341250299756  1.0000
  H   H11       1.0  0.8714113082997875  0.7472260633598461  0.34508609308216576  1.0000
  H   H12       1.0  0.9300941803762445  0.9304247741224757  0.6905686716010981  1.0000
  H   H13       1.0  0.910915193503107  0.49244001197061843  0.575136234804581  1.0000
  H   H14       1.0  0.7651983100743459  0.11876238088798785  0.2158641531934944  1.0000
  H   H15       1.0  0.7279135630700254  0.13582654996696109  0.9876273168965097  1.0000
  H   H16       1.0  0.8832111705504815  0.8345860202923929  0.90299286178645  1.0000
  H   H17       1.0  0.922061226302275  0.8181593204706433  0.13037682181228383  1.0000
  H   H18       1.0  0.804697264277969  0.9369029483955099  0.7292558729883236  1.0000
  H   H19       1.0  0.7401038889826139  0.06268499148790974  0.7644580275572141  1.0000
  C   C27       1.0  0.9025554317020926  0.44239061718864114  0.14412799338687843  1.0000
  C   C28       1.0  0.830078572396189  0.4945838577775441  0.14257764028867848  1.0000
  C   C29       1.0  0.7932865295807559  0.5212197628917614  0.024637686255319258  1.0000
  C   C30       1.0  0.8299479489198006  0.49495827970949624  0.9072713333483744  1.0000
  C   C31       1.0  0.9024684009367436  0.4427259532577805  0.9068739781667228  1.0000
  C   C32       1.0  0.938326426635501  0.416765638966865  0.025749554134202546  1.0000
  C   C33       1.0  0.7166147901063187  0.5764342013606012  0.024043007981473075  1.0000
  C   C34       1.0  0.6975504194500236  0.6757834344999034  0.929613921217554  1.0000
  C   C35       1.0  0.6253745894295337  0.7277117510261888  0.9291830602254962  1.0000
  C   C36       1.0  0.5713163288232471  0.6810762966765731  0.022923403816280885  1.0000
  C   C37       1.0  0.5896999072485737  0.5822688720027047  0.11722193669933567  1.0000
  C   C38       1.0  0.6618541681783668  0.530252439152235  0.1179033712511175  1.0000
  C   C39       1.0  0.49702167198082586  0.7345828906457494  0.02235134540241912  1.0000
  C   C40       1.0  0.4348009452108903  0.7793938524576636  0.02187216944238668  1.0000
  C   C41       1.0  0.36194112117845356  0.8318670896096556  0.02131105791422727  1.0000
  C   C42       1.0  0.2997304494425795  0.8766710476129231  0.020832065883605422  1.0000
  H   H20       1.0  0.9304171499920204  0.42225190832058623  0.47220551696573754  1.0000
  H   H21       1.0  0.8024785693740563  0.5163080770242054  0.23316013789850332  1.0000
  H   H22       1.0  0.8014446086896732  0.5136452011446451  0.8162192656699725  1.0000
  H   H23       1.0  0.9942287811104238  0.37650407523163576  0.02622994959385383  1.0000
  H   H24       1.0  0.039158068831863124  0.3433772537671296  0.6988987017654189  1.0000
  H   H25       1.0  0.7387430376170356  0.7144854826403817  0.8571528166503688  1.0000
  H   H26       1.0  0.6118018742586073  0.8044312518451902  0.8559535349935143  1.0000
  H   H27       1.0  0.5482161731334861  0.545200949039117  0.19002781110649059  1.0000
  H   H28       1.0  0.6745389232175432  0.45274974433868564  0.19078114835477655  1.0000
  H   H29       1.0  0.2451043432787582  0.9160125595509798  0.020411478717827336  1.0000
  Zn  Zn1       1.0  0.820192083043019  0.440561164077822  0.5293224923847526  1.0000
  Zn  Zn2       1.0  0.9848245668591641  0.4445546548005661  0.5216791953544684  1.0000
  C   C43       1.0  0.9024822594873262  0.43748887000327263  0.762699219352488  1.0000
  C   C44       1.0  0.902536188474444  0.4476286311649471  0.2883025122304128  1.0000
  C   C45       1.0  0.9025509885220191  0.6797488468178419  0.5203028308158302  1.0000
  C   C46       1.0  0.9024674029757475  0.205367092710397  0.5306989727665008  1.0000
  O   O1        1.0  0.9650068988788364  0.4508963996621653  0.33378820696689826  1.0000
  O   O2        1.0  0.9649637948307699  0.4372510886714136  0.7114120652692526  1.0000
  O   O3        1.0  0.9650184520192869  0.6328790639087378  0.5156753055016683  1.0000
  O   O4        1.0  0.9649521855251724  0.2552684323095691  0.5295248719660111  1.0000
  O   O5        1.0  0.8400644081960247  0.6298473852074473  0.5214768183746612  1.0000
  O   O6        1.0  0.8400097512905254  0.4342209702487325  0.7172135087442659  1.0000
  O   O7        1.0  0.8400528555586183  0.4478662352980165  0.3395880890266607  1.0000
  O   O8        1.0  0.8399981421891153  0.25223825869932104  0.5353248513956961  1.0000
