data_image0
_chemical_formula_structural       NC10NC3NCH9C12SCH12C12SCH12Zn2C4O8
_chemical_formula_sum              "N3 C44 H33 S2 Zn2 O8"
_cell_length_a       19.437513618241372
_cell_length_b       10.299776766347529
_cell_length_c       10.299780138516091
_cell_angle_alpha    85.57845135651907
_cell_angle_beta     90.3395305496005
_cell_angle_gamma    89.50378728869872

_space_group_name_H-M_alt    "P 1"
_space_group_IT_number       1

loop_
  _space_group_symop_operation_xyz
  'x, y, z'

loop_
  _atom_site_type_symbol
  _atom_site_label
  _atom_site_symmetry_multiplicity
  _atom_site_fract_x
  _atom_site_fract_y
  _atom_site_fract_z
  _atom_site_occupancy
  N   N1        1.0  0.6477081402703295  0.41006074952859417  0.5758416382961282  1.0000
  C   C1        1.0  0.5887720241442681  0.4270698548313381  0.5728675667727303  1.0000
  C   C2        1.0  0.5153280774762861  0.44832118004551313  0.5691759790187689  1.0000
  C   C3        1.0  0.47358314506656257  0.3471301380087126  0.5575064507591208  1.0000
  C   C4        1.0  0.39769171153740096  0.3571931256831098  0.5502864936927374  1.0000
  C   C5        1.0  0.3581017225896262  0.43805513850776223  0.6160346823730625  1.0000
  C   C6        1.0  0.2819212106312106  0.42944512473884067  0.6075900394176947  1.0000
  C   C7        1.0  0.24880574458798332  0.308103366960643  0.6122203089309497  1.0000
  C   C8        1.0  0.1770723511218472  0.30173011304311714  0.6050518914056437  1.0000
  C   C9        1.0  0.137483866853434  0.4162260192979661  0.5936153697526314  1.0000
  C   C10       1.0  0.06363606203317591  0.40951455349455457  0.5862788323510295  1.0000
  N   N2        1.0  0.0042675248742718  0.40411912514606274  0.5803807147281455  1.0000
  C   C11       1.0  0.1698827684594205  0.5372573739398125  0.5897303102332729  1.0000
  C   C12       1.0  0.2416005222542909  0.5438846286615371  0.5969607734410365  1.0000
  C   C13       1.0  0.3867676961655442  0.5303580530415826  0.7059604448879031  1.0000
  N   N3        1.0  0.4437428434315567  0.5935651913731361  0.6855638788754621  1.0000
  C   C14       1.0  0.4875877569573557  0.5842800718626378  0.5724603699569228  1.0000
  H   H1        1.0  0.49598310365789167  0.25207287232581277  0.5453756754416363  1.0000
  H   H2        1.0  0.372990349219795  0.2876696366874061  0.49196356297686616  1.0000
  H   H3        1.0  0.2782706404623065  0.2181953481001051  0.6232311011718261  1.0000
  H   H4        1.0  0.15249422525165282  0.2075062371195342  0.6089288668024178  1.0000
  H   H5        1.0  0.1397326442975243  0.6265109859713631  0.5810314931206801  1.0000
  H   H6        1.0  0.2656970586977956  0.6385212940860536  0.5930683828530678  1.0000
  H   H7        1.0  0.3567591649143214  0.550761177518349  0.7903255068330473  1.0000
  H   H8        1.0  0.5303286426680486  0.6545925690955228  0.5782309926656355  1.0000
  H   H9        1.0  0.4579181315995105  0.6123691616125226  0.4818218251115278  1.0000
  C   C15       1.0  0.826056001153934  0.025723636778163694  0.578110468423455  1.0000
  C   C16       1.0  0.8301803811676212  0.014132206273223424  0.7146700492457341  1.0000
  C   C17       1.0  0.8322039967016674  0.8911212205305916  0.7838703908642806  1.0000
  C   C18       1.0  0.8300488237365051  0.7788466264978241  0.7146835640491687  1.0000
  C   C19       1.0  0.8259262812734968  0.788446078656849  0.5781232572748145  1.0000
  C   C20       1.0  0.8239525598937321  0.9123232726781663  0.5106011309759932  1.0000
  C   C21       1.0  0.8365595433751264  0.8799228274261369  0.9283349227115509  1.0000
  C   C22       1.0  0.7971782796678303  0.787139833435556  0.0018725782657893486  1.0000
  C   C23       1.0  0.8012980219469003  0.7768349455965801  0.1378275411950991  1.0000
  C   C24       1.0  0.8446273582062235  0.8590378610895254  0.2020492452299092  1.0000
  C   C25       1.0  0.8841727070514058  0.9512447269089508  0.12988667478268645  1.0000
  C   C26       1.0  0.8801538499802763  0.9618978193878421  0.9939225816706918  1.0000
  S   S1        1.0  0.8499894236187108  0.845353470289139  0.3764991333558425  1.0000
  C   C27       1.0  0.7808524169086363  0.9625729743563481  0.39514673684021784  1.0000
  H   H10       1.0  0.8245114923820915  0.35759352889319196  0.5260754137530235  1.0000
  H   H11       1.0  0.8308797705217342  0.10096678598574105  0.7676346390027993  1.0000
  H   H12       1.0  0.8325421338846523  0.683806448680068  0.7674748644055573  1.0000
  H   H13       1.0  0.8207712464795501  0.9204970723242204  0.40525122685196013  1.0000
  H   H14       1.0  0.8243210563881309  0.46465070972161576  0.5260920952000927  1.0000
  H   H15       1.0  0.7625477631375389  0.7237393528591315  0.9543199458379843  1.0000
  H   H16       1.0  0.7705339124040728  0.7053012684959431  0.19315461815657464  1.0000
  H   H17       1.0  0.9180708677977168  0.014713741957570914  0.1790188392471147  1.0000
  H   H18       1.0  0.9117862006813089  0.03304848204576194  0.9400195298242875  1.0000
  H   H19       1.0  0.7946289158439654  0.0586591141288193  0.3464468996426011  1.0000
  H   H20       1.0  0.7728725670478982  0.9734154885757744  0.5003191694904858  1.0000
  H   H21       1.0  0.7324428445086857  0.9278351027528219  0.3524104834487801  1.0000
  C   C28       1.0  0.8260188026012553  0.4069730975562704  0.1967650828279246  1.0000
  C   C29       1.0  0.7606121974149997  0.3500520717064286  0.1994257573913043  1.0000
  C   C30       1.0  0.7274429125454985  0.3213244539646338  0.08362668111901295  1.0000
  C   C31       1.0  0.7605558328332156  0.35027844764120175  0.9641211476214671  1.0000
  C   C32       1.0  0.8259634643295798  0.4071966329346097  0.9594686477728844  1.0000
  C   C33       1.0  0.858328654211518  0.4352260123144418  0.07630894555630485  1.0000
  C   C34       1.0  0.6582472632860105  0.2611218229167267  0.08750424917039457  1.0000
  C   C35       1.0  0.6072860989671492  0.30363159259475614  0.9958998105693624  1.0000
  C   C36       1.0  0.5421742402796876  0.24693852638027014  0.9997860773789937  1.0000
  C   C37       1.0  0.5270738035683594  0.14738136653458067  0.09515468634825863  1.0000
  C   C38       1.0  0.5774227902659517  0.10408287338407063  0.18634566617587955  1.0000
  C   C39       1.0  0.642577242729203  0.16060180173180472  0.18282234623927907  1.0000
  S   S2        1.0  0.4435545812494779  0.0745026975971903  0.09969144048010747  1.0000
  C   C40       1.0  0.4082530687350358  0.18930504962384864  0.20797315929825055  1.0000
  H   H22       1.0  0.8509517543346148  0.4286149253636371  0.5232083803838199  1.0000
  H   H23       1.0  0.7349036570513032  0.32955837225389506  0.291647430722632  1.0000
  H   H24       1.0  0.7356109887230772  0.32669296877014453  0.8747309290066383  1.0000
  H   H25       1.0  0.908787226029807  0.4791373745564165  0.07348797834461562  1.0000
  H   H26       1.0  0.8508715158218138  0.4289437229756168  0.6302377963696006  1.0000
  H   H27       1.0  0.617503368493348  0.38182834936254006  0.9223531060738543  1.0000
  H   H28       1.0  0.5034034386648205  0.28091753711014666  0.9289618393309356  1.0000
  H   H29       1.0  0.5661538530547907  0.02659960920166249  0.2600038603380317  1.0000
  H   H30       1.0  0.6809782277977813  0.1245779860916032  0.2535410225107628  1.0000
  H   H31       1.0  0.4373469625207794  0.18279018751397969  0.3013575298933502  1.0000
  H   H32       1.0  0.353658878945758  0.1650863068591526  0.2280500304416817  1.0000
  H   H33       1.0  0.410895365711585  0.28998200291638887  0.16141740773330282  1.0000
  Zn  Zn1       1.0  0.7506034821177079  0.4083426380873103  0.5771590262633048  1.0000
  Zn  Zn2       1.0  0.901372190277364  0.4058265702408488  0.5790739959751667  1.0000
  C   C41       1.0  0.8259732628255408  0.4019807577008343  0.8153012138692455  1.0000
  C   C42       1.0  0.8260040556711524  0.41219006179728557  0.3409319567687823  1.0000
  C   C43       1.0  0.8259476169084076  0.6442738502587944  0.5729458375201499  1.0000
  C   C44       1.0  0.8260296504018521  0.1698954098266361  0.5832874016738341  1.0000
  O   O1        1.0  0.8832150464393194  0.4129804223176665  0.3900423975748635  1.0000
  O   O2        1.0  0.8831922331938961  0.39927978007770726  0.7676438169194602  1.0000
  O   O3        1.0  0.883170752395263  0.5949345298000042  0.5719401260389818  1.0000
  O   O4        1.0  0.8832364757962907  0.21732568271555275  0.5857459904317575  1.0000
  O   O5        1.0  0.7687391451488209  0.5968435264726284  0.5704870311463981  1.0000
  O   O6        1.0  0.768760625683927  0.4011903370230432  0.7661906528106046  1.0000
  O   O7        1.0  0.7687834390961049  0.4148909335490092  0.38858767213534473  1.0000
  O   O8        1.0  0.7688048684447775  0.21923618468673478  0.5842913623555073  1.0000
