data_image0
_chemical_formula_structural       NC10NC3NCH9C12OCH12C12OCH12Zn2C4O8
_chemical_formula_sum              "N3 C44 H33 O10 Zn2"
_cell_length_a       19.437513618241372
_cell_length_b       10.29979075500242
_cell_length_c       10.299794127170987
_cell_angle_alpha    85.57270427699777
_cell_angle_beta     90.34079441948666
_cell_angle_gamma    89.50469088654314

_space_group_name_H-M_alt    "P 1"
_space_group_IT_number       1

loop_
  _space_group_symop_operation_xyz
  'x, y, z'

loop_
  _atom_site_type_symbol
  _atom_site_label
  _atom_site_symmetry_multiplicity
  _atom_site_fract_x
  _atom_site_fract_y
  _atom_site_fract_z
  _atom_site_occupancy
  N   N1        1.0  0.6477027902420788  0.4100623670273549  0.5756942294534888  1.0000
  C   C1        1.0  0.5887667752455361  0.42707157000459706  0.5727183563145928  1.0000
  C   C2        1.0  0.5153229552123956  0.4483230173875441  0.5690245175663846  1.0000
  C   C3        1.0  0.4735770787180973  0.3471312326939868  0.5573657560428884  1.0000
  C   C4        1.0  0.3976856413379654  0.35719424810906464  0.5501447421203334  1.0000
  C   C5        1.0  0.3580970648375713  0.4380571648589  0.6158842338497095  1.0000
  C   C6        1.0  0.2819163856452774  0.4294470468968479  0.6074405193127559  1.0000
  C   C7        1.0  0.24880000471254332  0.3081045010486194  0.6120836688291678  1.0000
  C   C8        1.0  0.1770664767564342  0.30173116495694097  0.604915940048365  1.0000
  C   C9        1.0  0.1374787733376692  0.41622777593189597  0.593467276732687  1.0000
  C   C10       1.0  0.06363082936620611  0.4095162247616815  0.5861314642746971  1.0000
  N   N2        1.0  0.0042621803397921  0.40412072778475916  0.5802339294430394  1.0000
  C   C11       1.0  0.1698785960455798  0.5372599206631428  0.5895693689466703  1.0000
  C   C12       1.0  0.2415964870821689  0.5438872596033986  0.5967991163301043  1.0000
  C   C13       1.0  0.3867648241822711  0.5303611930610534  0.7058000443330057  1.0000
  N   N3        1.0  0.4437402382719953  0.5935686429396172  0.6853967988191836  1.0000
  C   C14       1.0  0.4875837586016363  0.5842828388269539  0.5722944629450908  1.0000
  H   H1        1.0  0.49597613682258057  0.252073262940848  0.5452450967580262  1.0000
  H   H2        1.0  0.37298304370500274  0.2876699720657383  0.49182929182745516  1.0000
  H   H3        1.0  0.2782643111015242  0.21819593997736475  0.6231039919676562  1.0000
  H   H4        1.0  0.1524876437423501  0.2075066786329014  0.6088029165148887  1.0000
  H   H5        1.0  0.13972908310685683  0.6265140832394582  0.5808610866207431  1.0000
  H   H6        1.0  0.2656937337858264  0.6385245381111386  0.5928966808556679  1.0000
  H   H7        1.0  0.3567574397434825  0.5507649185491958  0.7901627998786962  1.0000
  H   H8        1.0  0.5303252730426559  0.6545958392297231  0.5780576082605238  1.0000
  H   H9        1.0  0.4579133004681586  0.6123716181666916  0.48165308452827893  1.0000
  C   C15       1.0  0.8260476087312646  0.02572268993443294  0.5780038761041189  1.0000
  C   C16       1.0  0.806124008131178  0.014925546925762756  0.709182428452954  1.0000
  C   C17       1.0  0.7959739730223326  0.8923191676180219  0.7756177536366453  1.0000
  C   C18       1.0  0.8060004074682037  0.7796452948968494  0.7091150726010922  1.0000
  C   C19       1.0  0.8259239775838828  0.7884502233829875  0.5779355873908609  1.0000
  C   C20       1.0  0.8358376189170996  0.9119321064488619  0.5131151971487886  1.0000
  C   C21       1.0  0.7749001236820525  0.8819504359251555  0.9143986061651854  1.0000
  C   C22       1.0  0.7246974252701593  0.7919334494050385  0.9588229733341136  1.0000
  C   C23       1.0  0.7049252419116672  0.78244727696677  0.08930446255451197  1.0000
  C   C24       1.0  0.7349105716032881  0.8623174348808749  0.1770305211807327  1.0000
  C   C25       1.0  0.7852963168135978  0.9529409818543891  0.1344801070314895  1.0000
  C   C26       1.0  0.8048552443937009  0.962069372420425  0.0034692263707827298  1.0000
  O   O1        1.0  0.8170931750993397  0.03513459693926624  0.21874964354254944  1.0000
  C   C27       1.0  0.8023347970475118  0.03639554833653147  0.35389181862356334  1.0000
  H   H10       1.0  0.8336694621274652  0.35728784643160094  0.5280408910574486  1.0000
  H   H11       1.0  0.7975411696064878  0.10210883731582254  0.7594996682246025  1.0000
  H   H12       1.0  0.7991385871401231  0.6848737009186917  0.7603932958362745  1.0000
  H   H13       1.0  0.8512083645060483  0.9194932408063355  0.4119164930232708  1.0000
  H   H14       1.0  0.8334815346021645  0.46435440521863214  0.5279341502970913  1.0000
  H   H15       1.0  0.7000932844169944  0.7300961708390423  0.8923031309530975  1.0000
  H   H16       1.0  0.6660665783503059  0.713134061797161  0.12248701112485072  1.0000
  H   H17       1.0  0.7185998560875755  0.8528675035200325  0.27748496009140455  1.0000
  H   H18       1.0  0.8442689357829143  0.030947545766564666  0.9718065347070481  1.0000
  H   H19       1.0  0.8142164313660697  0.939682465897749  0.4046634229495103  1.0000
  H   H20       1.0  0.834798440118119  0.11050522915647498  0.3965175824458608  1.0000
  H   H21       1.0  0.747410863352338  0.062225440388515185  0.36762736733806667  1.0000
  C   C28       1.0  0.8260090069830498  0.40697260849455685  0.19661862825534615  1.0000
  C   C29       1.0  0.758599372105112  0.3589735051728471  0.19857130552128965  1.0000
  C   C30       1.0  0.7244234407890813  0.3347548839625929  0.08241362461910695  1.0000
  C   C31       1.0  0.7585525613954254  0.35920075081299885  0.9632657980919999  1.0000
  C   C32       1.0  0.8259625814173978  0.40720035514208996  0.9593208638504427  1.0000
  C   C33       1.0  0.8593140353200865  0.4308146143893652  0.07651219425923506  1.0000
  C   C34       1.0  0.6531098365419401  0.28396742377591155  0.08553416915167356  1.0000
  C   C35       1.0  0.6038488177284218  0.33345513894958945  0.9937544017005671  1.0000
  C   C36       1.0  0.5368251193983525  0.2856422479214189  0.996956594397306  1.0000
  C   C37       1.0  0.5180881309697131  0.1880210892508749  0.0914132958275804  1.0000
  C   C38       1.0  0.5666706280137761  0.13714009152887519  0.1840471294096988  1.0000
  C   C39       1.0  0.6337877457781349  0.18559096850051682  0.1803946945038064  1.0000
  O   O2        1.0  0.5504924168336892  0.038837328883921884  0.2806714213015977  1.0000
  C   C40       1.0  0.4845539152910093  0.9806628814312262  0.29587427817189793  1.0000
  H   H22       1.0  0.8517041294843092  0.4252038621078731  0.5233322545615475  1.0000
  H   H23       1.0  0.7321703763482889  0.34198517683061724  0.2905133580269388  1.0000
  H   H24       1.0  0.7327653566680319  0.3390361302274145  0.8736077467942214  1.0000
  H   H25       1.0  0.9113180248236916  0.467843059803712  0.07423739823630848  1.0000
  H   H26       1.0  0.8516348274253291  0.4255517841927299  0.6303601190003065  1.0000
  H   H27       1.0  0.6169206864865137  0.41030300641758544  0.9205953908940665  1.0000
  H   H28       1.0  0.4992026270982078  0.32466437653273683  0.926136351126623  1.0000
  H   H29       1.0  0.46582605309180136  0.15285796770158844  0.0915794973077746  1.0000
  H   H30       1.0  0.6711072457046527  0.14482387856783485  0.2510374667837316  1.0000
  H   H31       1.0  0.470381218145438  0.9324435686175016  0.20683753486293788  1.0000
  H   H32       1.0  0.486333877833274  0.9061577883888181  0.37957534174479424  1.0000
  H   H33       1.0  0.44535633749516423  0.055574013624311025  0.3156457829598811  1.0000
  Zn  Zn1       1.0  0.7505981337345654  0.40834425131571406  0.5770117977238454  1.0000
  Zn  Zn2       1.0  0.9013668441370357  0.4058281771370955  0.5789270315021204  1.0000
  C   C41       1.0  0.8259706409492775  0.4019836386466398  0.8151542675501209  1.0000
  C   C42       1.0  0.8259959830385404  0.4121904009877495  0.3407847099040351  1.0000
  C   C43       1.0  0.8259441032526251  0.6442770221286802  0.5727735577939632  1.0000
  C   C44       1.0  0.8260224695371072  0.1698954580829417  0.5831654883816597  1.0000
  O   O3        1.0  0.883207552862308  0.41298103703612  0.38989498562320546  1.0000
  O   O4        1.0  0.8831890339520927  0.39928238068093647  0.767497236212227  1.0000
  O   O5        1.0  0.8831668330459593  0.5949373653355725  0.5717730882815375  1.0000
  O   O6        1.0  0.883229702325717  0.21732606250119546  0.5856190355293978  1.0000
  O   O7        1.0  0.7687352240959231  0.5968463668116386  0.5703197930361621  1.0000
  O   O8        1.0  0.7687574247501805  0.4011929424397944  0.7660438715849778  1.0000
  O   O9        1.0  0.7687759438085765  0.41489155307208714  0.388440059672728  1.0000
  O   O10       1.0  0.7687980932647485  0.21923656927747537  0.5841642069430117  1.0000
