data_image0
_chemical_formula_structural       NC10NC5H10C12NH11C15H12Zn2C4O8
_chemical_formula_sum              "N3 C46 H33 Zn2 O8"
_cell_length_a       19.4436361288709
_cell_length_b       10.299770795358612
_cell_length_c       10.299157797200024
_cell_angle_alpha    85.53969178690444
_cell_angle_beta     89.72702837822627
_cell_angle_gamma    89.43566516156574

_space_group_name_H-M_alt    "P 1"
_space_group_IT_number       1

loop_
  _space_group_symop_operation_xyz
  'x, y, z'

loop_
  _atom_site_type_symbol
  _atom_site_label
  _atom_site_symmetry_multiplicity
  _atom_site_fract_x
  _atom_site_fract_y
  _atom_site_fract_z
  _atom_site_occupancy
  N   N1        1.0  0.6475728904750752  0.4097202224455434  0.5619188629246399  1.0000
  C   C1        1.0  0.5887424055794447  0.41961528165292217  0.5763031006244028  1.0000
  C   C2        1.0  0.5154199335168808  0.4319557217792851  0.5942957489072669  1.0000
  C   C3        1.0  0.47320562890790396  0.4000035508694457  0.49961822364997666  1.0000
  C   C4        1.0  0.3973040467696721  0.410439246076697  0.5049459804702507  1.0000
  C   C5        1.0  0.3575893706671344  0.3856412741763906  0.6120264705113221  1.0000
  C   C6        1.0  0.2814659936064186  0.38956394571143904  0.599066059155406  1.0000
  C   C7        1.0  0.2409372236546135  0.44718071636913215  0.692838890585955  1.0000
  C   C8        1.0  0.1692715958634471  0.45082339030349905  0.6822941220940122  1.0000
  C   C9        1.0  0.1371399956530813  0.3964531510517084  0.5782630907434256  1.0000
  C   C10       1.0  0.0633450915794555  0.4001571406489115  0.5675630269991192  1.0000
  N   N2        1.0  0.0040189939307104  0.4031349538538085  0.558960885147185  1.0000
  C   C11       1.0  0.17694386418477634  0.33812911608542295  0.48487356127731585  1.0000
  C   C12       1.0  0.2486258454146257  0.3344323369362543  0.4951665403345009  1.0000
  C   C13       1.0  0.3857506015741213  0.34511927042599666  0.7431315925748774  1.0000
  C   C14       1.0  0.4444336004968894  0.3882185576351591  0.7903743109092181  1.0000
  C   C15       1.0  0.4886368010446772  0.4861108128836542  0.7159963110709133  1.0000
  H   H1        1.0  0.49527602572104806  0.3709291576956122  0.40930769451851257  1.0000
  H   H2        1.0  0.3725844448656503  0.4329774848171577  0.4117805619779671  1.0000
  H   H3        1.0  0.2648360309512471  0.49043321374673865  0.7736894776801018  1.0000
  H   H4        1.0  0.1389533523593726  0.49610332137994795  0.7552166355511563  1.0000
  H   H5        1.0  0.15257329430060654  0.2950721172100974  0.4043574654837945  1.0000
  H   H6        1.0  0.2782783010520697  0.28690870983807293  0.4229405406155069  1.0000
  H   H7        1.0  0.35479199246247367  0.28087259464633174  0.8073863772468031  1.0000
  H   H8        1.0  0.4596041329910883  0.3541056131613576  0.8883168197227969  1.0000
  H   H9        1.0  0.4585355101231662  0.5768361102811466  0.6907372715612001  1.0000
  H   H10       1.0  0.5319427171158997  0.5116669191869667  0.7790835608354052  1.0000
  C   C16       1.0  0.8257369136871993  0.025060132426719672  0.5604799830108882  1.0000
  C   C17       1.0  0.8057468829928314  0.0346428770951015  0.4292276030181894  1.0000
  C   C18       1.0  0.7956808550428466  0.9223612165022197  0.3626853665708081  1.0000
  C   C19       1.0  0.8058727572248912  0.7993589580849694  0.4291580015163956  1.0000
  C   C20       1.0  0.8258615433757793  0.7877849444360482  0.5604109424170975  1.0000
  C   C21       1.0  0.8356820185569377  0.9011925720412556  0.6253368064192619  1.0000
  C   C22       1.0  0.7745328639167435  0.9335526037789471  0.2238279640687184  1.0000
  C   C23       1.0  0.7244421745819398  0.025669037537450423  0.17905377258383925  1.0000
  C   C24       1.0  0.7045671761126643  0.0360726014149233  0.04835987968306443  1.0000
  C   C25       1.0  0.7344068374857496  0.954786726740203  0.9603630354246899  1.0000
  C   C26       1.0  0.7843322964735279  0.862871685843859  0.0042479859661896935  1.0000
  C   C27       1.0  0.8042623853908851  0.8522110871156772  0.13491144689592782  1.0000
  N   N3        1.0  0.7140479868136044  0.9655601514000183  0.8266884737058584  1.0000
  H   H11       1.0  0.833324793578808  0.3488614567190855  0.6105106008997983  1.0000
  H   H12       1.0  0.7988700485509211  0.1296901473885892  0.3779293558115542  1.0000
  H   H13       1.0  0.797269652085494  0.7125036008437862  0.3788142390412741  1.0000
  H   H14       1.0  0.851102898977732  0.8930318920545869  0.7265922093496275  1.0000
  H   H15       1.0  0.8335080971906944  0.45592171979051416  0.6104094500959167  1.0000
  H   H16       1.0  0.6999897498086535  0.08851265237434558  0.24546387880531473  1.0000
  H   H17       1.0  0.6657835232651683  0.10727984543963132  0.015768182747211368  1.0000
  H   H18       1.0  0.8079339843033263  0.7996984336030637  0.9371556251588102  1.0000
  H   H19       1.0  0.8435730041328762  0.7815047972862893  0.16605914214881912  1.0000
  H   H20       1.0  0.735999008079553  0.9053785115621351  0.7603627407310403  1.0000
  H   H21       1.0  0.6768739627434763  0.0337979358644076  0.7930601903421821  1.0000
  C   C28       1.0  0.8257195046563562  0.4065302572923184  0.1790541116281985  1.0000
  C   C29       1.0  0.7540782764021793  0.3898744706360626  0.17982538160244754  1.0000
  C   C30       1.0  0.7179013082777966  0.3813177909206005  0.0630729041119713  1.0000
  C   C31       1.0  0.7542825973240184  0.3896619643643011  0.9445564100351898  1.0000
  C   C32       1.0  0.825878932921688  0.40631478568923085  0.9418368297088651  1.0000
  C   C33       1.0  0.8611793089825287  0.4146459284588766  0.059619447192142516  1.0000
  C   C34       1.0  0.6421604872337106  0.3637142504757507  0.06493460715217858  1.0000
  C   C35       1.0  0.6111986144218785  0.2773073717042287  0.9840922482224301  1.0000
  C   C36       1.0  0.5399233437525757  0.2608347510532638  0.9858764394822574  1.0000
  C   C37       1.0  0.49834034416848516  0.3297833873020195  0.06904552047363222  1.0000
  C   C38       1.0  0.5289342720250553  0.4170426095859354  0.1489141421045197  1.0000
  C   C39       1.0  0.600208849910187  0.4335194413858663  0.14727790694692366  1.0000
  C   C40       1.0  0.42155710704812505  0.31438680744256553  0.06862123808581067  1.0000
  C   C41       1.0  0.390640320711901  0.4087252795397245  0.9714585380733025  1.0000
  C   C42       1.0  0.3652313378497558  0.48629948508053134  0.8915638220850095  1.0000
  H   H22       1.0  0.9609931565489721  0.4371714685716521  0.3849526587973928  1.0000
  H   H23       1.0  0.7264123574698175  0.3817607465111996  0.2715934663699864  1.0000
  H   H24       1.0  0.7265182557436051  0.3849368801854487  0.8541549715984198  1.0000
  H   H25       1.0  0.9164037288653277  0.42748697231710087  0.058237486731580024  1.0000
  H   H26       1.0  0.8534201007436135  0.4126785301067111  0.6133184039044379  1.0000
  H   H27       1.0  0.6421868526635693  0.22136935678336012  0.9204679352728928  1.0000
  H   H28       1.0  0.517141168054738  0.19410005063727165  0.9225123467036407  1.0000
  H   H29       1.0  0.4975443285776108  0.4726788678142366  0.21219681683493774  1.0000
  H   H30       1.0  0.6224303899291863  0.5023717239407417  0.20900522346415396  1.0000
  H   H31       1.0  0.4078139418942115  0.21440066760083498  0.045298961125026516  1.0000
  H   H32       1.0  0.3996659895871514  0.3302361517659016  0.1660228406510844  1.0000
  H   H33       1.0  0.3429437021800462  0.5544066181858149  0.8214233946320539  1.0000
  Zn  Zn1       1.0  0.7504355385428838  0.4078163827020762  0.5610727673295655  1.0000
  Zn  Zn2       1.0  0.9011563378776333  0.40502818293946663  0.5598176635106626  1.0000
  C   C43       1.0  0.8258464366354689  0.40118190541191545  0.7976550691754694  1.0000
  C   C44       1.0  0.8257470859458987  0.41166426835961256  0.32323547528480057  1.0000
  C   C45       1.0  0.8258333676910387  0.6436152396069394  0.5552485842316766  1.0000
  C   C46       1.0  0.8257601032193655  0.1692293748000948  0.5656420300407177  1.0000
  O   O1        1.0  0.8829540994122982  0.4123235163756709  0.3711477531952301  1.0000
  O   O2        1.0  0.8830330221839947  0.3984054986775929  0.7487898227281873  1.0000
  O   O3        1.0  0.8830216980752545  0.5941734959104041  0.5530448773687471  1.0000
  O   O4        1.0  0.8829653720714007  0.21655552941197342  0.5668926016017091  1.0000
  O   O5        1.0  0.7686264529155035  0.5962890371824605  0.553997829659993  1.0000
  O   O6        1.0  0.7686377772615939  0.40052260026703457  0.7497427056287824  1.0000
  O   O7        1.0  0.7685588542018306  0.41444057314952154  0.3720990746068953  1.0000
  O   O8        1.0  0.7685701268769576  0.21867257686960184  0.5678440203878095  1.0000
