data_image0
_chemical_formula_structural       NC12NC2H8C12NH11C12IH9Zn2C4O8
_chemical_formula_sum              "N3 C42 H28 I1 Zn2 O8"
_cell_length_a       19.240039667572717
_cell_length_b       10.299770795358612
_cell_length_c       10.29977335064465
_cell_angle_alpha    85.53972113204546
_cell_angle_beta     90.00916568916979
_cell_angle_gamma    90.01598423534

_space_group_name_H-M_alt    "P 1"
_space_group_IT_number       1

loop_
  _space_group_symop_operation_xyz
  'x, y, z'

loop_
  _atom_site_type_symbol
  _atom_site_label
  _atom_site_symmetry_multiplicity
  _atom_site_fract_x
  _atom_site_fract_y
  _atom_site_fract_z
  _atom_site_occupancy
  N   N1        1.0  0.6545667549898766  0.4216832505196211  0.5673783372398322  1.0000
  C   C1        1.0  0.5944183861781238  0.42168333452427986  0.5673782552986257  1.0000
  C   C2        1.0  0.519600349042723  0.42168345184924294  0.5673781179879827  1.0000
  C   C3        1.0  0.48312585993047147  0.35718851725720313  0.670793370355145  1.0000
  C   C4        1.0  0.4104551026789376  0.35707761128469295  0.6708799181394092  1.0000
  C   C5        1.0  0.37326811409972593  0.4216835444797544  0.5673778903016171  1.0000
  C   C6        1.0  0.4104568039523058  0.48628966460485534  0.4638760569952378  1.0000
  C   C7        1.0  0.4831274832398109  0.48617852309803755  0.4639627272917699  1.0000
  C   C8        1.0  0.2960630236401838  0.4216834658461859  0.5673777948899161  1.0000
  C   C9        1.0  0.2588618842005318  0.3084108239799215  0.6092539658863265  1.0000
  C   C10       1.0  0.1861912039636223  0.30851775031561957  0.6091626353064463  1.0000
  C   C11       1.0  0.1497307367029098  0.42168333665599333  0.5673778558064058  1.0000
  C   C12       1.0  0.07491269955225599  0.4216832228416969  0.5673781044726913  1.0000
  N   N2        1.0  0.014764382711900798  0.42168318195816945  0.5673783128940211  1.0000
  C   C13       1.0  0.1862177803056068  0.5348489988390872  0.525593023411967  1.0000
  C   C14       1.0  0.2588884846836937  0.5349561053422616  0.5255015302288575  1.0000
  H   H1        1.0  0.5108401836619502  0.30725494085489125  0.7515370413048206  1.0000
  H   H2        1.0  0.3833614683585372  0.3079417969062812  0.7527390578163728  1.0000
  H   H3        1.0  0.3833639074842654  0.5354255060503048  0.3820168664685428  1.0000
  H   H4        1.0  0.5108429309800488  0.5361119991585197  0.3832193321423525  1.0000
  H   H5        1.0  0.2859445122598693  0.21924660980233202  0.6404258495180142  1.0000
  H   H6        1.0  0.15846593757108426  0.22025241674852158  0.6413674427645271  1.0000
  H   H7        1.0  0.158513223247936  0.6231143078651773  0.4933882305054964  1.0000
  H   H8        1.0  0.28599233544955793  0.6241203987092352  0.4943296018218415  1.0000
  C   C15       1.0  0.8346059278085923  0.040314677194426496  0.5674179007325975  1.0000
  C   C16       1.0  0.8144218538682618  0.049528053590868204  0.4360075060196076  1.0000
  C   C17       1.0  0.8042581709324408  0.9370603965138657  0.3693857278060564  1.0000
  C   C18       1.0  0.8145490614401824  0.8142464600311119  0.4359389531549962  1.0000
  C   C19       1.0  0.8347318776698691  0.8030417916618845  0.567349898415523  1.0000
  C   C20       1.0  0.8446476247659248  0.9166308785176064  0.6323533634141352  1.0000
  C   C21       1.0  0.7829048964836887  0.9478610191602312  0.2303611573998876  1.0000
  C   C22       1.0  0.7322926307209054  0.03905202483620562  0.1851740071400776  1.0000
  C   C23       1.0  0.7122247301071756  0.049088345874699124  0.054323020592714766  1.0000
  C   C24       1.0  0.7423893668991659  0.9683537084896251  0.9665790456153149  1.0000
  C   C25       1.0  0.7928347740843154  0.8773610427002981  0.010875637127488291  1.0000
  C   C26       1.0  0.812958348695431  0.8670687045738482  0.14169665065133064  1.0000
  N   N3        1.0  0.7218328929135798  0.9787509499603588  0.8327435538065879  1.0000
  H   H9        1.0  0.8422674372039112  0.36425620757374366  0.617508485818757  1.0000
  H   H10       1.0  0.8074790305571078  0.14444825353586976  0.38465526756451074  1.0000
  H   H11       1.0  0.8058616816811741  0.7272321406334088  0.38552681816170997  1.0000
  H   H12       1.0  0.8602181952427791  0.908755139763509  0.7337306631975875  1.0000
  H   H13       1.0  0.8424526824585221  0.47131985706873164  0.6174088620742879  1.0000
  H   H14       1.0  0.7075746105185867  0.10144391988584434  0.2513772381766539  1.0000
  H   H15       1.0  0.6730369787431364  0.11957906084346348  0.021411458353969293  1.0000
  H   H16       1.0  0.8166931891966415  0.8146237928730766  0.9439831331600343  1.0000
  H   H17       1.0  0.8526787913056832  0.7970886786541781  0.17316867027135374  1.0000
  H   H18       1.0  0.7440231747286399  0.9189748174024661  0.7666039349905329  1.0000
  H   H19       1.0  0.6842718387698092  0.04630194222136641  0.7988088234612318  1.0000
  C   C27       1.0  0.834635787696581  0.42178430746184015  0.1860147182805434  1.0000
  C   C28       1.0  0.8976505648206811  0.4907877539391161  0.17967134561717857  1.0000
  C   C29       1.0  0.9296140469367035  0.5256445129652534  0.05932708247145557  1.0000
  C   C30       1.0  0.8977173847682954  0.4905735975860921  0.9444017513177942  1.0000
  C   C31       1.0  0.8347020259048591  0.4215721560535488  0.9487531656007921  1.0000
  C   C32       1.0  0.8035143563877639  0.38756283361708066  0.07002779196137787  1.0000
  C   C33       1.0  0.9962781508424995  0.5986420818078138  0.053670341421893974  1.0000
  C   C34       1.0  0.0072283776317740855  0.7016611049392993  0.13347178287573858  1.0000
  C   C35       1.0  0.07000898798521682  0.7702532821683943  0.12794583449129915  1.0000
  C   C36       1.0  0.1225372234832709  0.736893691804765  0.0429594494195733  1.0000
  C   C37       1.0  0.11225757308122519  0.6347608653729455  0.9633006694930102  1.0000
  C   C38       1.0  0.04954743287567198  0.565942716388238  0.9684206963531707  1.0000
  I   I1        1.0  0.21718774430344223  0.8405324071242308  0.034931957630418786  1.0000
  H   H20       1.0  0.8106041058606321  0.39555586591857317  0.5158803145445934  1.0000
  H   H21       1.0  0.9225080923402498  0.5160347175240725  0.2686459587786396  1.0000
  H   H22       1.0  0.921658029819735  0.5187612841107172  0.8512864348751248  1.0000
  H   H23       1.0  0.7549009346932927  0.3343309521137381  0.07415305563010555  1.0000
  H   H24       1.0  0.8107011083204548  0.39524372460788126  0.6229605026848759  1.0000
  H   H25       1.0  0.9669315348044807  0.7302390013913815  0.19885994387685724  1.0000
  H   H26       1.0  0.07771405375058582  0.8495301686514563  0.1895246350757569  1.0000
  H   H27       1.0  0.15289613245488942  0.6084191956228719  0.8976211685017335  1.0000
  H   H28       1.0  0.04305008259910004  0.48612494349920055  0.9070028537263344  1.0000
  Zn  Zn1       1.0  0.7585120189026638  0.42167976145257446  0.5673858189546124  1.0000
  Zn  Zn2       1.0  0.9108191367412036  0.4216760746072441  0.5673814310309524  1.0000
  C   C39       1.0  0.8346870970684787  0.416438581133703  0.804579697621596  1.0000
  C   C40       1.0  0.8346457220460464  0.4269188934683925  0.33018767963660944  1.0000
  C   C41       1.0  0.8347040477031672  0.6588715639558875  0.5621876154712833  1.0000
  C   C42       1.0  0.8346287191879321  0.18448435032714317  0.5725798311661161  1.0000
  O   O1        1.0  0.8924488126333622  0.4286350425627108  0.3785717778145947  1.0000
  O   O2        1.0  0.8924815845795468  0.4147186541915209  0.7561918953520508  1.0000
  O   O3        1.0  0.8924944933803157  0.6104863534472178  0.5604585739536165  1.0000
  O   O4        1.0  0.8924358518535692  0.23286735262557023  0.5743050018389559  1.0000
  O   O5        1.0  0.7768952518153535  0.6104884834369222  0.5604622481412751  1.0000
  O   O6        1.0  0.7768823432630656  0.4147223445029644  0.7561955001551817  1.0000
  O   O7        1.0  0.7768495712200428  0.4286386880525328  0.3785738212198808  1.0000
  O   O8        1.0  0.7768366104443293  0.23287098879951018  0.5743071426129813  1.0000
