data_image0
_chemical_formula_structural       NC9NC5H8C13OH12C12SCH12Zn2C4O8
_chemical_formula_sum              "N2 C44 H32 O9 S1 Zn2"
_cell_length_a       17.807436237873137
_cell_length_b       10.299150109392551
_cell_length_c       10.299780138516091
_cell_angle_alpha    85.5566253413432
_cell_angle_beta     89.38476460054896
_cell_angle_gamma    88.37145022261349

_space_group_name_H-M_alt    "P 1"
_space_group_IT_number       1

loop_
  _space_group_symop_operation_xyz
  'x, y, z'

loop_
  _atom_site_type_symbol
  _atom_site_label
  _atom_site_symmetry_multiplicity
  _atom_site_fract_x
  _atom_site_fract_y
  _atom_site_fract_z
  _atom_site_occupancy
  N   N1        1.0  0.7072685747584835  0.3874596637435872  0.5566900751116932  1.0000
  C   C1        1.0  0.646688464594127  0.35226366500322226  0.5456792840324827  1.0000
  C   C2        1.0  0.571333465866554  0.3084837185514113  0.5319830554493254  1.0000
  C   C3        1.0  0.5532637076955227  0.23703202866448625  0.4270102896973782  1.0000
  C   C4        1.0  0.4800979193121816  0.19441354435718727  0.4136295494480382  1.0000
  C   C5        1.0  0.4239532433461083  0.2228691778122427  0.5051892605565977  1.0000
  C   C6        1.0  0.3461968432072832  0.1776916556537944  0.491051028503003  1.0000
  C   C7        1.0  0.2840032264430118  0.2594624899206357  0.5169594304482767  1.0000
  C   C8        1.0  0.2106951698374929  0.21664095368749225  0.5035924438398633  1.0000
  C   C9        1.0  0.1474509341514136  0.3011034810854012  0.5298637647009152  1.0000
  N   N2        1.0  0.0966155580964096  0.36900550997469583  0.5509851823191285  1.0000
  C   C10       1.0  0.1989972351086465  0.0917905732946287  0.4642917994573952  1.0000
  C   C11       1.0  0.2603334852948941  0.010005883090333345  0.4383750131498334  1.0000
  C   C12       1.0  0.3335221993994145  0.052432785128593506  0.45153961182449565  1.0000
  C   C13       1.0  0.4427142966223987  0.29481534081167204  0.6103810688646756  1.0000
  C   C14       1.0  0.5159330041564423  0.33724336902108165  0.6236062333612911  1.0000
  H   H1        1.0  0.5956685342614157  0.2145240901179768  0.35530860950083176  1.0000
  H   H2        1.0  0.46720196568155786  0.14070258321615436  0.330731866039488  1.0000
  H   H3        1.0  0.292480272396161  0.35694425182299017  0.5458001682561422  1.0000
  H   H4        1.0  0.1425393817181566  0.05774848348801864  0.45370961462342985  1.0000
  H   H5        1.0  0.2511580381314431  0.91334394508077  0.40833361862421236  1.0000
  H   H6        1.0  0.380176772384438  0.9866764935206419  0.43251568059167655  1.0000
  H   H7        1.0  0.4010263471765215  0.31678455743179623  0.6833773877566018  1.0000
  H   H8        1.0  0.5293571636714184  0.3921747211804498  0.7054618937394395  1.0000
  C   C15       1.0  0.9020164507433658  0.9968294714906136  0.5539806797443603  1.0000
  C   C16       1.0  0.9006217644644404  0.9851297013867314  0.6908052948213435  1.0000
  C   C17       1.0  0.8998492810182352  0.8620660931290219  0.7599155545994167  1.0000
  C   C18       1.0  0.9004769468771573  0.7498811188980034  0.6904440391507269  1.0000
  C   C19       1.0  0.9018748589022144  0.7596253541129914  0.5537057716439762  1.0000
  C   C20       1.0  0.9026385077954703  0.8835604584760789  0.48627314951189593  1.0000
  C   C21       1.0  0.8983673178937986  0.8506710982255927  0.904570461383402  1.0000
  C   C22       1.0  0.8521661102824512  0.7599997303167131  0.97326557256622  1.0000
  C   C23       1.0  0.8507466946010221  0.7493596405228861  0.10938605997597906  1.0000
  C   C24       1.0  0.8959955779530466  0.828210830440338  0.17926497219438275  1.0000
  C   C25       1.0  0.9414779778462755  0.9198700826335836  0.11122293408104911  1.0000
  C   C26       1.0  0.9429148325964075  0.9306851428076085  0.9751019024483116  1.0000
  C   C27       1.0  0.8928906756828249  0.8192064439845624  0.3253897438932326  1.0000
  O   O1        1.0  0.8367363077527514  0.905054703874794  0.36645126817930695  1.0000
  H   H9        1.0  0.9041609017906899  0.22622930584518408  0.2957249586114765  1.0000
  H   H10       1.0  0.8990915500462947  0.07198912090906573  0.7438337558784789  1.0000
  H   H11       1.0  0.9009013932045083  0.6547518686274069  0.7432688055390202  1.0000
  H   H12       1.0  0.9037146333406915  0.8917927879951547  0.38080286339921665  1.0000
  H   H13       1.0  0.9023619791410062  0.4359002574247006  0.5011121791930306  1.0000
  H   H14       1.0  0.8162419348622821  0.6986807001602109  0.92168574737409  1.0000
  H   H15       1.0  0.8141971299526714  0.679775057719092  0.1602947473673354  1.0000
  H   H16       1.0  0.9760182615207821  0.9828078639333084  0.16356920658350893  1.0000
  H   H17       1.0  0.9794895047774345  0.000714171564826227  0.9249994518197477  1.0000
  H   H18       1.0  0.9481486730125047  0.8444266361949282  0.3647481667250282  1.0000
  H   H19       1.0  0.880678762072978  0.7177734756786275  0.36337944906051034  1.0000
  H   H20       1.0  0.8370069028540563  0.8953889442783094  0.4630693583758062  1.0000
  C   C28       1.0  0.9019758718096557  0.3781146915610756  0.17249069315069288  1.0000
  C   C29       1.0  0.8305547675924666  0.32348368349604195  0.177052666689397  1.0000
  C   C30       1.0  0.7943353835750131  0.29591740213983453  0.062217732614050725  1.0000
  C   C31       1.0  0.8304932200047659  0.32371205775979695  0.9417495901396422  1.0000
  C   C32       1.0  0.9019154449065597  0.37834018899778  0.9351957629086156  1.0000
  C   C33       1.0  0.9372567929560383  0.4052363851257983  0.051095292075906906  1.0000
  C   C34       1.0  0.7187768117311564  0.23813745242136286  0.06810673697525971  1.0000
  C   C35       1.0  0.66312949571433  0.28243932531986493  0.9779504963242238  1.0000
  C   C36       1.0  0.5920302415633695  0.22802595463811315  0.983729505056242  1.0000
  C   C37       1.0  0.5755412270760544  0.12898968218215456  0.07957008555438128  1.0000
  C   C38       1.0  0.6305200723271206  0.08392049625812081  0.16933076057197782  1.0000
  C   C39       1.0  0.7016658369648029  0.1381582186918071  0.1639135412568593  1.0000
  S   S1        1.0  0.4843419504015655  0.05903517284640181  0.08653472723095668  1.0000
  C   C40       1.0  0.445794283957072  0.17508665353723396  0.19578702004648463  1.0000
  H   H21       1.0  0.9292015463226507  0.39888356110577416  0.49820923843909704  1.0000
  H   H22       1.0  0.8024821849781083  0.30389026199105507  0.2700209412287531  1.0000
  H   H23       1.0  0.8032545593411894  0.300999778812842  0.8530852081775757  1.0000
  H   H24       1.0  0.9923553094776606  0.4473810904376103  0.04680754933763631  1.0000
  H   H25       1.0  0.9291139294769584  0.39921520405501654  0.6052408345619003  1.0000
  H   H26       1.0  0.6742863069855387  0.3602846179564747  0.9040803064414007  1.0000
  H   H27       1.0  0.5496942574916323  0.263368529620041  0.9140064173189226  1.0000
  H   H28       1.0  0.6182148868836848  0.006825664413087074  0.243342388647793  1.0000
  H   H29       1.0  0.7435979976320147  0.10078363111964816  0.23354247570385755  1.0000
  H   H30       1.0  0.4775635188001688  0.16755027835326874  0.2883378261527112  1.0000
  H   H31       1.0  0.3861798589806381  0.15278146896688827  0.21744198521489766  1.0000
  H   H32       1.0  0.4486795651323938  0.2756799851469125  0.14911687116299244  1.0000
  Zn  Zn1       1.0  0.8196257026473074  0.38213073022257094  0.5550512780028038  1.0000
  Zn  Zn2       1.0  0.984258413129665  0.3743238595330747  0.5526346593968849  1.0000
  C   C41       1.0  0.9019261438771461  0.3731234985632974  0.7910300403426063  1.0000
  C   C42       1.0  0.9019597693696133  0.38333264474509865  0.3166559975380028  1.0000
  C   C43       1.0  0.9018981652444301  0.6154393873705368  0.5485828242494326  1.0000
  C   C44       1.0  0.9019876921088602  0.14101519818040953  0.5591032842538752  1.0000
  O   O2        1.0  0.9644316219328971  0.3821155045122704  0.364122098532327  1.0000
  O   O3        1.0  0.9644067094398538  0.3684144246610124  0.7417294082663206  1.0000
  O   O4        1.0  0.9643832740098114  0.5640876097129117  0.5459515777931072  1.0000
  O   O5        1.0  0.9644550011909381  0.18644233138659128  0.559899832456338  1.0000
  O   O6        1.0  0.8394290584049704  0.5700122610345681  0.5477861057611932  1.0000
  O   O7        1.0  0.8394524935474179  0.37434063640563164  0.7435638664295503  1.0000
  O   O8        1.0  0.839477406222545  0.3880416705329135  0.36595499537756804  1.0000
  O   O9        1.0  0.8395007854715234  0.19236848814652774  0.5617328266686239  1.0000
