data_image0
_chemical_formula_structural       NC10NC5H10C12NH11C16H10Zn2C4O8
_chemical_formula_sum              "N3 C47 H31 Zn2 O8"
_cell_length_a       19.4436361288709
_cell_length_b       10.299770795358612
_cell_length_c       10.299151387937775
_cell_angle_alpha    85.58089315832936
_cell_angle_beta     89.69351296060239
_cell_angle_gamma    89.43566516156574

_space_group_name_H-M_alt    "P 1"
_space_group_IT_number       1

loop_
  _space_group_symop_operation_xyz
  'x, y, z'

loop_
  _atom_site_type_symbol
  _atom_site_label
  _atom_site_symmetry_multiplicity
  _atom_site_fract_x
  _atom_site_fract_y
  _atom_site_fract_z
  _atom_site_occupancy
  N   N1        1.0  0.6480237052223542  0.4086749783463053  0.5619945815087193  1.0000
  C   C1        1.0  0.5891887111051533  0.41858049248504337  0.5763780618422369  1.0000
  C   C2        1.0  0.5158605986437415  0.43093401025282874  0.5943697627669742  1.0000
  C   C3        1.0  0.4736759738793306  0.3989130246411938  0.49969722251920246  1.0000
  C   C4        1.0  0.3977727215770989  0.4093525922352217  0.5050246988196978  1.0000
  C   C5        1.0  0.3580244775048466  0.38463244991453616  0.6120995508039999  1.0000
  C   C6        1.0  0.2819051633195968  0.38854570140147704  0.5991398218462964  1.0000
  C   C7        1.0  0.2413469971298374  0.4462306292000957  0.6929077159017294  1.0000
  C   C8        1.0  0.1696846749498916  0.44986563885408204  0.6823635026183346  1.0000
  C   C9        1.0  0.137585686754174  0.39541978646833575  0.578337948762857  1.0000
  C   C10       1.0  0.0637941369742722  0.39911599891152316  0.5676384484037833  1.0000
  N   N2        1.0  0.0044707359552964  0.40208755980020516  0.5590367594762244  1.0000
  C   C11       1.0  0.1774188313649714  0.3370278729574476  0.4849533364900518  1.0000
  C   C12       1.0  0.24909758591544032  0.3333385750799165  0.49524577359603494  1.0000
  C   C13       1.0  0.3861446091157323  0.3442057376269696  0.7431977698535652  1.0000
  C   C14       1.0  0.4448127982245216  0.3873393623789163  0.7904380007401204  1.0000
  C   C15       1.0  0.4890393150500462  0.4851775572802999  0.716063917090332  1.0000
  H   H1        1.0  0.495774681555692  0.3697729908402496  0.4093914484639418  1.0000
  H   H2        1.0  0.3730823254970809  0.4318231153222176  0.41186418572071326  1.0000
  H   H3        1.0  0.265220459099251  0.48954189141155036  0.7737540460093835  1.0000
  H   H4        1.0  0.13934357143908482  0.49519857238284604  0.7552821765219766  1.0000
  H   H5        1.0  0.1530735019505089  0.2939123523674205  0.40444148007121616  1.0000
  H   H6        1.0  0.2787726832140333  0.2857624517782378  0.42302357675734537  1.0000
  H   H7        1.0  0.3551658571875449  0.28000576431269075  0.807449171349681  1.0000
  H   H8        1.0  0.4599526273555928  0.3532976057030506  0.8883753526345957  1.0000
  H   H9        1.0  0.4589459424213349  0.5758844955871134  0.690806207532495  1.0000
  H   H10       1.0  0.5323254543076897  0.5107795174466896  0.7791478451526592  1.0000
  C   C16       1.0  0.8261881794996289  0.02401384250280514  0.5605557773556096  1.0000
  C   C17       1.0  0.8062392942642972  0.03350118867651153  0.4293103081304006  1.0000
  C   C18       1.0  0.7961941262093029  0.9211711630239653  0.3627715752989107  1.0000
  C   C19       1.0  0.8063651903152811  0.7982172190777461  0.42924071029330113  1.0000
  C   C20       1.0  0.8263128308312978  0.7867386043311865  0.5604867403969798  1.0000
  C   C21       1.0  0.8361129528236008  0.9001934221640431  0.6254091858893212  1.0000
  C   C22       1.0  0.7750896645915168  0.9322616242285403  0.22392148398784895  1.0000
  C   C23       1.0  0.7250130112281883  0.024345514649786404  0.17914964997661653  1.0000
  C   C24       1.0  0.7051789831414453  0.03465408595914932  0.04846263843758414  1.0000
  C   C25       1.0  0.7350462300756531  0.953304252318665  0.9604704274340925  1.0000
  C   C26       1.0  0.7849579318543437  0.8614211084303658  0.0043530673227145655  1.0000
  C   C27       1.0  0.8048470599290899  0.8508554801513482  0.1350096484930301  1.0000
  N   N3        1.0  0.7147292841766149  0.9639805179634198  0.8268029040167031  1.0000
  H   H11       1.0  0.8337603756166727  0.3478515306739407  0.6105837610068192  1.0000
  H   H12       1.0  0.7993785409778615  0.128511173737051  0.3780147619053329  1.0000
  H   H13       1.0  0.7977778671161184  0.7113252703541325  0.3788995985437289  1.0000
  H   H14       1.0  0.8515020913435343  0.8921063378944033  0.726659257468387  1.0000
  H   H15       1.0  0.83394371093767  0.4549117202256782  0.6104826155287815  1.0000
  H   H16       1.0  0.7005397679805605  0.08723739850980383  0.2455562595391887  1.0000
  H   H17       1.0  0.6664055472540629  0.10583764127949391  0.01587265753643896  1.0000
  H   H18       1.0  0.8085806520340576  0.7981990912816456  0.9372642390966561  1.0000
  H   H19       1.0  0.8441479143817082  0.7801718294789792  0.1661557037415291  1.0000
  H   H20       1.0  0.7367010974672821  0.9037506704276311  0.760480663258325  1.0000
  H   H21       1.0  0.6775658020193702  0.03219386029874749  0.7931763912666137  1.0000
  C   C28       1.0  0.8262903411963197  0.40520673465108303  0.1791499890031243  1.0000
  C   C29       1.0  0.7599377087693291  0.4603859093205547  0.1747873053158724  1.0000
  C   C30       1.0  0.7262545591882092  0.488537589477847  0.055419704052287466  1.0000
  C   C31       1.0  0.7598181228546228  0.4607657127369369  0.939475929772958  1.0000
  C   C32       1.0  0.826210664449309  0.40554565625263583  0.9418925967149505  1.0000
  C   C33       1.0  0.8590387204872371  0.378108046973759  0.06215957710449582  1.0000
  C   C34       1.0  0.656061510046648  0.5469107845775025  0.051849920616534595  1.0000
  C   C35       1.0  0.6386080608944162  0.6470454401897483  0.9566810761800122  1.0000
  C   C36       1.0  0.5725310210595453  0.7019472888574019  0.9534495654840249  1.0000
  C   C37       1.0  0.5230406329549487  0.6575389509174434  0.04509227817096084  1.0000
  C   C38       1.0  0.5398708161835023  0.5579741513535936  0.14010415184219105  1.0000
  C   C39       1.0  0.6059281094956831  0.5029850749748057  0.1435853991491971  1.0000
  C   C40       1.0  0.45502380518447416  0.7141063694034995  0.04163735289390935  1.0000
  C   C41       1.0  0.3980606716789159  0.7614807285585019  0.03874381661468118  1.0000
  C   C42       1.0  0.3313574346868888  0.8169556773432294  0.03535551425896988  1.0000
  C   C43       1.0  0.2744035065744108  0.8643226184377926  0.03246255207616833  1.0000
  H   H22       1.0  0.8517977703286048  0.3839201662457654  0.5083086350721224  1.0000
  H   H23       1.0  0.7346698802092935  0.48324720584176717  0.26429883581287705  1.0000
  H   H24       1.0  0.7337232882364643  0.48062692753714353  0.8473178426507353  1.0000
  H   H25       1.0  0.910217378251947  0.3355433930245042  0.06480916012270677  1.0000
  H   H26       1.0  0.9513501831490869  0.30056555466015045  0.7392213102755503  1.0000
  H   H27       1.0  0.6763199413224148  0.6840504164147123  0.8858183750373638  1.0000
  H   H28       1.0  0.5601051876363335  0.7792259644693349  0.8796933761220407  1.0000
  H   H29       1.0  0.5018924188329814  0.5226152938306137  0.21130032660842257  1.0000
  H   H30       1.0  0.6175410145884446  0.42495978794716405  0.21695538473088538  1.0000
  H   H31       1.0  0.2243932553312177  0.9059146411408769  0.029922299809052255  1.0000
  Zn  Zn1       1.0  0.7508866185271943  0.4067705236330661  0.5611485304627037  1.0000
  Zn  Zn2       1.0  0.901607811316316  0.40398141162021806  0.5598934927281694  1.0000
  C   C44       1.0  0.8262233519653188  0.4003080020473606  0.797718375656161  1.0000
  C   C45       1.0  0.8262727240034239  0.41044554141849243  0.3233237611487709  1.0000
  C   C46       1.0  0.8262862734608101  0.6425651473324043  0.5553246540226842  1.0000
  C   C47       1.0  0.8262097508150845  0.1681868368196966  0.5657175525906966  1.0000
  O   O1        1.0  0.8834647177599467  0.4111396136349905  0.3712335163574212  1.0000
  O   O2        1.0  0.8834252559636595  0.39749607846409907  0.7488557020868454  1.0000
  O   O3        1.0  0.8834752946708262  0.5931218019101139  0.553121063190456  1.0000
  O   O4        1.0  0.8834146276335356  0.21551390038762142  0.5669680583059542  1.0000
  O   O5        1.0  0.7690797507762296  0.5952380358188609  0.55407396530637  1.0000
  O   O6        1.0  0.769029712328166  0.39961387263979575  0.7498085348157624  1.0000
  O   O7        1.0  0.7690691743258876  0.41325736186015516  0.3721847876796245  1.0000
  O   O8        1.0  0.7690190841849757  0.21763163936733876  0.5679194269974654  1.0000
