data_image0
_chemical_formula_structural       NC11NC3H8C12OCH12C13OH12Zn2C4O8
_chemical_formula_sum              "N2 C44 H32 O10 Zn2"
_cell_length_a       17.807433833752565
_cell_length_b       10.29979075500242
_cell_length_c       10.299153481560891
_cell_angle_alpha    85.5777986716743
_cell_angle_beta     88.54091418840825
_cell_angle_gamma    90.66694566819858

_space_group_name_H-M_alt    "P 1"
_space_group_IT_number       1

loop_
  _space_group_symop_operation_xyz
  'x, y, z'

loop_
  _atom_site_type_symbol
  _atom_site_label
  _atom_site_symmetry_multiplicity
  _atom_site_fract_x
  _atom_site_fract_y
  _atom_site_fract_z
  _atom_site_occupancy
  N   N1        1.0  0.7069086636240732  0.43789315392075934  0.5345677064240577  1.0000
  C   C1        1.0  0.6561066805496789  0.4031926231300138  0.6011319943265632  1.0000
  C   C2        1.0  0.592903886025711  0.36002802197109673  0.6839294740452415  1.0000
  C   C3        1.0  0.6046631718095445  0.2965260978470643  0.8066514358297936  1.0000
  C   C4        1.0  0.5433670839280086  0.2550403680248625  0.8871648880340239  1.0000
  C   C5        1.0  0.4701575273119574  0.27674354573618465  0.8455971913883944  1.0000
  C   C6        1.0  0.4574213424063579  0.34039984104425947  0.7224150247465804  1.0000
  C   C7        1.0  0.3796428573424998  0.3634320449741979  0.6780666044684349  1.0000
  C   C8        1.0  0.36084017394162  0.3465096523680886  0.5484880079590861  1.0000
  C   C9        1.0  0.2876006741385115  0.36817408536619656  0.5068762425501145  1.0000
  C   C10       1.0  0.23222058780445584  0.40707911662093865  0.5940227828878273  1.0000
  C   C11       1.0  0.1568440181473522  0.4294014792026679  0.5510496870575279  1.0000
  N   N2        1.0  0.0962466304118176  0.4473470003246054  0.5165024455855771  1.0000
  C   C12       1.0  0.2503315799562965  0.42421187772922897  0.7230702342703044  1.0000
  C   C13       1.0  0.3235183677530447  0.40251261432183405  0.7649374299747735  1.0000
  C   C14       1.0  0.5195747457782135  0.3818810123591212  0.6419179885851984  1.0000
  H   H1        1.0  0.661137727569619  0.27912476522903296  0.8400179446539635  1.0000
  H   H2        1.0  0.5525900689529233  0.2056254140330911  0.9819037797332952  1.0000
  H   H3        1.0  0.42353518510108484  0.2422125272246325  0.9090382002073469  1.0000
  H   H4        1.0  0.4025124063187497  0.3148414807304756  0.47977391752739806  1.0000
  H   H5        1.0  0.274144594524426  0.354254654424107  0.4068431405093844  1.0000
  H   H6        1.0  0.20794269257387063  0.4546568366878565  0.7912696388737603  1.0000
  H   H7        1.0  0.33644571056943984  0.41797736574589717  0.8647876774827383  1.0000
  H   H8        1.0  0.5110500373067861  0.4326583943082487  0.5474133225841922  1.0000
  C   C15       1.0  0.9016487556646989  0.06125406007398615  0.5255707039814204  1.0000
  C   C16       1.0  0.8799245434935297  0.04960910965660226  0.658018207114869  1.0000
  C   C17       1.0  0.8688570980559549  0.9265707794337897  0.7250999790462325  1.0000
  C   C18       1.0  0.8797895647046493  0.8143235145598656  0.6579586843373024  1.0000
  C   C19       1.0  0.9015137433692672  0.8239762490500987  0.5255102502336626  1.0000
  C   C20       1.0  0.9123234445355365  0.9478800293287818  0.4600584719607099  1.0000
  C   C21       1.0  0.845878689307688  0.9153052966334825  0.8652230439510347  1.0000
  C   C22       1.0  0.7910714675356192  0.8231249262855989  0.9128321490644644  1.0000
  C   C23       1.0  0.7695124277193373  0.8127974181013877  0.04457295850433063  1.0000
  C   C24       1.0  0.8022748929277712  0.8939705605529059  0.13040189754586373  1.0000
  C   C25       1.0  0.8572824300049828  0.9867655723121102  0.08465522387488988  1.0000
  C   C26       1.0  0.8786084853144109  0.9967260407495742  0.9523985195163751  1.0000
  O   O1        1.0  0.8920221380326706  0.07034006045919639  0.16691263943919088  1.0000
  C   C27       1.0  0.8759389064559887  0.07097659799266154  0.3029964752961154  1.0000
  H   H9        1.0  0.9099594920580032  0.3931435695365779  0.4751222864891176  1.0000
  H   H10       1.0  0.8705645648248259  0.13642658835655785  0.7088818198619946  1.0000
  H   H11       1.0  0.8723090389411314  0.7192605080696574  0.7096742136862386  1.0000
  H   H12       1.0  0.9290833345525669  0.9560952341449028  0.35788079234907166  1.0000
  H   H13       1.0  0.9097542637424155  0.5002020040934775  0.4750274552642715  1.0000
  H   H14       1.0  0.7641898650477237  0.7602190153862345  0.8478692105717325  1.0000
  H   H15       1.0  0.7270894167149102  0.7418095533167336  0.08022055336632206  1.0000
  H   H16       1.0  0.7844884488729874  0.8838259032821596  0.23189487133086406  1.0000
  H   H17       1.0  0.9216379043745697  0.06730297207697555  0.9182356612978031  1.0000
  H   H18       1.0  0.8889247481769489  0.9747813380389442  0.3530170607542956  1.0000
  H   H19       1.0  0.9113968828490469  0.14649199534038648  0.3435659946721785  1.0000
  H   H20       1.0  0.8159692088868958  0.09443635013982998  0.3202147163690283  1.0000
  C   C28       1.0  0.9015167439895336  0.44246617163234836  0.14417095600235919  1.0000
  C   C29       1.0  0.8238505826407646  0.4162001959254331  0.14844828471487115  1.0000
  C   C30       1.0  0.7846084413513995  0.40304886794459605  0.033443087142048356  1.0000
  C   C31       1.0  0.8240277716092428  0.41652179577319437  0.9131320677924886  1.0000
  C   C32       1.0  0.9016457483860932  0.44276416737551116  0.9069100294332748  1.0000
  C   C33       1.0  0.9399370196469942  0.45557951834222643  0.02298398597556983  1.0000
  C   C34       1.0  0.7024961527149105  0.37529234529700517  0.038938350165323765  1.0000
  C   C35       1.0  0.6549713184085287  0.4393747938220445  0.9484701753083824  1.0000
  C   C36       1.0  0.5776987997646573  0.41329820999338107  0.9537194935807665  1.0000
  C   C37       1.0  0.5466506648997184  0.32183251687678793  0.04862806578336709  1.0000
  C   C38       1.0  0.5936713262407095  0.25883410047180644  0.14003806876576452  1.0000
  C   C39       1.0  0.6709474140228636  0.2848811237251727  0.13496673713674268  1.0000
  C   C40       1.0  0.4634025616326588  0.29652453667051004  0.056409223178975676  1.0000
  O   O2        1.0  0.42964440225002837  0.38329244304028487  0.13747512444484267  1.0000
  H   H21       1.0  0.04801978373917626  0.492871810077683  0.3433300224531315  1.0000
  H   H22       1.0  0.7935642688364569  0.40770112167228545  0.24132983163398558  1.0000
  H   H23       1.0  0.7942231807623064  0.404745871579413  0.8243368506574043  1.0000
  H   H24       1.0  0.9998056805543837  0.4758246805129609  0.01890058090261637  1.0000
  H   H25       1.0  0.9314903981648589  0.4529435803263113  0.5770352170471789  1.0000
  H   H26       1.0  0.6774155023837444  0.5111756283678781  0.8748648676700972  1.0000
  H   H27       1.0  0.5420457290963726  0.4647125324318726  0.8838883946282898  1.0000
  H   H28       1.0  0.5705340201412211  0.18922282087023823  0.2151152249145114  1.0000
  H   H29       1.0  0.7061490198023422  0.2332553396440813  0.2053420150938814  1.0000
  H   H30       1.0  0.4514972367470412  0.19444855234766623  0.09578941692244314  1.0000
  H   H31       1.0  0.4396212371138992  0.3093122951282279  0.9573806490313039  1.0000
  H   H32       1.0  0.3750361841969364  0.362612952078486  0.13930725973520253  1.0000
  Zn  Zn1       1.0  0.8192631923557034  0.4406178580895468  0.5293619471835849  1.0000
  Zn  Zn2       1.0  0.9838920905899466  0.44461168077816215  0.5217187916981423  1.0000
  C   C41       1.0  0.9016205894482704  0.4375341580780292  0.762736513177342  1.0000
  C   C42       1.0  0.9015364909712803  0.44769706305938994  0.288344269578253  1.0000
  C   C43       1.0  0.9015345028640973  0.6798034276013245  0.5203467153219503  1.0000
  C   C44       1.0  0.9016225216670658  0.2054262319092679  0.5307341394040355  1.0000
  O   O3        1.0  0.9640189281510035  0.4509625672038302  0.3338296134284313  1.0000
  O   O4        1.0  0.9640876768851627  0.4372988930821513  0.7114498173952306  1.0000
  O   O5        1.0  0.9640173189043074  0.6329343722314014  0.515718379673225  1.0000
  O   O6        1.0  0.9640892299370556  0.2553270959438687  0.5295609563829635  1.0000
  O   O7        1.0  0.8390659968288299  0.6299024415623555  0.5215197851001665  1.0000
  O   O8        1.0  0.8391363545183076  0.4342685226784473  0.717251153453184  1.0000
  O   O9        1.0  0.8390676055780744  0.4479321509356813  0.3396293880843826  1.0000
  O   O10       1.0  0.8391379073791648  0.2522966704249461  0.5353608284077913  1.0000
