data_image0
_chemical_formula_structural       NC12NC2H8C12OCH12C12SCH12Zn2C4O8
_chemical_formula_sum              "N2 C44 H32 O9 S1 Zn2"
_cell_length_a       19.240039667572717
_cell_length_b       10.29979075500242
_cell_length_c       10.299780138516091
_cell_angle_alpha    85.57237843546018
_cell_angle_beta     89.99202709574732
_cell_angle_gamma    89.9807799165636

_space_group_name_H-M_alt    "P 1"
_space_group_IT_number       1

loop_
  _space_group_symop_operation_xyz
  'x, y, z'

loop_
  _atom_site_type_symbol
  _atom_site_label
  _atom_site_symmetry_multiplicity
  _atom_site_fract_x
  _atom_site_fract_y
  _atom_site_fract_z
  _atom_site_occupancy
  N   N1        1.0  0.6543286782615951  0.4208637400295909  0.5674449505829364  1.0000
  C   C1        1.0  0.5941803094353408  0.42086382398737077  0.5674448686455442  1.0000
  C   C2        1.0  0.5193622722833503  0.420863941233826  0.5674447313412538  1.0000
  C   C3        1.0  0.4828924268889488  0.35642808565580775  0.6708552393241987  1.0000
  C   C4        1.0  0.41022169224948696  0.3563172292430046  0.6709417830421034  1.0000
  C   C5        1.0  0.3730300373463671  0.4208640337343663  0.5674445036652509  1.0000
  C   C6        1.0  0.4102140607823833  0.4854110252662662  0.46394741881140567  1.0000
  C   C7        1.0  0.482884762739803  0.4852999333894712  0.46403408503568944  1.0000
  C   C8        1.0  0.29582494692797706  0.42086395504657426  0.5674444082576944  1.0000
  C   C9        1.0  0.2586543557302814  0.30761541488727273  0.609318511429749  1.0000
  C   C10       1.0  0.185983654956642  0.30772228894522646  0.6092271851239319  1.0000
  C   C11       1.0  0.1494926600234362  0.42086382589136884  0.5674444691712366  1.0000
  C   C12       1.0  0.0746746228703749  0.4208637122190457  0.5674447178261828  1.0000
  N   N2        1.0  0.014526306010071998  0.42086367145440273  0.5674449262381009  1.0000
  C   C13       1.0  0.1859491759371687  0.5340054386499262  0.5256617003266408  1.0000
  C   C14       1.0  0.2586198597453182  0.5341124927823027  0.525570211425187  1.0000
  H   H1        1.0  0.510610237423151  0.3065406355920002  0.7515952067049192  1.0000
  H   H2        1.0  0.3831311035978981  0.30722817538535074  0.7527971704889118  1.0000
  H   H3        1.0  0.383118118644776  0.5345001061619186  0.38209198051719095  1.0000
  H   H4        1.0  0.5105967236661307  0.5351872832688604  0.3832943934426951  1.0000
  H   H5        1.0  0.2857613173447276  0.21846915153207824  0.6404888476543151  1.0000
  H   H6        1.0  0.15828226095115008  0.21947549312478332  0.6414304003841405  1.0000
  H   H7        1.0  0.1582207464981925  0.6222522099377061  0.493458499617349  1.0000
  H   H8        1.0  0.2856993769372009  0.6232588353011974  0.49439983042743285  1.0000
  C   C15       1.0  0.8344932858670464  0.03949597122675108  0.5674838705215317  1.0000
  C   C16       1.0  0.8143648409653734  0.028366075891779197  0.6989163313599294  1.0000
  C   C17       1.0  0.8041104530050893  0.9055901788737695  0.7654810089646267  1.0000
  C   C18       1.0  0.8142399798846225  0.7930837645766421  0.698850549101357  1.0000
  C   C19       1.0  0.8343683940018176  0.8022214448864067  0.5674171557880181  1.0000
  C   C20       1.0  0.8443839570170093  0.925868897218685  0.5024704258577555  1.0000
  C   C21       1.0  0.782819932750899  0.8948694839077366  0.9045304289274425  1.0000
  C   C22       1.0  0.7321044466204009  0.8040156712183614  0.9495940694160765  1.0000
  C   C23       1.0  0.7121289722221809  0.7941992736276516  0.08032753798858072  1.0000
  C   C24       1.0  0.74241923629428  0.8745686045235215  0.1676719738639978  1.0000
  C   C25       1.0  0.7933196149403537  0.9660320172655159  0.12447995917191035  1.0000
  C   C26       1.0  0.8130796637521766  0.9754870823254104  0.9932198134317487  1.0000
  O   O1        1.0  0.8254399330227876  0.04875501216715983  0.2083448018723294  1.0000
  C   C27       1.0  0.8105293694919348  0.04976926144561622  0.34367512767398367  1.0000
  H   H9        1.0  0.8421935006825079  0.3711884222095221  0.5174237521588003  1.0000
  H   H10       1.0  0.805693831032072  0.11540605601141474  0.7493429405887666  1.0000
  H   H11       1.0  0.8073075379588383  0.6981975337404727  0.7502162310897436  1.0000
  H   H12       1.0  0.8599127367328377  0.9336867447605834  0.4010758353184831  1.0000
  H   H13       1.0  0.8420036568172587  0.4782518499978547  0.5173194039465228  1.0000
  H   H14       1.0  0.7072500307701933  0.7417687704922113  0.8833873733296496  1.0000
  H   H15       1.0  0.6728734070149631  0.7242383322718391  0.1140049045436552  1.0000
  H   H16       1.0  0.7259409040418894  0.8648463006468738  0.26833426578058417  1.0000
  H   H17       1.0  0.8528959023409602  0.045022222131434475  0.961055239766923  1.0000
  H   H18       1.0  0.8225316449002368  0.9532538842177709  0.3942955434845411  1.0000
  H   H19       1.0  0.8433237668001835  0.12441967055915693  0.38588763302489526  1.0000
  H   H20       1.0  0.7550448345266134  0.07468382793203965  0.3581100063947664  1.0000
  C   C28       1.0  0.8344587834832342  0.4207474192157834  0.18609842738098537  1.0000
  C   C29       1.0  0.7683843152938079  0.3627360745468635  0.18959792656805763  1.0000
  C   C30       1.0  0.734876341921802  0.3334555304837361  0.07422422400688578  1.0000
  C   C31       1.0  0.7683273773986128  0.3629615127755126  0.9542940103798405  1.0000
  C   C32       1.0  0.8344028823476184  0.42097003397091015  0.9488026731423127  1.0000
  C   C33       1.0  0.8670985501777781  0.449538935533343  0.06522790938397227  1.0000
  C   C34       1.0  0.6649741400806874  0.27209941789867265  0.0789892086116124  1.0000
  C   C35       1.0  0.6134933150475748  0.313760266173017  0.9880291010375641  1.0000
  C   C36       1.0  0.547716602765817  0.2559817943265097  0.9927504154499771  1.0000
  C   C37       1.0  0.5324612792206846  0.15617232141156534  0.08832187102095812  1.0000
  C   C38       1.0  0.5833236736577785  0.11371254300036693  0.17887639807060718  1.0000
  C   C39       1.0  0.6491434129339607  0.1713175855680349  0.1745175067294511  1.0000
  S   S1        1.0  0.4480892454569291  0.08190139756729309  0.09392976063114178  1.0000
  C   C40       1.0  0.4124284452906344  0.1961162735254025  0.202648742343583  1.0000
  H   H21       1.0  0.8596463236668013  0.4428048754015781  0.5122219715812086  1.0000
  H   H22       1.0  0.7424132816978314  0.34181383023039325  0.2821491061844994  1.0000
  H   H23       1.0  0.7431278078089457  0.3389601940613711  0.8652239031696798  1.0000
  H   H24       1.0  0.9180723515011899  0.49429143499481754  0.06175982272675995  1.0000
  H   H25       1.0  0.859565269059188  0.44313233817485687  0.619252374228882  1.0000
  H   H26       1.0  0.6238154716328362  0.3921278172987488  0.9143439945017535  1.0000
  H   H27       1.0  0.5085504611049521  0.28931496438605286  0.9224162045965225  1.0000
  H   H28       1.0  0.5719391240103566  0.036040964446690804  0.25268630851687335  1.0000
  H   H29       1.0  0.6879359479734286  0.1359334340267635  0.24475108178925375  1.0000
  H   H30       1.0  0.4418191582931449  0.19008618480199813  0.29566337480455895  1.0000
  H   H31       1.0  0.3572769853504759  0.17098761265176354  0.2234232951056765  1.0000
  H   H32       1.0  0.4150985162690771  0.296837946264209  0.1560486452836476  1.0000
  Zn  Zn1       1.0  0.7582739421232266  0.42086025523428083  0.567452431956458  1.0000
  Zn  Zn2       1.0  0.9105810618775324  0.4208565658953909  0.5674480442232932  1.0000
  C   C41       1.0  0.834412738747443  0.41575428635083167  0.8046356689888008  1.0000
  C   C42       1.0  0.8344439281646254  0.42596417339030324  0.3302649344606443  1.0000
  C   C43       1.0  0.8343887858472362  0.658048608411546  0.5622548606505513  1.0000
  C   C44       1.0  0.8344678293435155  0.18366829105326943  0.5726458121723508  1.0000
  O   O2        1.0  0.8922387017034155  0.427707897938018  0.3786468665872402  1.0000
  O   O3        1.0  0.892215545143165  0.4140067818516642  0.7562500329303312  1.0000
  O   O4        1.0  0.8921954236059529  0.6096625115586007  0.5605258152171793  1.0000
  O   O5        1.0  0.8922587712741411  0.23205217749411466  0.5743709869307005  1.0000
  O   O6        1.0  0.7765961807516731  0.6096646436382278  0.5605294892437174  1.0000
  O   O7        1.0  0.776616302035257  0.41401047421028125  0.7562536375780777  1.0000
  O   O8        1.0  0.7766394587635947  0.42771154458510807  0.37864890990706135  1.0000
  O   O9        1.0  0.7766595283258623  0.23205581488084204  0.5743731276148796  1.0000
