data_image0
_chemical_formula_structural       NC12NC2H8C12OCH12C12NCOH11Zn2C4O8
_chemical_formula_sum              "N3 C44 H31 O10 Zn2"
_cell_length_a       19.240039667572717
_cell_length_b       10.29979075500242
_cell_length_c       10.299148425239203
_cell_angle_alpha    85.53236164649607
_cell_angle_beta     89.98519547309932
_cell_angle_gamma    89.9807799165636

_space_group_name_H-M_alt    "P 1"
_space_group_IT_number       1

loop_
  _space_group_symop_operation_xyz
  'x, y, z'

loop_
  _atom_site_type_symbol
  _atom_site_label
  _atom_site_symmetry_multiplicity
  _atom_site_fract_x
  _atom_site_fract_y
  _atom_site_fract_z
  _atom_site_occupancy
  N   N1        1.0  0.6544199484655712  0.42186726528555063  0.567279222754679  1.0000
  C   C1        1.0  0.594271579644537  0.421867349300729  0.5672791408078077  1.0000
  C   C2        1.0  0.5194535425012944  0.42186746664336794  0.5672790034876329  1.0000
  C   C3        1.0  0.4829771086702666  0.3573591705287469  0.670701474709906  1.0000
  C   C4        1.0  0.4103063685169763  0.3572482534908341  0.6707880284397838  1.0000
  C   C5        1.0  0.3731213075788168  0.42186755930339803  0.5672787757852908  1.0000
  C   C6        1.0  0.4103119249673998  0.4864870520202347  0.4637697176763089  1.0000
  C   C7        1.0  0.4829826214031862  0.4863758994325127  0.4638563939267384  1.0000
  C   C8        1.0  0.29591621716650535  0.4218674806824405  0.5672786803666969  1.0000
  C   C9        1.0  0.2587429581076763  0.3085896071162859  0.6091576278232218  1.0000
  C   C10       1.0  0.186072263152571  0.3086965451496204  0.6090662909521496  1.0000
  C   C11       1.0  0.14958393025808359  0.42186735148456456  0.5672787412872857  1.0000
  C   C12       1.0  0.0747658930891801  0.4218672376380548  0.5672789899709985  1.0000
  N   N2        1.0  0.014617576215598999  0.42186719672741635  0.5672791984070269  1.0000
  C   C13       1.0  0.1860431082139042  0.5350382336689747  0.5254911387244035  1.0000
  C   C14       1.0  0.2587137978509471  0.5351453518906324  0.5253996392388838  1.0000
  H   H1        1.0  0.5106897751415619  0.30741516096555754  0.7514507826457786  1.0000
  H   H2        1.0  0.3832105647374159  0.3081018587661237  0.7526528854812147  1.0000
  H   H3        1.0  0.3832211979610036  0.535633473818562  0.3819048097815889  1.0000
  H   H4        1.0  0.51069972637485  0.5363198086180905  0.38310736181049654  1.0000
  H   H5        1.0  0.2858479338138348  0.21942150849573716  0.6403315700468251  1.0000
  H   H6        1.0  0.1583688174325383  0.22042719051731874  0.6412732317019512  1.0000
  H   H7        1.0  0.15831673048854178  0.6233075637584202  0.4932842125272019  1.0000
  H   H8        1.0  0.2857953009539701  0.6243135297062452  0.4942256522369133  1.0000
  C   C15       1.0  0.8345845535913753  0.04049946921873815  0.5673181471958004  1.0000
  C   C16       1.0  0.814447734932956  0.029277503569290264  0.6987658130459053  1.0000
  C   C17       1.0  0.8041891060384717  0.906454977044681  0.7653381913106663  1.0000
  C   C18       1.0  0.81432287804329  0.7939952383355641  0.6987000231771883  1.0000
  C   C19       1.0  0.8344596659766412  0.8032249896130168  0.5672514247442673  1.0000
  C   C20       1.0  0.84447936684419  0.9269179380564592  0.5022971813292638  1.0000
  C   C21       1.0  0.7828897267397874  0.8956368759756044  0.9044036974674472  1.0000
  C   C22       1.0  0.7321713695380093  0.8047514955629683  0.9494725512281821  1.0000
  C   C23       1.0  0.7121875659168756  0.7948435173118399  0.08022114394815627  1.0000
  C   C24       1.0  0.7424722651455978  0.875151662183896  0.1675756844290991  1.0000
  C   C25       1.0  0.7933753956188999  0.9666453315485708  0.12437867298746563  1.0000
  C   C26       1.0  0.8131438072090191  0.976192346213756  0.9931033421701934  1.0000
  O   O1        1.0  0.8254903705479917  0.04930957793107682  0.20825321775012218  1.0000
  C   C27       1.0  0.8105711849216426  0.05022902638502402  0.343599199495331  1.0000
  H   H9        1.0  0.8422879578111224  0.3722269880288249  0.5172522375340176  1.0000
  H   H10       1.0  0.8057735122456928  0.11628215912952844  0.7491982559719794  1.0000
  H   H11       1.0  0.8073871635338279  0.6990730251061273  0.7500716475012124  1.0000
  H   H12       1.0  0.8600146065595587  0.9348068139560219  0.400890860765869  1.0000
  H   H13       1.0  0.8420981205940524  0.47929048891456955  0.5171478772500209  1.0000
  H   H14       1.0  0.7073211718144692  0.7425509735722555  0.8832581958954571  1.0000
  H   H15       1.0  0.6729298550747546  0.7248589844801495  0.11390240653279216  1.0000
  H   H16       1.0  0.7259875195494966  0.8653588429352195  0.26824962165246347  1.0000
  H   H17       1.0  0.8529620950504304  0.04575001776264953  0.9609350474861005  1.0000
  H   H18       1.0  0.8225702352282787  0.9536781888335047  0.39422547142400466  1.0000
  H   H19       1.0  0.8433628928086537  0.12484986503615625  0.385816588279406  1.0000
  H   H20       1.0  0.755085730288818  0.07513348103290518  0.3580357481422378  1.0000
  C   C28       1.0  0.8345743498390209  0.42201808315340217  0.18588858276215148  1.0000
  C   C29       1.0  0.9050850358859192  0.4575768668401967  0.18191603154059055  1.0000
  C   C30       1.0  0.9407250646363733  0.4753917114648456  0.06276974660304258  1.0000
  C   C31       1.0  0.9049385737291192  0.4572367174817724  0.9466589063065545  1.0000
  C   C32       1.0  0.8344698397481751  0.42170640737210285  0.9486809988779847  1.0000
  C   C33       1.0  0.7997011488861334  0.4042964298055258  0.06880163346216528  1.0000
  C   C34       1.0  0.015274915711394943  0.5129843725742522  0.05965992847195056  1.0000
  C   C35       1.0  0.061987105219030836  0.45561360324894595  0.9760668947136653  1.0000
  C   C36       1.0  0.13210482511195165  0.491126836503444  0.9732896624373755  1.0000
  C   C37       1.0  0.1571523360032896  0.5833995037886894  0.05479057817713495  1.0000
  C   C38       1.0  0.11037086860487699  0.642616482786359  0.13681505389663617  1.0000
  C   C39       1.0  0.04022172188897266  0.607209917753037  0.13968911809580709  1.0000
  N   N3        1.0  0.22932721508611476  0.6196063490513426  0.04825200212985936  1.0000
  C   C40       1.0  0.26929946250757375  0.6562792620177447  0.15697888801348037  1.0000
  O   O2        1.0  0.24578495924401533  0.642116765983272  0.27134030589036184  1.0000
  H   H21       1.0  0.7015996078063776  0.354138748932205  0.4007395143652184  1.0000
  H   H22       1.0  0.9326583464142812  0.46977224098760284  0.2718413652753531  1.0000
  H   H23       1.0  0.931902609028158  0.47262834575841395  0.8544246588970394  1.0000
  H   H24       1.0  0.7453476663421763  0.37688747815042545  0.07107641988612401  1.0000
  H   H25       1.0  0.8073677165257034  0.40800419856083425  0.6219856153151126  1.0000
  H   H26       1.0  0.04447620580784517  0.38210406761372884  0.9139004791447953  1.0000
  H   H27       1.0  0.16723030284408114  0.44558903641826975  0.9083387242066818  1.0000
  H   H28       1.0  0.127487005499761  0.7182905492778906  0.19657467166831566  1.0000
  H   H29       1.0  0.0051778184707640396  0.6554139625364095  0.20274724918078002  1.0000
  H   H30       1.0  0.2560597562642204  0.6106670570256518  0.9610697051040225  1.0000
  H   H31       1.0  0.3214798448754532  0.6933189057573053  0.141151770073771  1.0000
  Zn  Zn1       1.0  0.7583652118505531  0.42186377524943186  0.5672867049936974  1.0000
  Zn  Zn2       1.0  0.9106723318844078  0.42186008898421123  0.5672823167529293  1.0000
  C   C41       1.0  0.8344888971794425  0.41659165612362425  0.8044973810154095  1.0000
  C   C42       1.0  0.8345503094587191  0.4271338466323278  0.33007176801563354  1.0000
  C   C43       1.0  0.8344803867195286  0.6590557693995709  0.5620885323969675  1.0000
  C   C44       1.0  0.8345587681928965  0.18466817303146477  0.5724806860155589  1.0000
  O   O3        1.0  0.8923420005129543  0.4288436789461345  0.378459297297147  1.0000
  O   O4        1.0  0.8922947862957028  0.4148780464530222  0.7561061473735271  1.0000
  O   O5        1.0  0.8922871346382908  0.6106708837676262  0.5603592869357192  1.0000
  O   O6        1.0  0.892349600210083  0.23305085096277245  0.5742060603539989  1.0000
  O   O7        1.0  0.7766878915499335  0.6106730132735454  0.5603629613872931  1.0000
  O   O8        1.0  0.776695542958137  0.4148817362865318  0.756109752438284  1.0000
  O   O9        1.0  0.7767427574429505  0.42884732416184956  0.3784613408533528  1.0000
  O   O10       1.0  0.776750357125418  0.23305448684991958  0.5742082012858267  1.0000
