data_image0
_chemical_formula_structural       NC10NC5H10C12SCH12C12BrH9Zn2C4O8
_chemical_formula_sum              "N2 C44 H31 S1 Br1 Zn2 O8"
_cell_length_a       19.4436361288709
_cell_length_b       10.299776766347529
_cell_length_c       10.299148005577397
_cell_angle_alpha    85.55397783742741
_cell_angle_beta     89.67790826124899
_cell_angle_gamma    89.39962546058797

_space_group_name_H-M_alt    "P 1"
_space_group_IT_number       1

loop_
  _space_group_symop_operation_xyz
  'x, y, z'

loop_
  _atom_site_type_symbol
  _atom_site_label
  _atom_site_symmetry_multiplicity
  _atom_site_fract_x
  _atom_site_fract_y
  _atom_site_fract_z
  _atom_site_occupancy
  N   N1        1.0  0.6477569530322524  0.4094998232755107  0.5620840376810563  1.0000
  C   C1        1.0  0.5889166244555367  0.41939702045502014  0.576469281273815  1.0000
  C   C2        1.0  0.5155818516389704  0.4317401349846133  0.5944631837013445  1.0000
  C   C3        1.0  0.47342127368081616  0.3997737998642412  0.4997827127419323  1.0000
  C   C4        1.0  0.3975137875126656  0.41021026817541695  0.5051115921325968  1.0000
  C   C5        1.0  0.3577586687851867  0.3854284850161376  0.612188663794661  1.0000
  C   C6        1.0  0.2816398794235935  0.3893491946035108  0.5992287682300323  1.0000
  C   C7        1.0  0.24104923515530294  0.4469799221053985  0.6930073939454413  1.0000
  C   C8        1.0  0.1693871895242506  0.4506209985211329  0.6824630950812789  1.0000
  C   C9        1.0  0.1373210475401339  0.3962352491453298  0.5784266933952791  1.0000
  C   C10       1.0  0.0635297758242361  0.3999376176756049  0.567727107044596  1.0000
  N   N2        1.0  0.004206598333229699  0.4029141276500243  0.5591253489911485  1.0000
  C   C11       1.0  0.17718685189233502  0.3378973169987798  0.48503128889592206  1.0000
  C   C12       1.0  0.24886538354984877  0.33420209761373254  0.49532379391089365  1.0000
  C   C13       1.0  0.3858737718482227  0.3449263302974481  0.7432884750517883  1.0000
  C   C14       1.0  0.4445209054623028  0.3880326099352034  0.7905356713208791  1.0000
  C   C15       1.0  0.4887252945077409  0.4859133967930711  0.716168981568184  1.0000
  H   H1        1.0  0.4955424507720064  0.3706858919098448  0.4094695293004751  1.0000
  H   H2        1.0  0.372829051647149  0.43273441922607025  0.4119492544480716  1.0000
  H   H3        1.0  0.2648968372269783  0.490244470838594  0.7738622652016118  1.0000
  H   H4        1.0  0.1390206712619179  0.49591178183298346  0.7553901669969787  1.0000
  H   H5        1.0  0.15286726986766938  0.29482831658026165  0.4045109284985793  1.0000
  H   H6        1.0  0.2785665453688853  0.2866677293560318  0.423092982827854  1.0000
  H   H7        1.0  0.3549073585608253  0.28068950564661055  0.8075357400933856  1.0000
  H   H8        1.0  0.45965825893603907  0.35393450439668883  0.8884737872220245  1.0000
  H   H9        1.0  0.4586052371945396  0.5766346400777174  0.6909201502393327  1.0000
  H   H10       1.0  0.5319939880173266  0.5114789294225022  0.7792586666246513  1.0000
  C   C16       1.0  0.8260499162011667  0.02484058338657591  0.5606025573626572  1.0000
  C   C17       1.0  0.830149374676954  0.013183671080640114  0.697088519081166  1.0000
  C   C18       1.0  0.8321603817307747  0.8901396225526228  0.7662529507409999  1.0000
  C   C19       1.0  0.8300178551092418  0.7778983224638046  0.6971048017413632  1.0000
  C   C20       1.0  0.8259202337483453  0.7875632534234471  0.5606180753586871  1.0000
  C   C21       1.0  0.8239588148235649  0.9114727069328133  0.49313097093727043  1.0000
  C   C22       1.0  0.836489566562909  0.878871970785563  0.9106397613182684  1.0000
  C   C23       1.0  0.7971075965464639  0.7861286305748266  0.9850126385023048  1.0000
  C   C24       1.0  0.8012025234645127  0.7757585263239308  0.1208940217953034  1.0000
  C   C25       1.0  0.8445074904956063  0.8578561136695584  0.18421070793016026  1.0000
  C   C26       1.0  0.8840532572490439  0.9500224456486055  0.11120959730762459  1.0000
  C   C27       1.0  0.8800591862895161  0.9607405767503152  0.9753169614112065  1.0000
  S   S1        1.0  0.8498376910321433  0.8440879042067914  0.3585645878756548  1.0000
  C   C28       1.0  0.780718582181743  0.9614239802384594  0.3786678840123904  1.0000
  H   H11       1.0  0.8245148953348693  0.3567353781520297  0.5085949857410625  1.0000
  H   H12       1.0  0.8308393733445576  0.09999447483657264  0.7500434873102542  1.0000
  H   H13       1.0  0.8325012563587288  0.6828312119289885  0.7498487390540867  1.0000
  H   H14       1.0  0.8207967271714176  0.9196970221544363  0.38783785092995693  1.0000
  H   H15       1.0  0.8243245146494252  0.46379289481926167  0.5086156735231686  1.0000
  H   H16       1.0  0.7624959026335045  0.7228107271915561  0.9381836947120645  1.0000
  H   H17       1.0  0.7704382294066774  0.7042567272874566  0.17687335903829293  1.0000
  H   H18       1.0  0.9179325455133613  0.013409530807762193  0.15963362573504447  1.0000
  H   H19       1.0  0.9116912094290436  0.03185719245837504  0.9207435275385165  1.0000
  H   H20       1.0  0.7944993089151573  0.057506015244174646  0.32967366027554146  1.0000
  H   H21       1.0  0.7727229482539302  0.9722361529630535  0.4840182268072226  1.0000
  H   H22       1.0  0.7323312088809953  0.9267914511125255  0.3369455454879968  1.0000
  C   C29       1.0  0.8260788030956656  0.4062522302434266  0.17922133384789296  1.0000
  C   C30       1.0  0.7613736578195476  0.46822697277457426  0.1743225195677387  1.0000
  C   C31       1.0  0.7284699305343889  0.4995980163140419  0.054701252897021435  1.0000
  C   C32       1.0  0.7611441189634799  0.4681584093418947  0.9390473885202812  1.0000
  C   C33       1.0  0.8258913123321274  0.4061516234148108  0.941999241531414  1.0000
  C   C34       1.0  0.8579598331156578  0.3755783780031938  0.06251328218066932  1.0000
  C   C35       1.0  0.6600201872576571  0.5651617372592164  0.050563810803445186  1.0000
  C   C36       1.0  0.6455556434607361  0.6667458220061206  0.13076379619814404  1.0000
  C   C37       1.0  0.58109969175633  0.7283451067645608  0.12667506836978015  1.0000
  C   C38       1.0  0.5303756016022386  0.6893389298122983  0.04273069153062781  1.0000
  C   C39       1.0  0.5441492081352961  0.5885544690669224  0.9626839906356666  1.0000
  C   C40       1.0  0.6085467228045737  0.5267343005655085  0.9663806608541976  1.0000
  Br  Br1       1.0  0.442369229357969  0.773634822710705  0.03741249337253594  1.0000
  H   H23       1.0  0.8509812261119851  0.38246649890555884  0.5085770016621516  1.0000
  H   H24       1.0  0.7359900613915756  0.49064199308891254  0.26387313623018693  1.0000
  H   H25       1.0  0.736439007543863  0.4937095863425536  0.8464364473401491  1.0000
  H   H26       1.0  0.9078695215605725  0.3277796323236184  0.06557580988678713  1.0000
  H   H27       1.0  0.9482901666612837  0.289848752501382  0.7402202332301187  1.0000
  H   H28       1.0  0.6843584537145244  0.6996457130808131  0.195349936153284  1.0000
  H   H29       1.0  0.5706999905973136  0.8066028711063633  0.18856736651878214  1.0000
  H   H30       1.0  0.5049391624532578  0.5578140685846651  0.8977942704786179  1.0000
  H   H31       1.0  0.6177956496440529  0.4478085127118767  0.9046989954907159  1.0000
  Zn  Zn1       1.0  0.7506206209407843  0.40759586143995596  0.5612377365001306  1.0000
  Zn  Zn2       1.0  0.901342921118336  0.4048074804653865  0.5599823316981294  1.0000
  C   C41       1.0  0.8259261061353889  0.4009970178123867  0.7978178199030905  1.0000
  C   C42       1.0  0.8260390814965777  0.41140793223558614  0.32340236209263407  1.0000
  C   C43       1.0  0.8259424599322166  0.6433931876505545  0.5554397097489079  1.0000
  C   C44       1.0  0.826022676517081  0.16901020304775893  0.56578054188577  1.0000
  O   O1        1.0  0.8832240789500574  0.412074391170973  0.37131441258665765  1.0000
  O   O2        1.0  0.8831358472985372  0.3982132625694985  0.7489525723268371  1.0000
  O   O3        1.0  0.8831482818035646  0.5939512493183678  0.5532305399618844  1.0000
  O   O4        1.0  0.8832115930360729  0.21633641467659337  0.5670363480003944  1.0000
  O   O5        1.0  0.7687518975889247  0.5960669281817015  0.5541837206194427  1.0000
  O   O6        1.0  0.7687394628324435  0.40033050173544416  0.7499056837670186  1.0000
  O   O7        1.0  0.7688276949211925  0.4141915852863838  0.3722659625427358  1.0000
  O   O8        1.0  0.7688152089820423  0.21845359949046683  0.5679879953292652  1.0000
