data_image0
_chemical_formula_structural       NC9NC5H8C12OCH12C12NCOCH13Zn2C4O8
_chemical_formula_sum              "N3 C45 H33 O10 Zn2"
_cell_length_a       17.807436237873137
_cell_length_b       10.29979075500242
_cell_length_c       10.299158637457994
_cell_angle_alpha    85.5763692806703
_cell_angle_beta     89.37443015321585
_cell_angle_gamma    88.37243818242351

_space_group_name_H-M_alt    "P 1"
_space_group_IT_number       1

loop_
  _space_group_symop_operation_xyz
  'x, y, z'

loop_
  _atom_site_type_symbol
  _atom_site_label
  _atom_site_symmetry_multiplicity
  _atom_site_fract_x
  _atom_site_fract_y
  _atom_site_fract_z
  _atom_site_occupancy
  N   N1        1.0  0.707432793304025  0.387235096566078  0.5569909073476911  1.0000
  C   C1        1.0  0.6468535429097986  0.35204122646266756  0.54596979241051  1.0000
  C   C2        1.0  0.5714996136433838  0.30826392779953404  0.5322607220839941  1.0000
  C   C3        1.0  0.5534403194482949  0.23681036932066646  0.4272623265637776  1.0000
  C   C4        1.0  0.4802755772049577  0.19419445897120702  0.41386908255040233  1.0000
  C   C5        1.0  0.4241214835715033  0.22265456424010788  0.5054418137633157  1.0000
  C   C6        1.0  0.3463661875386296  0.17747977403669712  0.4912903297523801  1.0000
  C   C7        1.0  0.2841705387597796  0.25924568734530706  0.5172227355986649  1.0000
  C   C8        1.0  0.2108635250996899  0.2164267431401503  0.5038431900351992  1.0000
  C   C9        1.0  0.1476172422097571  0.30088415088863485  0.5301392772465918  1.0000
  N   N2        1.0  0.0967802202291298  0.3687820640158679  0.5512806053589394  1.0000
  C   C10       1.0  0.1991686657809875  0.09158389549298152  0.4645059102516502  1.0000
  C   C11       1.0  0.2605069487476311  0.009804126781514766  0.43856511574982626  1.0000
  C   C12       1.0  0.333694637876036  0.05222845474557136  0.4517421531609651  1.0000
  C   C13       1.0  0.442872054002155  0.294602570747198  0.6106594005191748  1.0000
  C   C14       1.0  0.5160897301784632  0.33702802932555564  0.6238970074870012  1.0000
  H   H1        1.0  0.5958525191976843  0.21429894762704182  0.3555503884174782  1.0000
  H   H2        1.0  0.4673879103524705  0.14048179436119157  0.3309519074745726  1.0000
  H   H3        1.0  0.2926453781382677  0.3567214295537815  0.5460919736119099  1.0000
  H   H4        1.0  0.1427116368377118  0.0575438696012569  0.45391374385264616  1.0000
  H   H5        1.0  0.2513338418979259  0.9131480497133487  0.4084953791089443  1.0000
  H   H6        1.0  0.3803506538678472  0.9864762559796915  0.43269902146808215  1.0000
  H   H7        1.0  0.4011765901293888  0.3165754127186402  0.6836659020664784  1.0000
  H   H8        1.0  0.5295057233532322  0.391960904471645  0.7057724370026446  1.0000
  C   C15       1.0  0.9021776016358439  0.9966374822223286  0.5541736866449951  1.0000
  C   C16       1.0  0.8804063498492505  0.986548615926822  0.6859326740097726  1.0000
  C   C17       1.0  0.8693150793638679  0.8643030391906578  0.752663677534628  1.0000
  C   C18       1.0  0.8802713910611981  0.7512726963271911  0.6858688674500304  1.0000
  C   C19       1.0  0.902042609670415  0.7593693491047201  0.5541089480456163  1.0000
  C   C20       1.0  0.9128755570569804  0.882498837396185  0.4889997697550401  1.0000
  C   C21       1.0  0.8462869050105972  0.8546834771559616  0.8920584770151472  1.0000
  C   C22       1.0  0.7914624046810715  0.766431199432043  0.937928656069247  1.0000
  C   C23       1.0  0.7698565766240122  0.7576479418193908  0.06898618661221712  1.0000
  C   C24       1.0  0.8025889277332086  0.8364720438028992  0.15585537040595376  1.0000
  C   C25       1.0  0.8576130858933888  0.9253245897440902  0.11185399187371892  1.0000
  C   C26       1.0  0.878986110167665  0.933757511638155  0.980273169519218  1.0000
  O   O1        1.0  0.8923239592225417  0.006408341212956081  0.19521437398202746  1.0000
  C   C27       1.0  0.8761924456495938  0.008196599048472919  0.33078872781090585  1.0000
  H   H9        1.0  0.9105062554058572  0.3279316999743249  0.5039886667224986  1.0000
  H   H10       1.0  0.8710282986231155  0.07403659065312285  0.7364995954983296  1.0000
  H   H11       1.0  0.8727725060668954  0.6567454634643893  0.7373473533380637  1.0000
  H   H12       1.0  0.9296717361639388  0.8895135476145873  0.38735326931664527  1.0000
  H   H13       1.0  0.9103010590327043  0.4350048456624405  0.5038873221982509  1.0000
  H   H14       1.0  0.7646035788079912  0.7054526323054017  0.8721122328670801  1.0000
  H   H15       1.0  0.7274206172932112  0.6897005896152076  0.10328777426496005  1.0000
  H   H16       1.0  0.7847664288037792  0.8276014680438523  0.2567845840395063  1.0000
  H   H17       1.0  0.9220279569288635  0.0012504522867284873  0.947475571953923  1.0000
  H   H18       1.0  0.8891606889881015  0.9110701367483389  0.38122173401306236  1.0000
  H   H19       1.0  0.9116363449203799  0.08117011095357252  0.3724837314428322  1.0000
  H   H20       1.0  0.8162161831851114  0.03595472454512216  0.34610401693746184  1.0000
  C   C28       1.0  0.9021805532754619  0.37786212395828955  0.1727672273873988  1.0000
  C   C29       1.0  0.9039018924645713  0.5144833794924413  0.1614164881302813  1.0000
  C   C30       1.0  0.9047156465299029  0.5838948989116246  0.0385047268932861  1.0000
  C   C31       1.0  0.903758011679581  0.5148500673224294  0.9261070882780773  1.0000
  C   C32       1.0  0.9020396364657299  0.37814476268203423  0.9355154852479117  1.0000
  C   C33       1.0  0.9012647727956705  0.31049120354107607  0.059233168238227885  1.0000
  C   C34       1.0  0.9065375124831616  0.728423379883363  0.02747056294824013  1.0000
  C   C35       1.0  0.952636521667048  0.7940722244591014  0.10935591693471713  1.0000
  C   C36       1.0  0.9543571162842512  0.9300808573130945  0.09884123966014768  1.0000
  C   C37       1.0  0.9104892469022321  0.00314511062508549  0.005328854867199473  1.0000
  C   C38       1.0  0.8634954952425706  0.9378990590178593  0.9252396712552442  1.0000
  C   C39       1.0  0.8618057393673472  0.8019168739330589  0.9354929069447593  1.0000
  N   N3        1.0  0.9101775568845258  0.14320542437830186  0.9940858059595068  1.0000
  C   C40       1.0  0.9745302012347682  0.21914309530941845  0.016366656513321587  1.0000
  O   O2        1.0  0.03931260590912  0.1666602370872532  0.023936995468062605  1.0000
  C   C41       1.0  0.9656922286870226  0.3633766735645034  0.02108626456665519  1.0000
  H   H21       1.0  0.9015419899337772  0.3253087678248281  0.5046086355321935  1.0000
  H   H22       1.0  0.9035641307466095  0.5673164717182646  0.24836767985047548  1.0000
  H   H23       1.0  0.9053773584004848  0.5677867575717841  0.83110709594053  1.0000
  H   H24       1.0  0.8999396354413907  0.20511191531883455  0.0672733237612475  1.0000
  H   H25       1.0  0.8992523815375023  0.12008365805530108  0.7459744382889499  1.0000
  H   H26       1.0  0.9878075151042015  0.7401784243076033  0.18103719638027282  1.0000
  H   H27       1.0  0.9890155327283792  0.9777776587194209  0.1653601348621747  1.0000
  H   H28       1.0  0.8283457378287127  0.9926668573131587  0.8541272944402647  1.0000
  H   H29       1.0  0.8246860809281714  0.7542899425206635  0.8726943548651547  1.0000
  H   H30       1.0  0.861469482292421  0.1929687801425337  0.9598492880823661  1.0000
  H   H31       1.0  0.9128621344406037  0.3875951539793214  0.07327698696938412  1.0000
  H   H32       1.0  0.9636641032883414  0.4101399929008944  0.920393134845257  1.0000
  H   H33       1.0  0.013614671430102643  0.4018729181616729  0.073034619842127  1.0000
  Zn  Zn1       1.0  0.8197900483801097  0.38190648745797917  0.5553505487316968  1.0000
  Zn  Zn2       1.0  0.9844229468572434  0.3741000908496688  0.5529316416303021  1.0000
  C   C42       1.0  0.9020655103123186  0.372917691453607  0.7913401703050751  1.0000
  C   C43       1.0  0.9021492823975551  0.38309044028394834  0.31694212097174135  1.0000
  C   C44       1.0  0.9020651965273919  0.6151950811890723  0.5489460377669169  1.0000
  C   C45       1.0  0.9021495402681868  0.14081149292704898  0.5593363237072155  1.0000
  O   O3        1.0  0.9646161155887039  0.3818769584031143  0.36441057015437006  1.0000
  O   O4        1.0  0.9645512379618456  0.36820531907023035  0.7420354528341528  1.0000
  O   O5        1.0  0.96455014210281  0.5638474157334936  0.5463004880911106  1.0000
  O   O6        1.0  0.964617155286029  0.18623487365783653  0.5601454383460378  1.0000
  O   O7        1.0  0.8395957837701968  0.569771707315162  0.548136752834584  1.0000
  O   O8        1.0  0.8395968793624  0.3741311709386841  0.7438716481989331  1.0000
  O   O9        1.0  0.8396617573357094  0.3878027644344537  0.36624520410028305  1.0000
  O   O10       1.0  0.8396627970136176  0.1921606704365415  0.5619801696619489  1.0000
