data_image0
_chemical_formula_structural       NC10NC3NCH9C12NH11C12OCH12Zn2C4O8
_chemical_formula_sum              "N4 C43 H32 O9 Zn2"
_cell_length_a       19.437513618241372
_cell_length_b       10.299770795358612
_cell_length_c       10.299794127170987
_cell_angle_alpha    85.57261220462476
_cell_angle_beta     90.34079441948666
_cell_angle_gamma    89.53989505547142

_space_group_name_H-M_alt    "P 1"
_space_group_IT_number       1

loop_
  _space_group_symop_operation_xyz
  'x, y, z'

loop_
  _atom_site_type_symbol
  _atom_site_label
  _atom_site_symmetry_multiplicity
  _atom_site_fract_x
  _atom_site_fract_y
  _atom_site_fract_z
  _atom_site_occupancy
  N   N1        1.0  0.6481619067265212  0.4100576076030211  0.5756977021380083  1.0000
  C   C1        1.0  0.589231429928612  0.4270667531686083  0.5727218708891715  1.0000
  C   C2        1.0  0.5157945293694183  0.4483181288209297  0.5690280844787705  1.0000
  C   C3        1.0  0.47401570481726846  0.34712668568293337  0.5573690737413726  1.0000
  C   C4        1.0  0.398127543956224  0.3571896671320234  0.5501480846018898  1.0000
  C   C5        1.0  0.3585652964317165  0.43805231094291486  0.6158877754794783  1.0000
  C   C6        1.0  0.2823818137839288  0.4294422220428429  0.60744403973763  1.0000
  C   C7        1.0  0.24922592370297134  0.30810008576562287  0.6120868904130896  1.0000
  C   C8        1.0  0.17749032058782743  0.3017267711860503  0.6049191459361121  1.0000
  C   C9        1.0  0.1379398972800282  0.41622299569727916  0.5934707646013007  1.0000
  C   C10       1.0  0.0640897680266581  0.4095114671807576  0.5861349356141843  1.0000
  N   N2        1.0  0.0047193622257482  0.4041159884154122  0.5802373874945617  1.0000
  C   C11       1.0  0.17037912806951944  0.5372547319052234  0.5895731548917844  1.0000
  C   C12       1.0  0.24209917696850272  0.5438820484760307  0.5968029185969479  1.0000
  C   C13       1.0  0.3872631099796339  0.5303560275886092  0.7058038132880164  1.0000
  N   N3        1.0  0.4442591044230059  0.5935632641212376  0.6854007234407369  1.0000
  C   C14       1.0  0.48809960129365726  0.5842774913512176  0.572298364697678  1.0000
  H   H1        1.0  0.4963838120348179  0.252069036781712  0.5452481803488936  1.0000
  H   H2        1.0  0.3734023092102181  0.28766562575599885  0.4918324630854669  1.0000
  H   H3        1.0  0.2786609558531344  0.21819182816533766  0.6231069921258632  1.0000
  H   H4        1.0  0.1528808080691192  0.20750260290064748  0.608805890347712  1.0000
  H   H5        1.0  0.1402586762973817  0.6265085932193797  0.5808650923799275  1.0000
  H   H6        1.0  0.2662272375819714  0.6385190075518246  0.5929007161940556  1.0000
  H   H7        1.0  0.357262368996436  0.5507596842074667  0.7901666190837557  1.0000
  H   H8        1.0  0.5308640096564708  0.6545902544244808  0.578061683179117  1.0000
  H   H9        1.0  0.45843828887027327  0.6123661758820851  0.48165705545757187  1.0000
  C   C15       1.0  0.8263815841683996  0.02571922778293967  0.5780064022415363  1.0000
  C   C16       1.0  0.8064207779485173  0.03518957566394931  0.44634798900133155  1.0000
  C   C17       1.0  0.7963695874509144  0.9228510562467369  0.37960134298046544  1.0000
  C   C18       1.0  0.8065467100119375  0.799905844123066  0.44628104273248037  1.0000
  C   C19       1.0  0.8265062711508963  0.7884442253340849  0.5779399906418625  1.0000
  C   C20       1.0  0.8363122689726151  0.9019073287280552  0.643065277052594  1.0000
  C   C21       1.0  0.7752525142166741  0.9339235347897212  0.24031438720271692  1.0000
  C   C22       1.0  0.7251583715761827  0.025923288497845753  0.19449153256213259  1.0000
  C   C23       1.0  0.705312482527069  0.03621498810671997  0.06339396455759294  1.0000
  C   C24       1.0  0.735185150608483  0.9549320424347285  0.9760344274482611  1.0000
  C   C25       1.0  0.785114251656198  0.8631328661513268  0.02096466351549875  1.0000
  C   C26       1.0  0.8050152564559203  0.852584213757451  0.15203296164194868  1.0000
  N   N4        1.0  0.7148560637564432  0.9655909962453262  0.8419463411494776  1.0000
  H   H10       1.0  0.8339583144176953  0.3495633375997782  0.6281911205107069  1.0000
  H   H11       1.0  0.7995556558488117  0.1301946116948529  0.3949107365697839  1.0000
  H   H12       1.0  0.7979545241138725  0.7130056815914586  0.39576186050908824  1.0000
  H   H13       1.0  0.8517106038359578  0.8938333569047942  0.7446339052305109  1.0000
  H   H14       1.0  0.8341417021905679  0.45662387379179253  0.6280938363515758  1.0000
  H   H15       1.0  0.7006804375063651  0.0887611937224182  0.26038001728881  1.0000
  H   H16       1.0  0.666525595695268  0.10733309552106185  0.029990092406883884  1.0000
  H   H17       1.0  0.808741369028881  0.7999633872333571  0.9543761051826487  1.0000
  H   H18       1.0  0.8443296623845572  0.7819671761408244  0.1840040748064815  1.0000
  H   H19       1.0  0.7368317956195499  0.9054105865025277  0.7760896069995074  1.0000
  H   H20       1.0  0.67767958478039  0.03374195629081522  0.8075398527257893  1.0000
  C   C27       1.0  0.8264671174417244  0.4069678594991748  0.1966220933304461  1.0000
  C   C28       1.0  0.7590418540496948  0.358968918190228  0.19857465238477845  1.0000
  C   C29       1.0  0.7248580371475454  0.3347503787257875  0.08241691183726907  1.0000
  C   C30       1.0  0.7589951173312172  0.3591961630633511  0.9632691455151474  1.0000
  C   C31       1.0  0.8264207660304097  0.40719560537798816  0.9593243294864342  1.0000
  C   C32       1.0  0.8597799087388862  0.4308097849193704  0.07651571805213764  1.0000
  C   C33       1.0  0.6535278964969656  0.28396308996349084  0.08553733129109409  1.0000
  C   C34       1.0  0.6042829908897458  0.333450638099851  0.9937576857177328  1.0000
  C   C35       1.0  0.5372437246763309  0.28563790845591575  0.9969597606614635  1.0000
  C   C36       1.0  0.5184749507861232  0.1880170792888951  0.09141622167153018  1.0000
  C   C37       1.0  0.5670408809709145  0.1371362533070002  0.18404992994454372  1.0000
  C   C38       1.0  0.6341737743469223  0.18558696674099417  0.18039761436288382  1.0000
  O   O1        1.0  0.5508306623989193  0.03883382246620792  0.2806739797375897  1.0000
  C   C39       1.0  0.48487321924881593  0.980659571371409  0.2958766933365653  1.0000
  H   H21       1.0  0.8521681760414586  0.4251990515760131  0.5233357645363577  1.0000
  H   H22       1.0  0.7326073268910221  0.34198064718919485  0.29051666305177903  1.0000
  H   H23       1.0  0.7332013470008194  0.3390316105399944  0.8736110445561849  1.0000
  H   H24       1.0  0.9117959547089853  0.4678381053505334  0.0742410132224185  1.0000
  H   H25       1.0  0.852098987265953  0.42554697248651796  0.6303636298319746  1.0000
  H   H26       1.0  0.6173798813231719  0.41029824618101496  0.9205988641712297  1.0000
  H   H27       1.0  0.4996339379861808  0.32465990535471256  0.9261396134940059  1.0000
  H   H28       1.0  0.4662014237914027  0.15285407642671078  0.09158233655241443  1.0000
  H   H29       1.0  0.6714800005038194  0.14482001441065062  0.2510402862421137  1.0000
  H   H30       1.0  0.4706848218889145  0.932440421313727  0.20683983127366523  1.0000
  H   H31       1.0  0.48662892292339444  0.9061547298081984  0.3795775734192206  1.0000
  H   H32       1.0  0.4457000325270554  0.055570450714780506  0.31564838261477735  1.0000
  Zn  Zn1       1.0  0.7510566908003157  0.4083394976905861  0.5770152661770105  1.0000
  Zn  Zn2       1.0  0.9018245819687163  0.40582343200454574  0.5789304937587278  1.0000
  C   C40       1.0  0.826427126998741  0.401978906490672  0.8151577203384457  1.0000
  C   C41       1.0  0.8264557924111086  0.41218563438060163  0.34078818782945053  1.0000
  C   C42       1.0  0.8264794800582914  0.6442714721528402  0.5727776072994983  1.0000
  C   C43       1.0  0.8264033876457242  0.16989150930092944  0.5831683695860246  1.0000
  O   O2        1.0  0.883667619666073  0.41297626776031504  0.38989846549579  1.0000
  O   O3        1.0  0.8836446404716218  0.3992776576426025  0.7675006823479267  1.0000
  O   O4        1.0  0.8836861448531546  0.5949319818973045  0.5717770162739637  1.0000
  O   O5        1.0  0.8836260638451114  0.21732195362529083  0.5856220335452806  1.0000
  O   O6        1.0  0.7692551574742393  0.5968409769298624  0.5703237257300537  1.0000
  O   O7        1.0  0.7692136533488594  0.40118821295268625  0.7660473224259858  1.0000
  O   O8        1.0  0.7692366326766038  0.4148867773476621  0.38844354425050875  1.0000
  O   O9        1.0  0.7691950768453901  0.21923245395298196  0.5841672096640673  1.0000
