data_image0
_chemical_formula_structural       NC8NC6H8C12NH11C16H10Zn2C4O8
_chemical_formula_sum              "N3 C46 H29 Zn2 O8"
_cell_length_a       17.457602349358154
_cell_length_b       10.299770795358612
_cell_length_c       10.299151387937775
_cell_angle_alpha    85.58089315832936
_cell_angle_beta     92.86396087313608
_cell_angle_gamma    91.70596819880058

_space_group_name_H-M_alt    "P 1"
_space_group_IT_number       1

loop_
  _space_group_symop_operation_xyz
  'x, y, z'

loop_
  _atom_site_type_symbol
  _atom_site_label
  _atom_site_symmetry_multiplicity
  _atom_site_fract_x
  _atom_site_fract_y
  _atom_site_fract_z
  _atom_site_occupancy
  N   N1        1.0  0.7228498174981001  0.4522359714161297  0.6264023151890212  1.0000
  C   C1        1.0  0.6617647492775208  0.4063060916746575  0.6157900322637506  1.0000
  C   C2        1.0  0.5857723413081852  0.3491750398148583  0.602597893810862  1.0000
  C   C3        1.0  0.5272423092441078  0.38936953086001114  0.6774923587897974  1.0000
  C   C4        1.0  0.4526882985941029  0.3343570111273477  0.6649144992775509  1.0000
  C   C5        1.0  0.3905672640310682  0.3767965776502269  0.744230587672146  1.0000
  C   C6        1.0  0.3160304626461468  0.395240726319088  0.6884658808814319  1.0000
  C   C7        1.0  0.2575003816358697  0.4352513387064101  0.7634683128561168  1.0000
  C   C8        1.0  0.1815257934432773  0.45430037674491275  0.7054881070327141  1.0000
  N   N2        1.0  0.12045513986316791  0.4696094236905841  0.6588721730714808  1.0000
  C   C9        1.0  0.2730149243948993  0.45706116545538356  0.8947439495935463  1.0000
  C   C10       1.0  0.3467670475289222  0.43900617252958374  0.9508962244257935  1.0000
  C   C11       1.0  0.4052855031239841  0.3991758138438364  0.8763514989748029  1.0000
  C   C12       1.0  0.4379530092695753  0.23847195662763943  0.5760093098266361  1.0000
  C   C13       1.0  0.4964713273934749  0.19855631992980705  0.5015148262384916  1.0000
  C   C14       1.0  0.5702405288084185  0.25368145472653936  0.5146426254977969  1.0000
  H   H1        1.0  0.5395922951442869  0.4645929360359895  0.7441172823522448  1.0000
  H   H2        1.0  0.3036946170640522  0.3802260332825731  0.586442829365426  1.0000
  H   H3        1.0  0.2281527286600134  0.48796957135938035  0.9535773105977008  1.0000
  H   H4        1.0  0.3585895095162243  0.45557836504406213  0.0525459009773247  1.0000
  H   H5        1.0  0.4617630137807794  0.38420405537221036  0.9224589205138365  1.0000
  H   H6        1.0  0.381461330773093  0.1931317298794215  0.5653608663638359  1.0000
  H   H7        1.0  0.48463549439974724  0.12444885587056409  0.43369150232563536  1.0000
  H   H8        1.0  0.6151025503737294  0.22190357248107206  0.45632045240056196  1.0000
  C   C15       1.0  0.9215866178313272  0.07955128237038767  0.6426714589366824  1.0000
  C   C16       1.0  0.8993342712960993  0.0876976386320214  0.5094432497636878  1.0000
  C   C17       1.0  0.8881292060542361  0.9746923637679075  0.4419061174853165  1.0000
  C   C18       1.0  0.8994747043338788  0.8524221319289191  0.5093861648628557  1.0000
  C   C19       1.0  0.9217256624243281  0.8422844234227871  0.6426148112004035  1.0000
  C   C20       1.0  0.9326573865827286  0.9563980181533863  0.7085113007627817  1.0000
  C   C21       1.0  0.8645878508447415  0.9843641557187716  0.30095843231713215  1.0000
  C   C22       1.0  0.8087289378869553  0.07308182861967016  0.25120942891003706  1.0000
  C   C23       1.0  0.7866047108452378  0.0820571308633018  0.11855109319177504  1.0000
  C   C24       1.0  0.8199206741681456  0.002715012258904581  0.033527418170532064  1.0000
  C   C25       1.0  0.8755955888834438  0.9141869976317156  0.08237083274962531  1.0000
  C   C26       1.0  0.8977812782080242  0.9049583423110125  0.21500421454289387  1.0000
  N   N3        1.0  0.7972577676774034  0.012025546476898796  0.8978405728824814  1.0000
  H   H9        1.0  0.9300331615876033  0.40389798337534377  0.6934520508442741  1.0000
  H   H10       1.0  0.8916813193731479  0.1822464349675872  0.45746580630714884  1.0000
  H   H11       1.0  0.8898958186275571  0.7649529322137871  0.4581915503460525  1.0000
  H   H12       1.0  0.9498234807872146  0.9493454117138242  0.8112909144363314  1.0000
  H   H13       1.0  0.9302376663028719  0.5109704969648949  0.6933691272498397  1.0000
  H   H14       1.0  0.7814298139929238  0.13432858936009384  0.31518361799063643  1.0000
  H   H15       1.0  0.7433541772164537  0.15063428558692182  0.0821073811502735  1.0000
  H   H16       1.0  0.9019459813661628  0.8525529303399932  0.017629890654702995  1.0000
  H   H17       1.0  0.9416201304593423  0.836916545994668  0.2500564215981753  1.0000
  H   H18       1.0  0.8217666260714207  0.9532726726980468  0.8337021329441874  1.0000
  H   H19       1.0  0.7558030861920391  0.07774071139116012  0.8605203439270643  1.0000
  C   C27       1.0  0.9217005759523236  0.4607510419602816  0.2612758245389051  1.0000
  C   C28       1.0  0.8476863263904015  0.5114699067089536  0.2503182853796948  1.0000
  C   C29       1.0  0.810113845119644  0.5373573619102012  0.12760288169738443  1.0000
  C   C30       1.0  0.847552932108797  0.5118416714052088  0.014995024071360774  1.0000
  C   C31       1.0  0.921611699077031  0.46108460758766867  0.024010513097989294  1.0000
  C   C32       1.0  0.9582303507167755  0.4358537427689704  0.14754030729124756  1.0000
  C   C33       1.0  0.7318157329476476  0.5910120893017103  0.11705653987513487  1.0000
  C   C34       1.0  0.7123469659369189  0.6899735014485737  0.02015297941550931  1.0000
  C   C35       1.0  0.6386401311397844  0.7404335658865382  0.010354004674966832  1.0000
  C   C36       1.0  0.5834351784181201  0.6926984199365118  0.09707781746505151  1.0000
  C   C37       1.0  0.602208712128658  0.5942649670951274  0.19376246012673626  1.0000
  C   C38       1.0  0.6758935203082355  0.5437163475591889  0.20380920885136833  1.0000
  C   C39       1.0  0.5075645719195242  0.744693659134583  0.0868626306520166  1.0000
  C   C40       1.0  0.44402400954999777  0.7882388826516848  0.07830747072714983  1.0000
  C   C41       1.0  0.3696186717550246  0.8392299534224941  0.06828946595596586  1.0000
  C   C42       1.0  0.3060883777084845  0.882768377677607  0.059735795060885  1.0000
  H   H20       1.0  0.9501533012840171  0.44117911598965653  0.5929696798744502  1.0000
  H   H21       1.0  0.8195008678709048  0.5326326670563768  0.3373184207541773  1.0000
  H   H22       1.0  0.818444974653897  0.5299487576128983  0.9202433448552485  1.0000
  H   H23       1.0  0.015318514509061965  0.39672938450372386  0.1552765890410952  1.0000
  H   H24       1.0  0.061200849172853955  0.3645165465778213  0.8337769704144766  1.0000
  H   H25       1.0  0.7544133682385681  0.7295135191368898  0.9530385003388369  1.0000
  H   H26       1.0  0.624779509452884  0.8168769608763684  0.9353627991192406  1.0000
  H   H27       1.0  0.5598450186827912  0.5563531524959529  0.2611839234395996  1.0000
  H   H28       1.0  0.6888473463168767  0.466471695058015  0.2783334128550705  1.0000
  H   H29       1.0  0.25030353420222373  0.9209986464968922  0.05222497317201191  1.0000
  Zn  Zn1       1.0  0.8375901233086932  0.45724609500844315  0.6357799134822606  1.0000
  Zn  Zn2       1.0  0.005714816622696572  0.46458865685513384  0.6495052080517865  1.0000
  C   C43       1.0  0.9216258515973145  0.45584780625365773  0.8798375530642915  1.0000
  C   C44       1.0  0.9216809245343784  0.4659886644771589  0.40544784569387193  1.0000
  C   C45       1.0  0.9216960385228327  0.6981091812031517  0.637450085262105  1.0000
  C   C46       1.0  0.9216106799471335  0.22372572673905267  0.647835378166703  1.0000
  O   O1        1.0  0.9854767732295582  0.4705272566141483  0.45904197120075274  1.0000
  O   O2        1.0  0.9854327548518127  0.45688106877018186  0.8366602347821983  1.0000
  O   O3        1.0  0.9854885714369961  0.652510155882924  0.640930569283694  1.0000
  O   O4        1.0  0.9854208992878444  0.2748981762435825  0.6547715346407905  1.0000
  O   O5        1.0  0.8578839832708398  0.6469365731157497  0.630513582202656  1.0000
  O   O6        1.0  0.8578281669746781  0.4513090462873741  0.826243178339916  1.0000
  O   O7        1.0  0.857872185577117  0.464955188194349  0.4486233533717776  1.0000
  O   O8        1.0  0.8578163116192281  0.26932609857736134  0.6443530141796823  1.0000
