data_image0
_chemical_formula_structural       NC10NC5H10C12ClH9C12NCOCH13Zn2C4O8
_chemical_formula_sum              "N3 C45 H32 Cl1 O9 Zn2"
_cell_length_a       19.4436361288709
_cell_length_b       10.299768534541528
_cell_length_c       10.299158637457994
_cell_angle_alpha    85.58253282463848
_cell_angle_beta     89.6864852280966
_cell_angle_gamma    89.43641405984484

_space_group_name_H-M_alt    "P 1"
_space_group_IT_number       1

loop_
  _space_group_symop_operation_xyz
  'x, y, z'

loop_
  _atom_site_type_symbol
  _atom_site_label
  _atom_site_symmetry_multiplicity
  _atom_site_fract_x
  _atom_site_fract_y
  _atom_site_fract_z
  _atom_site_occupancy
  N   N1        1.0  0.6481259337551204  0.40877758786378293  0.5621398484398332  1.0000
  C   C1        1.0  0.5892900767094615  0.41868187577393834  0.5765244991284681  1.0000
  C   C2        1.0  0.5159608846012166  0.43103386001030386  0.5945176599700162  1.0000
  C   C3        1.0  0.47378216033108345  0.39902066909998557  0.4998410435976173  1.0000
  C   C4        1.0  0.3978786334433933  0.4094597261117152  0.5051696936026098  1.0000
  C   C5        1.0  0.3581233105999643  0.38473127557683884  0.6122424937450297  1.0000
  C   C6        1.0  0.2820048593163336  0.3886455249682479  0.5992831138499171  1.0000
  C   C7        1.0  0.2414410217466  0.4463225162127493  0.6930578842953361  1.0000
  C   C8        1.0  0.1697794046358506  0.44995833401744956  0.6825140043352673  1.0000
  C   C9        1.0  0.1376867717516801  0.3955212068492371  0.5784818658683106  1.0000
  C   C10       1.0  0.0638959374757018  0.39921823928107525  0.5677827045799397  1.0000
  N   N2        1.0  0.0045731116747838  0.40219045938584275  0.5591812882483371  1.0000
  C   C11       1.0  0.1775255582897288  0.3371372053048729  0.48509030224221505  1.0000
  C   C12       1.0  0.2492036236683484  0.3334471197490365  0.4953823985595516  1.0000
  C   C13       1.0  0.3862347076642284  0.3442944756779931  0.7433370897996612  1.0000
  C   C14       1.0  0.4449001331298493  0.387423984774101  0.7905823234570524  1.0000
  C   C15       1.0  0.48913210340163976  0.4852672785732428  0.7162184841668573  1.0000
  H   H1        1.0  0.49588650567995163  0.36988805877463293  0.40953153492237204  1.0000
  H   H2        1.0  0.3731944026542617  0.43193746974346414  0.4120110709644975  1.0000
  H   H3        1.0  0.2653095511426275  0.4896269890739833  0.7739094408326861  1.0000
  H   H4        1.0  0.1394338939261593  0.49528509172864665  0.7554380775123086  1.0000
  H   H5        1.0  0.1531851411519582  0.2940284458385647  0.4045732428262754  1.0000
  H   H6        1.0  0.278883068270888  0.2858771355702967  0.4231545614389087  1.0000
  H   H7        1.0  0.3552513796969485  0.2800899281647702  0.8075818629841929  1.0000
  H   H8        1.0  0.4600334115430128  0.35337472411048876  0.8885165488725821  1.0000
  H   H9        1.0  0.4590409651008106  0.5759754696568273  0.6909705378300046  1.0000
  H   H10       1.0  0.5324143393032064  0.5108640093028485  0.7793055946034813  1.0000
  C   C16       1.0  0.8262879424726307  0.02411977074200511  0.5606589816725722  1.0000
  C   C17       1.0  0.8308409606150969  0.03355315823974281  0.42415109109830884  1.0000
  C   C18       1.0  0.8332141314922755  0.921192544202044  0.3549882974228207  1.0000
  C   C19       1.0  0.8309723195558943  0.7982630187507933  0.4241654909059749  1.0000
  C   C20       1.0  0.8264176834130834  0.7868381320941741  0.5606733328594282  1.0000
  C   C21       1.0  0.824101507597902  0.9003228718444031  0.6281556291961548  1.0000
  C   C22       1.0  0.8380317596202342  0.9322259326778316  0.21057432145889976  1.0000
  C   C23       1.0  0.7989160870039596  0.02646258177270089  0.13643453825383767  1.0000
  C   C24       1.0  0.8035118557802708  0.03665059690310568  0.000515476215918742  1.0000
  C   C25       1.0  0.8471571643305581  0.9531247226547457  0.9370448739069386  1.0000
  C   C26       1.0  0.8862618217227606  0.8591999881149606  0.009673515018209677  1.0000
  C   C27       1.0  0.8817881912514796  0.8486174698041689  0.14560620669556745  1.0000
  Cl  Cl1       1.0  0.8528466046734225  0.9661545602978944  0.7665111870014525  1.0000
  H   H11       1.0  0.8245177288336685  0.34797958703744425  0.6126722475156652  1.0000
  H   H12       1.0  0.8335015953204563  0.1284977446375759  0.3713959645436278  1.0000
  H   H13       1.0  0.8318380766568252  0.7113945435021546  0.3712117047477652  1.0000
  H   H14       1.0  0.8205883671280161  0.892277271791349  0.7334651887118178  1.0000
  H   H15       1.0  0.8247095379484891  0.45503046528146623  0.6126938845847123  1.0000
  H   H16       1.0  0.7641327835726218  0.09109779489557757  0.1834671090544029  1.0000
  H   H17       1.0  0.7729840171266141  0.10930886150929098  0.9446566156388343  1.0000
  H   H18       1.0  0.920278369064926  0.7945317331515545  0.9609578158014793  1.0000
  H   H19       1.0  0.9131890517651012  0.7762358534076296  0.19996350316515143  1.0000
  C   C28       1.0  0.8264172688262705  0.40533981523971185  0.1792925500551228  1.0000
  C   C29       1.0  0.8280385591216032  0.5420118501120281  0.1679683224836206  1.0000
  C   C30       1.0  0.8288066180719778  0.6114473158786231  0.045069600807145616  1.0000
  C   C31       1.0  0.8279069559352435  0.5423741485582076  0.9326579435071749  1.0000
  C   C32       1.0  0.826288351286021  0.40561815594241946  0.9420398409339419  1.0000
  C   C33       1.0  0.8255564809744356  0.3379418140538708  0.06574494390358487  1.0000
  C   C34       1.0  0.8305225684949987  0.7560295425973609  0.03406348933530645  1.0000
  C   C35       1.0  0.8727486970437591  0.8230824820585128  0.1162817706970325  1.0000
  C   C36       1.0  0.8743691021893867  0.9591418790915329  0.10579353555173632  1.0000
  C   C37       1.0  0.8342316887276889  0.03086832769472858  0.011978560188236287  1.0000
  C   C38       1.0  0.7911865440259043  0.9641909082985072  0.9315501633514662  1.0000
  C   C39       1.0  0.7895943809883214  0.8281588985434039  0.9417771777960589  1.0000
  N   N3        1.0  0.8339928530671118  0.17091742040545732  0.0007480051495263318  1.0000
  C   C40       1.0  0.8929338714373494  0.24881535300710755  0.02349196274480647  1.0000
  O   O1        1.0  0.9522256867403427  0.19830743266731465  0.03151497144241633  1.0000
  C   C41       1.0  0.8848904844442315  0.3927778140237428  0.028164199976934867  1.0000
  H   H20       1.0  0.8258151990218865  0.3527676445555077  0.5111239268284014  1.0000
  H   H21       1.0  0.8277468818400006  0.5948339992072862  0.25492266981412515  1.0000
  H   H22       1.0  0.8294070747223034  0.5953595387577528  0.8376749594184987  1.0000
  H   H23       1.0  0.8243082963515822  0.23252343692011523  0.07376466852035368  1.0000
  H   H24       1.0  0.8236508630533261  0.14747528050613123  0.7524519993040002  1.0000
  H   H25       1.0  0.9049303597128235  0.7702612070651742  0.1882061433371125  1.0000
  H   H26       1.0  0.9061152364601872  0.007894335420190579  0.1725625599144882  1.0000
  H   H27       1.0  0.7590246135487804  0.017886817873573158  0.8601949352547824  1.0000
  H   H28       1.0  0.755594966555794  0.7794013031450895  0.8787110966065996  1.0000
  H   H29       1.0  0.7894164208919296  0.21919574904631745  0.9661722188000703  1.0000
  H   H30       1.0  0.8365317976916422  0.41538595973654235  0.07998381992674664  1.0000
  H   H31       1.0  0.8830492381866504  0.43947874975099355  0.9274616336887385  1.0000
  H   H32       1.0  0.9287769745675684  0.4327340578618264  0.0804555295020879  1.0000
  Zn  Zn1       1.0  0.7509888890266829  0.40687321628947615  0.5612935840435833  1.0000
  Zn  Zn2       1.0  0.9017101443087558  0.40408422730584426  0.5600382337562533  1.0000
  C   C42       1.0  0.8263103029983293  0.4003919375062821  0.7978641604421761  1.0000
  C   C43       1.0  0.8263903764657021  0.4105671142791756  0.3234677711482312  1.0000
  C   C44       1.0  0.8263904883614942  0.642666338856339  0.5554954509417127  1.0000
  C   C45       1.0  0.8263101393948097  0.16829115362280556  0.5658365502870926  1.0000
  O   O2        1.0  0.8835792810692567  0.41125737113315397  0.3713778934053156  1.0000
  O   O3        1.0  0.8835153435979601  0.39758392269975196  0.749000882494687  1.0000
  O   O4        1.0  0.8835793230090879  0.5932235805284858  0.5532864412218987  1.0000
  O   O5        1.0  0.8835152502452126  0.21561772351068909  0.5670922377307732  1.0000
  O   O6        1.0  0.7691837316564601  0.5953397210377873  0.5542395804906217  1.0000
  O   O7        1.0  0.769119752519294  0.39970162346852334  0.7499539525465704  1.0000
  O   O8        1.0  0.7691836902925467  0.41337502607593213  0.3723294020359722  1.0000
  O   O9        1.0  0.769119659447653  0.21773536920035497  0.568043843730319  1.0000
