data_image0
_chemical_formula_structural       NC9NC5H8C12NH11C12NCOCH13Zn2C4O8
_chemical_formula_sum              "N4 C44 H32 O9 Zn2"
_cell_length_a       17.807436237873137
_cell_length_b       10.299770795358612
_cell_length_c       10.299158637457994
_cell_angle_alpha    85.57628442395506
_cell_angle_beta     89.37443015321585
_cell_angle_gamma    88.40764042794568

_space_group_name_H-M_alt    "P 1"
_space_group_IT_number       1

loop_
  _space_group_symop_operation_xyz
  'x, y, z'

loop_
  _atom_site_type_symbol
  _atom_site_label
  _atom_site_symmetry_multiplicity
  _atom_site_fract_x
  _atom_site_fract_y
  _atom_site_fract_z
  _atom_site_occupancy
  N   N1        1.0  0.7079260072138017  0.38721456512916697  0.5569813392509129  1.0000
  C   C1        1.0  0.6473342440837623  0.3520212159041032  0.5459604670543861  1.0000
  C   C2        1.0  0.5719647503519684  0.3082445651562711  0.5322516986705124  1.0000
  C   C3        1.0  0.5538800517470343  0.23679206420848176  0.4272537959828113  1.0000
  C   C4        1.0  0.4807001579552579  0.19417678458547782  0.4138608459017017  1.0000
  C   C5        1.0  0.424556182952616  0.22263646863748665  0.5054333808183695  1.0000
  C   C6        1.0  0.3467848255939044  0.17746234703261243  0.4912822083889137  1.0000
  C   C7        1.0  0.2846182476523547  0.259227050184635  0.5172140502758713  1.0000
  C   C8        1.0  0.2112960102577039  0.2164087397108858  0.5038348000450443  1.0000
  C   C9        1.0  0.1480797551319102  0.30086489746797196  0.5301303047332206  1.0000
  N   N2        1.0  0.0972668733963518  0.36876180568859374  0.5512711645372004  1.0000
  C   C10       1.0  0.1995567646420082  0.09156773977003385  0.4644983813328827  1.0000
  C   C11       1.0  0.2608659718452382  0.009789181420218007  0.43855815088594974  1.0000
  C   C12       1.0  0.334068744407386  0.05221288149328829  0.4517348956862133  1.0000
  C   C13       1.0  0.4433323335878616  0.29458341029554  0.6106504713313845  1.0000
  C   C14       1.0  0.5165650935998882  0.3370082409661779  0.6238877856805376  1.0000
  H   H1        1.0  0.5962842478448901  0.21428097568969973  0.3555420131032452  1.0000
  H   H2        1.0  0.4677933942435704  0.14046491493673985  0.33094404129514166  1.0000
  H   H3        1.0  0.2931277432993022  0.35670134972700573  0.5460826159752907  1.0000
  H   H4        1.0  0.1430876331976493  0.057528217679464255  0.4539064497161893  1.0000
  H   H5        1.0  0.251658500148657  0.9131345348869004  0.4084890809054642  1.0000
  H   H6        1.0  0.3807013830357568  0.986461655876894  0.4326922175021859  1.0000
  H   H7        1.0  0.4016446818814142  0.31655592706325875  0.6836568213266705  1.0000
  H   H8        1.0  0.5300006174642955  0.39194030309155914  0.7057628363108237  1.0000
  C   C15       1.0  0.902531943499349  0.9966227317307647  0.5541668125946582  1.0000
  C   C16       1.0  0.880751393944112  0.00678429826548177  0.4230745162672349  1.0000
  C   C17       1.0  0.8697839316582349  0.8947938079974221  0.3566129099658719  1.0000
  C   C18       1.0  0.8808889128339159  0.7714961431741779  0.4230039458541601  1.0000
  C   C19       1.0  0.9026681027651836  0.7593433494579186  0.5540968126749584  1.0000
  C   C20       1.0  0.9133680196685029  0.8724669141427516  0.6189440131395978  1.0000
  C   C21       1.0  0.8467417032886143  0.9065975451883165  0.21792486436531133  1.0000
  C   C22       1.0  0.7920470379037589  0.0003518707353420414  0.1735394069313081  1.0000
  C   C23       1.0  0.7703919053458477  0.011330795789812997  0.04300468508753896  1.0000
  C   C24       1.0  0.8030215656950008  0.9289935372036195  0.9547812720430517  1.0000
  C   C25       1.0  0.8575361201635117  0.8354455179567064  0.9982788031878544  1.0000
  C   C26       1.0  0.879251439588706  0.8242077040968798  0.1287826690030125  1.0000
  N   N3        1.0  0.7808391609656176  0.9403564627437571  0.8212697475884339  1.0000
  H   H9        1.0  0.9107993877983925  0.3202044831614437  0.6041366562724295  1.0000
  H   H10       1.0  0.8732611351946715  0.10202663534592538  0.3718316081991815  1.0000
  H   H11       1.0  0.8715126856582357  0.6848939473650534  0.372728810411324  1.0000
  H   H12       1.0  0.9301701559863493  0.8638597167977978  0.7200759228041558  1.0000
  H   H13       1.0  0.9109996487897398  0.4272585776004442  0.6040340944881888  1.0000
  H   H14       1.0  0.7653106727880693  0.06405329184151332  0.24013542611446526  1.0000
  H   H15       1.0  0.7280426808679328  0.08380757782950665  0.01071388216638991  1.0000
  H   H16       1.0  0.8833435224251783  0.7714423288882792  0.9310071282394312  1.0000
  H   H17       1.0  0.9221768556770268  0.7522133815011588  0.15962546425372182  1.0000
  H   H18       1.0  0.8048432534036457  0.8794003400155807  0.754777412781642  1.0000
  H   H19       1.0  0.7402485329562335  0.009809519220670193  0.7879299745903823  1.0000
  C   C27       1.0  0.9026704347432628  0.3778417312437887  0.1727577239382847  1.0000
  C   C28       1.0  0.9044403478934603  0.5144609647481515  0.16140604237124556  1.0000
  C   C29       1.0  0.9052787803474522  0.5838714568589607  0.03849380238617317  1.0000
  C   C30       1.0  0.9042965974796943  0.5148276471510651  0.9260966399899067  1.0000
  C   C31       1.0  0.9025296184221577  0.37812436578440733  0.9355059798493697  1.0000
  C   C32       1.0  0.9017307013840018  0.3104718079335582  0.05922412946268518  1.0000
  C   C33       1.0  0.9071520315758892  0.728397798771937  0.02745864159315503  1.0000
  C   C34       1.0  0.95327438137694  0.7940456717278579  0.10934354278363534  1.0000
  C   C35       1.0  0.955043332144978  0.9300522916190366  0.09882792742455138  1.0000
  C   C36       1.0  0.9112014398349995  0.0031154635612500314  0.005315038689734708  1.0000
  C   C37       1.0  0.8641844907661244  0.9378703776124013  0.9252263050956158  1.0000
  C   C38       1.0  0.8624463881432359  0.8018902050989818  0.9354804786872277  1.0000
  N   N4        1.0  0.910939546492076  0.14317370438572974  0.9940710237521015  1.0000
  C   C39       1.0  0.9753191895216855  0.21911025141974827  0.01635135054539072  1.0000
  O   O1        1.0  0.04008293457895884  0.16662816995740926  0.023922051487129004  1.0000
  C   C40       1.0  0.9665324974001837  0.3633416949807069  0.02106996378476733  1.0000
  H   H20       1.0  0.9020131867198579  0.32528915291354044  0.5045994945563184  1.0000
  H   H21       1.0  0.9041213703138514  0.5672932750305948  0.24835686968879478  1.0000
  H   H22       1.0  0.9059347651719197  0.5677635539237631  0.8310962825351726  1.0000
  H   H23       1.0  0.9003680977553447  0.20509407935193824  0.06726501181220379  1.0000
  H   H24       1.0  0.8996506131289851  0.1200670805285231  0.7459667128004104  1.0000
  H   H25       1.0  0.9884262135544402  0.7401526692184903  0.18102519394779648  1.0000
  H   H26       1.0  0.9897187065841593  0.9777483871004109  0.16534649365017606  1.0000
  H   H27       1.0  0.829054205350916  0.9926373653301725  0.8541135505338531  1.0000
  H   H28       1.0  0.8253097965504003  0.7542639785774448  0.8726822551021165  1.0000
  H   H29       1.0  0.862249164632314  0.192936323639473  0.959834162645032  1.0000
  H   H30       1.0  0.9137110137284568  0.38755981695577413  0.07326051914676568  1.0000
  H   H31       1.0  0.9645209981088013  0.41010432220792126  0.9203765115254186  1.0000
  H   H32       1.0  0.01446862699660012  0.4018373698235371  0.07301805354230728  1.0000
  Zn  Zn1       1.0  0.8202813677702491  0.38188603488585615  0.5553410173876274  1.0000
  Zn  Zn2       1.0  0.9849114907817088  0.3740797538142271  0.5529221641288424  1.0000
  C   C41       1.0  0.9025536338496192  0.3728973719179811  0.7913307009589108  1.0000
  C   C42       1.0  0.9026410227271616  0.38306997018901834  0.3169325814616619  1.0000
  C   C43       1.0  0.9026394587292476  0.6151711758856451  0.5489348973748585  1.0000
  C   C44       1.0  0.9025551413794459  0.14079460862297344  0.5593284552537738  1.0000
  O   O2        1.0  0.9651074244801606  0.38185650626802903  0.36440103901396914  1.0000
  O   O3        1.0  0.9650376860746899  0.36818506927893013  0.7420260159903633  1.0000
  O   O4        1.0  0.9651061482910309  0.5638242703887468  0.5462897018563497  1.0000
  O   O5        1.0  0.9650389061063466  0.1862173170760213  0.5601372565965266  1.0000
  O   O6        1.0  0.8401538962654315  0.5697484742893737  0.5481259257385473  1.0000
  O   O7        1.0  0.8400854343369982  0.37411083344324925  0.7438621704831065  1.0000
  O   O8        1.0  0.8401551730726236  0.3877822245959117  0.3662356320881619  1.0000
  O   O9        1.0  0.8400866546761028  0.19214302615140677  0.5619719470407807  1.0000
