data_image0
_chemical_formula_structural       NC10NC3NCH9C12NH11C13F3H9Zn2C4O8
_chemical_formula_sum              "N4 C43 H29 F3 Zn2 O8"
_cell_length_a       19.437513618241372
_cell_length_b       10.299770795358612
_cell_length_c       10.2985328690268
_cell_angle_alpha    85.57387741516429
_cell_angle_beta     90.35299087610198
_cell_angle_gamma    89.53989505547142

_space_group_name_H-M_alt    "P 1"
_space_group_IT_number       1

loop_
  _space_group_symop_operation_xyz
  'x, y, z'

loop_
  _atom_site_type_symbol
  _atom_site_label
  _atom_site_symmetry_multiplicity
  _atom_site_fract_x
  _atom_site_fract_y
  _atom_site_fract_z
  _atom_site_occupancy
  N   N1        1.0  0.6480013766750007  0.41002865161552116  0.5755236691108427  1.0000
  C   C1        1.0  0.5890705644775457  0.4270377366826221  0.5725474742503476  1.0000
  C   C2        1.0  0.5156332475996225  0.44828903724046865  0.5688532365025922  1.0000
  C   C3        1.0  0.47385310898542493  0.3470973570754241  0.5571928011708964  1.0000
  C   C4        1.0  0.3979641342622107  0.35716019172220137  0.5499709297112763  1.0000
  C   C5        1.0  0.3584092961170037  0.4380241720173983  0.6157186532076604  1.0000
  C   C6        1.0  0.2822248617939041  0.42941391145664265  0.6072738857403885  1.0000
  C   C7        1.0  0.2490694949986699  0.3080718695683218  0.6119173037177186  1.0000
  C   C8        1.0  0.1773330840224477  0.3016984092688977  0.6047486834264766  1.0000
  C   C9        1.0  0.1377813703921879  0.4161944010351626  0.5932989032338083  1.0000
  C   C10       1.0  0.0639304143332956  0.4094827233816405  0.5859621778944726  1.0000
  N   N2        1.0  0.0045593438324095  0.4040871247194662  0.5800639091636755  1.0000
  C   C11       1.0  0.1702201618904638  0.5372260580049157  0.5894008172821221  1.0000
  C   C12       1.0  0.24194102564057943  0.5438535215564215  0.5966314643795725  1.0000
  C   C13       1.0  0.38711724390833546  0.5303297166512038  0.705645677700889  1.0000
  N   N3        1.0  0.44411093876329183  0.5935365383901356  0.6852400948354522  1.0000
  C   C14       1.0  0.48793868811011815  0.584248466255374  0.5721239163113674  1.0000
  H   H1        1.0  0.49621985008312497  0.252039461757106  0.5450704267474789  1.0000
  H   H2        1.0  0.37323232688780955  0.28763496479279405  0.49164818271021526  1.0000
  H   H3        1.0  0.2785057692008177  0.2181638360060989  0.622938751957604  1.0000
  H   H4        1.0  0.15272400957035054  0.20747432000079513  0.608635902752634  1.0000
  H   H5        1.0  0.1400987286513118  0.6264797422846393  0.5806916907472124  1.0000
  H   H6        1.0  0.2660686464452002  0.6384904013006552  0.5927287851733367  1.0000
  H   H7        1.0  0.3571260112757041  0.55073508836127  0.7900187916415318  1.0000
  H   H8        1.0  0.5307037460441738  0.6545613464965849  0.5778879390026941  1.0000
  H   H9        1.0  0.45826715969953524  0.6123353080534022  0.4814715317669125  1.0000
  C   C15       1.0  0.8262213143255068  0.025690318731185657  0.5778326513104319  1.0000
  C   C16       1.0  0.8062456691687696  0.03515799000388431  0.44615815095708955  1.0000
  C   C17       1.0  0.7961869558001156  0.9228181136310235  0.3794033492793252  1.0000
  C   C18       1.0  0.8063715936868194  0.7998742571019867  0.4460911965081895  1.0000
  C   C19       1.0  0.826345993822895  0.7884153149321865  0.5777662315960395  1.0000
  C   C20       1.0  0.836159331775707  0.9018797423196534  0.6428994755525506  1.0000
  C   C21       1.0  0.7750541838323824  0.9338877604778458  0.240099374270059  1.0000
  C   C22       1.0  0.7249548765964065  0.02588658260985177  0.1942709206143507  1.0000
  C   C23       1.0  0.7050942118220992  0.03617561701236749  0.06315733402538015  1.0000
  C   C24       1.0  0.7349570337977995  0.9548908953257838  0.9757871226057437  1.0000
  C   C25       1.0  0.7848911988358777  0.863092632471614  0.02072284862058993  1.0000
  C   C26       1.0  0.8048069760618485  0.8525466446890415  0.1518071617550356  1.0000
  N   N4        1.0  0.714612834165675  0.9655471231329507  0.8416826523162864  1.0000
  H   H10       1.0  0.8338037007865641  0.34953544880059084  0.6280235015632769  1.0000
  H   H11       1.0  0.7993747496868683  0.13016198031827053  0.39471461349689085  1.0000
  H   H12       1.0  0.7977737138802794  0.7129730675181789  0.395565841433553  1.0000
  H   H13       1.0  0.8515691142208857  0.8938078353810255  0.7444805142249629  1.0000
  H   H14       1.0  0.8339870775947482  0.45659598301482357  0.6279262055171633  1.0000
  H   H15       1.0  0.7004843686761245  0.08872582734370038  0.26016745614068637  1.0000
  H   H16       1.0  0.6663035601116446  0.10729304532782269  0.02974938031347607  1.0000
  H   H17       1.0  0.8085108111552334  0.7999217998119105  0.9541261539473025  1.0000
  H   H18       1.0  0.8441249853859523  0.78193025704339  0.18378218141442848  1.0000
  H   H19       1.0  0.7365811434577851  0.9053653745263632  0.7758178712462058  1.0000
  H   H20       1.0  0.6774324773082424  0.033697383696419614  0.8072719598234595  1.0000
  C   C27       1.0  0.8262638625928744  0.4069311969253644  0.19640174171218905  1.0000
  C   C28       1.0  0.8952452607438163  0.3648904078664692  0.1994968795960379  1.0000
  C   C29       1.0  0.9301986713225127  0.3437066911082485  0.0838943434299948  1.0000
  C   C30       1.0  0.895285919251556  0.3651453467355261  0.9641966980296606  1.0000
  C   C31       1.0  0.8263034471174886  0.4071744488753468  0.9591971982890102  1.0000
  C   C32       1.0  0.7922329516683757  0.4277938030097421  0.07580272343644778  1.0000
  C   C33       1.0  0.0031284378980285243  0.29927173886811387  0.08810107824378499  1.0000
  C   C34       1.0  0.05064319775957249  0.35308034007129585  0.9971595857423776  1.0000
  C   C35       1.0  0.11927990216054196  0.31136321305974435  0.0011401644806792177  1.0000
  C   C36       1.0  0.14165061285450875  0.21359450292815962  0.09490520963335958  1.0000
  C   C37       1.0  0.09453440115942868  0.16159830278046727  0.18742894194580795  1.0000
  C   C38       1.0  0.025902180692627397  0.2033484099939582  0.18355933833977067  1.0000
  C   C39       1.0  0.2162374965934828  0.17206512265748097  0.10214208786606216  1.0000
  F   F1        1.0  0.2515338753797476  0.25079139758769164  0.18206915409329594  1.0000
  F   F2        1.0  0.24553945599623161  0.18274999378071488  0.9796570034079175  1.0000
  F   F3        1.0  0.22258809989857875  0.04383838304722487  0.15212045986551037  1.0000
  H   H21       1.0  0.6960459424816404  0.4871889906175566  0.397816609354561  1.0000
  H   H22       1.0  0.9221857646902245  0.35028195778353743  0.2919201959493205  1.0000
  H   H23       1.0  0.9217056494039001  0.34732360071995294  0.8749039876354714  1.0000
  H   H24       1.0  0.7390673987718809  0.4601902250079397  0.07268411292647303  1.0000
  H   H25       1.0  0.6958254012255083  0.48585304416690756  0.7424796489829566  1.0000
  H   H26       1.0  0.03497756265583374  0.4291055260743071  0.9242240680098428  1.0000
  H   H27       1.0  0.15495633471207393  0.35599493007705507  0.9311051418084011  1.0000
  H   H28       1.0  0.11075055257959221  0.08845547417622912  0.26281409019975976  1.0000
  H   H29       1.0  0.9904737060514621  0.15966658632742292  0.2546171104364392  1.0000
  Zn  Zn1       1.0  0.7508963092486067  0.4083105684890904  0.5768413941407093  1.0000
  Zn  Zn2       1.0  0.9016644162781927  0.40579454173952145  0.5787568557407632  1.0000
  C   C40       1.0  0.8262935859713317  0.40195481871219196  0.815012946515534  1.0000
  C   C41       1.0  0.8262687862129925  0.4121519026955751  0.34058545161620857  1.0000
  C   C42       1.0  0.8263186208891561  0.644242456799972  0.5726032174710098  1.0000
  C   C43       1.0  0.8262436995970792  0.1698627051916881  0.5829952493867558  1.0000
  O   O1        1.0  0.8834861485818271  0.4129435344845369  0.3897017299821883  1.0000
  O   O2        1.0  0.8835057281218638  0.39925260099915705  0.7673500853942092  1.0000
  O   O3        1.0  0.8835251729095549  0.5949029462024755  0.5716025041849937  1.0000
  O   O4        1.0  0.8834666523436588  0.21729319939890335  0.5854492131549551  1.0000
  O   O5        1.0  0.7690940217333853  0.596811911689717  0.5701490360660328  1.0000
  O   O6        1.0  0.7690745771940275  0.40116312676251353  0.7658965478887407  1.0000
  O   O7        1.0  0.7690549976113104  0.4148540144934152  0.38824663096260403  1.0000
  O   O8        1.0  0.7690355013738638  0.21920367015010456  0.5839942115113352  1.0000
