data_image0
_chemical_formula_structural       NC12NC2H8C12NCOCH13C13F3H9Zn2C4O8
_chemical_formula_sum              "N3 C45 H30 O9 F3 Zn2"
_cell_length_a       17.80743265337812
_cell_length_b       10.299155265289647
_cell_length_c       10.2985328690268
_cell_angle_alpha    85.56203192291568
_cell_angle_beta     91.53993439614001
_cell_angle_gamma    89.41399588169462

_space_group_name_H-M_alt    "P 1"
_space_group_IT_number       1

loop_
  _space_group_symop_operation_xyz
  'x, y, z'

loop_
  _atom_site_type_symbol
  _atom_site_label
  _atom_site_symmetry_multiplicity
  _atom_site_fract_x
  _atom_site_fract_y
  _atom_site_fract_z
  _atom_site_occupancy
  N   N1        1.0  0.7070230308980776  0.4063118195624271  0.6008460968056799  1.0000
  C   C1        1.0  0.6561923250061377  0.43584919024136637  0.5321347245160482  1.0000
  C   C2        1.0  0.5929539131168422  0.472591536585254  0.4466664265325764  1.0000
  C   C3        1.0  0.604660617592624  0.5265726872818985  0.3200235179551971  1.0000
  C   C4        1.0  0.5433300436558808  0.5618121531549158  0.2369517768700855  1.0000
  C   C5        1.0  0.47013836203721404  0.5433337253344199  0.2798629266591446  1.0000
  C   C6        1.0  0.45745494032507844  0.4892339243572492  0.40697404047733143  1.0000
  C   C7        1.0  0.5196428285851662  0.4539977069245298  0.49002926792703927  1.0000
  C   C8        1.0  0.37969548026160493  0.46964227134685155  0.4527459766879489  1.0000
  C   C9        1.0  0.36091192913407216  0.49687493457316356  0.5797905835739428  1.0000
  C   C10       1.0  0.28769029497474363  0.4784380974841911  0.6227422870787103  1.0000
  C   C11       1.0  0.23230935482012774  0.43251459632716993  0.5394874761015211  1.0000
  C   C12       1.0  0.15695133184971502  0.41352537641202325  0.5838403502334772  1.0000
  N   N2        1.0  0.096368817949661  0.39825932069179704  0.6194970098623567  1.0000
  C   C13       1.0  0.2504014866834237  0.4051131959019989  0.41298592023159997  1.0000
  C   C14       1.0  0.3235702453157757  0.4235647306303143  0.36977830958386515  1.0000
  H   H1        1.0  0.661120676595562  0.5413856577905449  0.28558019429794834  1.0000
  H   H2        1.0  0.5525121686946196  0.603878561576149  0.13915473617521945  1.0000
  H   H3        1.0  0.4234879992630143  0.5729487923337266  0.2142596724536281  1.0000
  H   H4        1.0  0.5111593909385462  0.4105458356781748  0.5877022467941881  1.0000
  H   H5        1.0  0.40258435693318695  0.5340800060935553  0.6453572754860557  1.0000
  H   H6        1.0  0.2742485901735093  0.5003195149147774  0.7207511124497155  1.0000
  H   H7        1.0  0.20801192159255952  0.36917565165062927  0.34783185040830267  1.0000
  H   H8        1.0  0.3364839227837693  0.4001477485545524  0.2720732726178918  1.0000
  C   C15       1.0  0.9017834364551989  0.02088632146756564  0.610294439594117  1.0000
  C   C16       1.0  0.8889425704159933  0.03082154557603478  0.4747447165216163  1.0000
  C   C17       1.0  0.8823592143269633  0.9187227086916022  0.40589693360996604  1.0000
  C   C18       1.0  0.8887629216190666  0.7955654220678974  0.47442830448516293  1.0000
  C   C19       1.0  0.9016156316372711  0.7836747375980473  0.6100601911827244  1.0000
  C   C20       1.0  0.9080501053065512  0.8968538044602222  0.6771584122846552  1.0000
  C   C21       1.0  0.8687760559793787  0.9302066262751367  0.2625017385660784  1.0000
  C   C22       1.0  0.9068715692518478  0.023511267622538634  0.18290335133280822  1.0000
  C   C23       1.0  0.8940951039718475  0.03418738552469058  0.04795921426509331  1.0000
  C   C24       1.0  0.843434783097551  0.950880239880922  0.9897779745632924  1.0000
  C   C25       1.0  0.8044215965195297  0.8594108481034372  0.06926423818429961  1.0000
  C   C26       1.0  0.8172254220457729  0.8484781364882618  0.2041723478208044  1.0000
  N   N3        1.0  0.8282404819694872  0.9614044394151998  0.8514794614289709  1.0000
  C   C27       1.0  0.8830902166756509  0.9971843775904674  0.7558823496011318  1.0000
  O   O1        1.0  0.9520122149921707  0.9982995300557853  0.7870442880306596  1.0000
  C   C28       1.0  0.859115463400506  0.02409569678737622  0.6161843245336365  1.0000
  H   H9        1.0  0.9067459017332467  0.3445405126181995  0.662428083513275  1.0000
  H   H10       1.0  0.8829957621795884  0.12597793515468547  0.4226465915504998  1.0000
  H   H11       1.0  0.8847186495833792  0.7088380998392523  0.42160244866570196  1.0000
  H   H12       1.0  0.9179570626903156  0.8884756409730437  0.7817104220183542  1.0000
  H   H13       1.0  0.9263242979943165  0.5539390421920509  0.865949004184831  1.0000
  H   H14       1.0  0.9469902714409208  0.0877389485210125  0.22492027990224628  1.0000
  H   H15       1.0  0.9229127273309352  0.10903355790741132  0.989755074783162  1.0000
  H   H16       1.0  0.7642307477684901  0.7958885138507115  0.02637675711554177  1.0000
  H   H17       1.0  0.7859938164121854  0.7772984265167587  0.26309385562445753  1.0000
  H   H18       1.0  0.7753246119393754  0.9336232540223518  0.8178690147220795  1.0000
  H   H19       1.0  0.8048847941033023  0.07866196257152969  0.6091325563786079  1.0000
  H   H20       1.0  0.852161041355066  0.930619682660411  0.5706239608983772  1.0000
  H   H21       1.0  0.9018803866556094  0.08328999138105742  0.5628337413420041  1.0000
  C   C29       1.0  0.901677955650206  0.4021590039327536  0.22877884323864395  1.0000
  C   C30       1.0  0.9770189363972895  0.35970639264289184  0.2346131479982312  1.0000
  C   C31       1.0  0.015194749606887603  0.33831401233834235  0.1203985420908622  1.0000
  C   C32       1.0  0.9770632318432628  0.35996111229843897  0.9993145175610345  1.0000
  C   C33       1.0  0.9017210830182486  0.4024020420432426  0.9915758110940587  1.0000
  C   C34       1.0  0.8645095937532817  0.4232247864698153  0.10682847141304874  1.0000
  C   C35       1.0  0.09484810474379768  0.2934436669434348  0.12750122589896495  1.0000
  C   C36       1.0  0.14671039334225133  0.34697556207555946  0.038427735524221296  1.0000
  C   C37       1.0  0.22167485681575472  0.3048486802220318  0.045133768037946886  1.0000
  C   C38       1.0  0.2461415156022151  0.20693934152096438  0.13980618754483443  1.0000
  C   C39       1.0  0.1947136992822287  0.15521764090954693  0.23047727796133377  1.0000
  C   C40       1.0  0.11975411889578336  0.1973774791985865  0.22388239054061487  1.0000
  C   C41       1.0  0.327603201536415  0.16496500425681937  0.15000392980532995  1.0000
  F   F1        1.0  0.3661137002627233  0.2434889864713834  0.23130986309718593  1.0000
  F   F2        1.0  0.35959521258018645  0.1754773412841868  0.02867592384929596  1.0000
  F   F3        1.0  0.33458884573914194  0.036689894912181886  0.20026264951883355  1.0000
  H   H22       1.0  0.7594545343035509  0.48319428017471244  0.4250227136157543  1.0000
  H   H23       1.0  0.006442437078007179  0.34493725869965264  0.328105828620173  1.0000
  H   H24       1.0  0.005919354311525016  0.3419814945944377  0.9110712920244746  1.0000
  H   H25       1.0  0.8064425661694878  0.4559386088972628  0.10159872310060325  1.0000
  H   H26       1.0  0.7592142467513808  0.4818595267330714  0.769677328931063  1.0000
  H   H27       1.0  0.1295740064298485  0.42309986235431385  0.9648550940128895  1.0000
  H   H28       1.0  0.26061394337613053  0.34927298826722275  0.9765003755744477  1.0000
  H   H29       1.0  0.21245007364283475  0.08197268199105956  0.3065206813120518  1.0000
  H   H30       1.0  0.08108541135762959  0.1539016767606589  0.29354812909854155  1.0000
  Zn  Zn1       1.0  0.8193798192342499  0.4039845771620596  0.6062358360095308  1.0000
  Zn  Zn2       1.0  0.984012030049565  0.40057597216728813  0.6141178677839996  1.0000
  C   C42       1.0  0.9017123953952677  0.39718203136096775  0.8473923516194217  1.0000
  C   C43       1.0  0.9016812513138164  0.40738011953676834  0.37296156521876234  1.0000
  C   C44       1.0  0.901643169912814  0.6394898936890472  0.6049287227684115  1.0000
  C   C45       1.0  0.9017504209660475  0.165070697967451  0.615425261103353  1.0000
  O   O2        1.0  0.9641594246317531  0.4078331596064422  0.4243417955615285  1.0000
  O   O3        1.0  0.9641862609505396  0.39414095905064084  0.8019940274415334  1.0000
  O   O4        1.0  0.9641295183536095  0.5898076401496191  0.6062028909359913  1.0000
  O   O5        1.0  0.9642161110433111  0.21216648893052414  0.6201328319923973  1.0000
  O   O6        1.0  0.8391756820596092  0.5923940615634247  0.6002208691045501  1.0000
  O   O7        1.0  0.8392324243058675  0.39672894087028543  0.7960119358799291  1.0000
  O   O8        1.0  0.8392055879587117  0.41042109566801344  0.4183581424944849  1.0000
  O   O9        1.0  0.8392622743747473  0.21475441573363674  0.6141492763034446  1.0000
