data_image0
_chemical_formula_structural       NC9NC5H8C12ClH9C12NCOCH13Zn2C4O8
_chemical_formula_sum              "N3 C44 H30 Cl1 O9 Zn2"
_cell_length_a       17.807436237873137
_cell_length_b       10.299768534541528
_cell_length_c       10.299158637457994
_cell_angle_alpha    85.58253282463848
_cell_angle_beta     89.37443015321585
_cell_angle_gamma    88.408414792471

_space_group_name_H-M_alt    "P 1"
_space_group_IT_number       1

loop_
  _space_group_symop_operation_xyz
  'x, y, z'

loop_
  _atom_site_type_symbol
  _atom_site_label
  _atom_site_symmetry_multiplicity
  _atom_site_fract_x
  _atom_site_fract_y
  _atom_site_fract_z
  _atom_site_occupancy
  N   N1        1.0  0.7079360853537892  0.3872027021797164  0.5571329280585489  1.0000
  C   C1        1.0  0.6473440665434036  0.35200965391524885  0.5461082100850381  1.0000
  C   C2        1.0  0.571974254773416  0.30823337752925517  0.5323946579781158  1.0000
  C   C3        1.0  0.5538890370647146  0.23678148761701068  0.42738894727016086  1.0000
  C   C4        1.0  0.4807088336721277  0.19416657242422541  0.41399134037561547  1.0000
  C   C5        1.0  0.4245650654296276  0.22262601309946906  0.505566985243461  1.0000
  C   C6        1.0  0.34679337988007  0.17745227780709083  0.4914108763813856  1.0000
  C   C7        1.0  0.2846273959606314  0.2592162817374033  0.5173516531614513  1.0000
  C   C8        1.0  0.2113048474901472  0.21639833743011905  0.5039677239308555  1.0000
  C   C9        1.0  0.1480892059399329  0.3008537729491638  0.5302724576226578  1.0000
  N   N2        1.0  0.0972768174766937  0.3687501005403646  0.5514207369070976  1.0000
  C   C10       1.0  0.1995646949022316  0.09155840508364554  0.46461766313418806  1.0000
  C   C11       1.0  0.2608733079826924  0.0097805460740239  0.43866849628011084  1.0000
  C   C12       1.0  0.3340763887538216  0.052203883355193215  0.45184987695882595  1.0000
  C   C13       1.0  0.4433417387607616  0.294572339493703  0.6107919378070725  1.0000
  C   C14       1.0  0.5165748069899834  0.3369968073627714  0.6240338881582239  1.0000
  H   H1        1.0  0.5962930696190876  0.2142705916047889  0.35567470447620697  1.0000
  H   H2        1.0  0.4678016797426939  0.14045516209966902  0.33106866636825716  1.0000
  H   H3        1.0  0.293137599760204  0.3566897477153659  0.5462308704307246  1.0000
  H   H4        1.0  0.1430953161601025  0.05751917408656637  0.45402201182574964  1.0000
  H   H5        1.0  0.2516651340882806  0.9131267260957434  0.40858886429790675  1.0000
  H   H6        1.0  0.3807085496982977  0.9864532200191309  0.4328000137652528  1.0000
  H   H7        1.0  0.4016542466850629  0.31654466836052864  0.6838006888639545  1.0000
  H   H8        1.0  0.5300107299368584  0.391928399729333  0.7059149415266641  1.0000
  C   C15       1.0  0.9025391839822978  0.9966142089792125  0.5542757192161454  1.0000
  C   C16       1.0  0.9075123622991219  0.005896035120082077  0.41773265554025674  1.0000
  C   C17       1.0  0.9101045333775595  0.8934564227153726  0.34855152857950045  1.0000
  C   C18       1.0  0.9076558432639792  0.7706015229406048  0.41774604057020204  1.0000
  C   C19       1.0  0.9026808976350165  0.7593282515010226  0.5542890681247017  1.0000
  C   C20       1.0  0.9001509812187877  0.872890092360518  0.6217892574468677  1.0000
  C   C21       1.0  0.9153667403345273  0.9043294414686794  0.20410033534157956  1.0000
  C   C22       1.0  0.8726414076395259  0.9998681772741694  0.13026272961198937  1.0000
  C   C23       1.0  0.8776612816906116  0.009903207960016314  0.9943081642140661  1.0000
  C   C24       1.0  0.9253342527444481  0.9249244639936333  0.9305003919608725  1.0000
  C   C25       1.0  0.9680475537119674  0.8296980094191888  0.002826940691785129  1.0000
  C   C26       1.0  0.9631610890941902  0.8192644097999411  0.13879419218293587  1.0000
  Cl  Cl1       1.0  0.931548724214283  0.9377649109356686  0.7599227528335621  1.0000
  H   H9        1.0  0.9006056120504572  0.3205329523363656  0.606302660362581  1.0000
  H   H10       1.0  0.9104185248514449  0.1007520540241218  0.36495697497679513  1.0000
  H   H11       1.0  0.9086014938867667  0.6837042282766183  0.36478556624130176  1.0000
  H   H12       1.0  0.8963136422356998  0.8649614381046962  0.7271259567724118  1.0000
  H   H13       1.0  0.9008151216331004  0.42757744561797534  0.6063228156625518  1.0000
  H   H14       1.0  0.8346482424467904  0.06566126073699285  0.1775640093498283  1.0000
  H   H15       1.0  0.8443162827247973  0.08357768653764097  0.9386851381401105  1.0000
  H   H16       1.0  0.005203205273601963  0.7638974079748733  0.9538484559031182  1.0000
  H   H17       1.0  0.9974596738460122  0.7458375181865354  0.19290890985678333  1.0000
  C   C27       1.0  0.9026804447894349  0.37782994844737083  0.17290828852317386  1.0000
  C   C28       1.0  0.9044513504809417  0.5144480136342275  0.16157153611506048  1.0000
  C   C29       1.0  0.9052902872034684  0.5838579121720022  0.038666881008348364  1.0000
  C   C30       1.0  0.9043076027311302  0.5148146929014079  0.9262621738031882  1.0000
  C   C31       1.0  0.9025396305216755  0.3781125805710026  0.9356565753193387  1.0000
  C   C32       1.0  0.9017402219864102  0.31046060125998043  0.05936733215374579  1.0000
  C   C33       1.0  0.907164588418506  0.7283830181487858  0.027647513428862736  1.0000
  C   C34       1.0  0.953287415152592  0.794030329708209  0.10953958833495725  1.0000
  C   C35       1.0  0.9550573540112895  0.9300357865207274  0.09903883519103251  1.0000
  C   C36       1.0  0.9112159925066338  0.003098333653530627  0.005533930483629712  1.0000
  C   C37       1.0  0.8641985694309784  0.9378538056566925  0.9254380671887192  1.0000
  C   C38       1.0  0.8624594789095712  0.8018747959957648  0.9356773814552266  1.0000
  N   N3        1.0  0.9109551166894724  0.14315537675137735  0.9943052205047684  1.0000
  C   C39       1.0  0.9753353113995287  0.21909127440393572  0.016593845315473255  1.0000
  O   O1        1.0  0.04009867517348975  0.16660964174908166  0.024158811242346312  1.0000
  C   C40       1.0  0.9665496671221856  0.3633214845505641  0.02132821954316544  1.0000
  H   H18       1.0  0.9020228149705573  0.32527781952747037  0.5047443164227496  1.0000
  H   H19       1.0  0.9041327567290637  0.5672798721141585  0.24852813671896423  1.0000
  H   H20       1.0  0.9059461550037169  0.5677501469856745  0.8312676009553859  1.0000
  H   H21       1.0  0.9003768527865668  0.20508377382999066  0.06739669928086944  1.0000
  H   H22       1.0  0.8996587504374568  0.12005750212624022  0.7460891088864074  1.0000
  H   H23       1.0  0.9884388557964124  0.7401377880720039  0.1812153503049041  1.0000
  H   H24       1.0  0.9897330749635044  0.9777314741226122  0.16556261343967438  1.0000
  H   H25       1.0  0.8290686818989691  0.9926203250273007  0.8543312973264943  1.0000
  H   H26       1.0  0.8253225413113013  0.7542489767562239  0.8728739534820757  1.0000
  H   H27       1.0  0.8622650963560781  0.1929175704534769  0.9600737972414954  1.0000
  H   H28       1.0  0.9137283593955717  0.3875393994211471  0.07352142135678386  1.0000
  H   H29       1.0  0.9645385075621721  0.4100837118809655  0.9206398773014612  1.0000
  H   H30       1.0  0.014486076390405778  0.4018168301925211  0.07328051594154905  1.0000
  Zn  Zn1       1.0  0.8202914071983637  0.3818742175040388  0.5554920239165257  1.0000
  Zn  Zn2       1.0  0.9849214734970442  0.3740680031888586  0.5530723176211094  1.0000
  C   C41       1.0  0.9025636079749279  0.3728856314039082  0.791480725245598  1.0000
  C   C42       1.0  0.9026510707565886  0.3830581426826214  0.31708371736588936  1.0000
  C   C43       1.0  0.9026511929783129  0.6151573635349852  0.5491113962949501  1.0000
  C   C44       1.0  0.9025634292738001  0.14078485296648324  0.5594531163543892  1.0000
  O   O2        1.0  0.9651174636937494  0.3818446891387297  0.3645520423161075  1.0000
  O   O3        1.0  0.965047625965031  0.3681733690627387  0.7421755253370004  1.0000
  O   O4        1.0  0.965117509503859  0.5638108971379638  0.5464605898086965  1.0000
  O   O5        1.0  0.9650475239975348  0.1862071729812118  0.560266881294258  1.0000
  O   O6        1.0  0.8401653005177128  0.5697350503769747  0.5482974610622731  1.0000
  O   O7        1.0  0.8400954172781278  0.37409908255209934  0.744012327371621  1.0000
  O   O8        1.0  0.8401652553366677  0.38777035679204563  0.36638728292716904  1.0000
  O   O9        1.0  0.8400953156176791  0.1921328313821098  0.562102219274369  1.0000
