data_image0
_chemical_formula_structural       NC10NC5H10C13OH12C12ClH9Zn2C4O8
_chemical_formula_sum              "N2 C44 H31 O9 Cl1 Zn2"
_cell_length_a       19.4436361288709
_cell_length_b       10.299150109392551
_cell_length_c       10.299771906710086
_cell_angle_alpha    85.52403423523229
_cell_angle_beta     89.71369758328774
_cell_angle_gamma    89.39953782186457

_space_group_name_H-M_alt    "P 1"
_space_group_IT_number       1

loop_
  _space_group_symop_operation_xyz
  'x, y, z'

loop_
  _atom_site_type_symbol
  _atom_site_label
  _atom_site_symmetry_multiplicity
  _atom_site_fract_x
  _atom_site_fract_y
  _atom_site_fract_z
  _atom_site_occupancy
  N   N1        1.0  0.6472800967720482  0.4098409781027166  0.561620703215397  1.0000
  C   C1        1.0  0.5884445396410969  0.4197369363698418  0.5760014123765229  1.0000
  C   C2        1.0  0.5151157352260968  0.4320784978546419  0.5939896569632039  1.0000
  C   C3        1.0  0.47292375387062213  0.400123322405173  0.499326354471723  1.0000
  C   C4        1.0  0.3970180354842527  0.4105599451044315  0.5046509672411723  1.0000
  C   C5        1.0  0.35729842963197084  0.3857600209439356  0.6117319053441594  1.0000
  C   C6        1.0  0.281175342061726  0.38968300966001856  0.598771189785738  1.0000
  C   C7        1.0  0.24061580300544522  0.44730503640218333  0.692522887814321  1.0000
  C   C8        1.0  0.16895026032570892  0.4509480080106705  0.6819777494105546  1.0000
  C   C9        1.0  0.1368496110963673  0.396572776168147  0.5779675722295194  1.0000
  C   C10       1.0  0.0630547908304966  0.4002770684967669  0.5672671310447026  1.0000
  N   N2        1.0  0.0037287605405792  0.40325512508214256  0.5586646857417461  1.0000
  C   C11       1.0  0.1766844373123029  0.33824342382270967  0.48459934558932893  1.0000
  C   C12       1.0  0.24836638250521864  0.3345463417194978  0.4948927240069301  1.0000
  C   C13       1.0  0.3854570125168207  0.34523473480735345  0.7428403328523292  1.0000
  C   C14       1.0  0.4441198179499075  0.38833790560167003  0.7900685859692151  1.0000
  C   C15       1.0  0.48829954566129735  0.4862385998019616  0.7156683869802907  1.0000
  H   H1        1.0  0.495014976146844  0.37104618655105503  0.40902901113163503  1.0000
  H   H2        1.0  0.3723024016991187  0.4330999669429607  0.41148489768369845  1.0000
  H   H3        1.0  0.2644902234076879  0.49056150146426925  0.7733569969494116  1.0000
  H   H4        1.0  0.1386079310896034  0.49623206812220433  0.754883699793145  1.0000
  H   H5        1.0  0.1523381479098292  0.2951824751315273  0.40409965509072276  1.0000
  H   H6        1.0  0.2780435861427965  0.28701839004557694  0.42268385530327923  1.0000
  H   H7        1.0  0.3545119055129856  0.2809825530020129  0.8071087812065736  1.0000
  H   H8        1.0  0.4592896528866294  0.35422217176980486  0.8880146062819836  1.0000
  H   H9        1.0  0.4581711174542037  0.5769718101185786  0.6903862120371733  1.0000
  H   H10       1.0  0.5315891647639931  0.5117970826410856  0.7787450022880773  1.0000
  C   C16       1.0  0.8255725547116781  0.025147110483433766  0.5602862793524515  1.0000
  C   C17       1.0  0.8243173881253859  0.013326351838775174  0.6971070481446078  1.0000
  C   C18       1.0  0.8236211239935168  0.8901995591095061  0.7662148848376573  1.0000
  C   C19       1.0  0.8241847494925678  0.7780735633883747  0.6967447540897114  1.0000
  C   C20       1.0  0.8254428829496163  0.7879388359143635  0.5600103594317656  1.0000
  C   C21       1.0  0.8261313247843513  0.9119358931805164  0.49258017158981304  1.0000
  C   C22       1.0  0.8222872954800812  0.878676424290005  0.9108656725392859  1.0000
  C   C23       1.0  0.7800006871093103  0.7865577095894325  0.9792375759001002  1.0000
  C   C24       1.0  0.7787227690457131  0.7757962815567532  0.11535401152927571  1.0000
  C   C25       1.0  0.8201594731617523  0.8559863068060072  0.18555548548042466  1.0000
  C   C26       1.0  0.861788112080007  0.949070626134883  0.11783160842306772  1.0000
  C   C27       1.0  0.8630819956328385  0.9600075563002421  0.9817147516821214  1.0000
  C   C28       1.0  0.8173400666770884  0.8468034796307864  0.33166474319843353  1.0000
  O   O1        1.0  0.7659369003274266  0.9309169303659983  0.3723315695767291  1.0000
  H   H11       1.0  0.8274948970636232  0.2547604383247426  0.3020343722714862  1.0000
  H   H12       1.0  0.8229248687282635  0.10010872070573718  0.7501270304912142  1.0000
  H   H13       1.0  0.8245817018480688  0.6829269458769114  0.7495748344475353  1.0000
  H   H14       1.0  0.8270998145618362  0.9202615175986649  0.38711285771245896  1.0000
  H   H15       1.0  0.8258805120590795  0.4642587530489705  0.5074178996083483  1.0000
  H   H16       1.0  0.7471037100380175  0.7241735094790333  0.9274018322063373  1.0000
  H   H17       1.0  0.745269481680932  0.7050686801279976  0.16600685998935427  1.0000
  H   H18       1.0  0.8934182491125259  0.013030964846086457  0.1704240615590078  1.0000
  H   H19       1.0  0.8965583968327485  0.031179906330843776  0.9318683526292459  1.0000
  H   H20       1.0  0.8679353412495451  0.8736850335966626  0.3714150621683854  1.0000
  H   H21       1.0  0.8061660028679256  0.7449765719512929  0.3695698878839534  1.0000
  H   H22       1.0  0.7661999391789613  0.9212039938841005  0.46895580828735983  1.0000
  C   C29       1.0  0.8254749643736566  0.4066499280409934  0.17877927326946375  1.0000
  C   C30       1.0  0.8878480240320322  0.47438613799664164  0.17190931449243396  1.0000
  C   C31       1.0  0.9194865188489906  0.5085998376200052  0.05129767460945667  1.0000
  C   C32       1.0  0.8879144078073078  0.47416973152478725  0.9366390658540671  1.0000
  C   C33       1.0  0.8255404633959716  0.40643609801741754  0.9415173750778179  1.0000
  C   C34       1.0  0.7946703496846477  0.37305466836033463  0.06305246317421798  1.0000
  C   C35       1.0  0.9854724720552556  0.5802576951855152  0.04508357524869955  1.0000
  C   C36       1.0  0.9963252877753994  0.6830708081023038  0.12475826584862149  1.0000
  C   C37       1.0  0.05846382126511851  0.7504156998676432  0.11872181956021399  1.0000
  C   C38       1.0  0.11045458647129847  0.7159815306129529  0.03331475826670416  1.0000
  C   C39       1.0  0.1002582352966348  0.6140158264514615  0.9537631067349386  1.0000
  C   C40       1.0  0.03818138459640563  0.5464694566464987  0.9594234830224813  1.0000
  Cl  Cl1       1.0  0.18837551060400792  0.8005991848467717  0.025977715069405605  1.0000
  H   H23       1.0  0.8016895497527792  0.38089668583311576  0.5088461396152639  1.0000
  H   H24       1.0  0.9124516269003592  0.4991331480721046  0.2606769336591388  1.0000
  H   H25       1.0  0.9116115166030467  0.5018753113805416  0.8433227628117419  1.0000
  H   H26       1.0  0.7465519870870619  0.3208004281089254  0.06758412070552922  1.0000
  H   H27       1.0  0.8017862369013627  0.38058030179635427  0.615926267284074  1.0000
  H   H28       1.0  0.9564478238043223  0.7124630928814941  0.1904524939093304  1.0000
  H   H29       1.0  0.06605541195342823  0.8295559368805632  0.1802636897021732  1.0000
  H   H30       1.0  0.1404492092598577  0.5867650734585879  0.8877219238644938  1.0000
  H   H31       1.0  0.03173147720960201  0.46676780303525045  0.8980918763534245  1.0000
  Zn  Zn1       1.0  0.750143483923018  0.4079369694165189  0.5607751738234843  1.0000
  Zn  Zn2       1.0  0.9008653676255585  0.405148522201332  0.5595209001545365  1.0000
  C   C41       1.0  0.8255274343279245  0.40130240691305286  0.7973453997970741  1.0000
  C   C42       1.0  0.825483062831299  0.41178469297622233  0.32295078735798266  1.0000
  C   C43       1.0  0.8254634084135257  0.643756518088441  0.5548873518969564  1.0000
  C   C44       1.0  0.8255470375860693  0.1693290222995696  0.5654089054892402  1.0000
  O   O2        1.0  0.88268395108232  0.4124440995928125  0.3708600762382446  1.0000
  O   O3        1.0  0.8827209684745941  0.3985256536806181  0.7484837727322933  1.0000
  O   O4        1.0  0.882668495796295  0.5943104285919047  0.5526971895501673  1.0000
  O   O5        1.0  0.8827363723195075  0.21665933495133727  0.5666465624703096  1.0000
  O   O6        1.0  0.7682724277950865  0.5964261576194898  0.5536495119289018  1.0000
  O   O7        1.0  0.7683249001990313  0.40064294316244387  0.7494360253010783  1.0000
  O   O8        1.0  0.7682878827260938  0.41456134425182967  0.37181076742184427  1.0000
  O   O9        1.0  0.7683403039704103  0.21877657029351916  0.5675973510251611  1.0000
