data_image0
_chemical_formula_structural       NC11NC3H8C12NCOCH13C12SCH12Zn2C4O8
_chemical_formula_sum              "N3 C45 H33 O9 S1 Zn2"
_cell_length_a       17.807433833752565
_cell_length_b       10.299155265289647
_cell_length_c       10.299780138516091
_cell_angle_alpha    85.56043235920357
_cell_angle_beta     88.51639907153644
_cell_angle_gamma    90.66237101144992

_space_group_name_H-M_alt    "P 1"
_space_group_IT_number       1

loop_
  _space_group_symop_operation_xyz
  'x, y, z'

loop_
  _atom_site_type_symbol
  _atom_site_label
  _atom_site_symmetry_multiplicity
  _atom_site_fract_x
  _atom_site_fract_y
  _atom_site_fract_z
  _atom_site_occupancy
  N   N1        1.0  0.7072107924883516  0.43815133267008477  0.5343314652981239  1.0000
  C   C1        1.0  0.6563937702413198  0.4034414273389084  0.6009001433289876  1.0000
  C   C2        1.0  0.5931722689732075  0.3602651653274147  0.683703084132101  1.0000
  C   C3        1.0  0.6049038072519068  0.29674599416637126  0.8064330416304211  1.0000
  C   C4        1.0  0.5435895076871489  0.25524896268019304  0.8869517031647873  1.0000
  C   C5        1.0  0.4703893412068347  0.2769579971334104  0.8453812580403481  1.0000
  C   C6        1.0  0.4576810114585097  0.34063159771730156  0.7221910830496274  1.0000
  C   C7        1.0  0.3799125499742204  0.3636700407429647  0.6778397558718046  1.0000
  C   C8        1.0  0.3611427730612891  0.34675940522448045  0.5482701095587137  1.0000
  C   C9        1.0  0.2879126760029009  0.36842969642762435  0.5066556055477431  1.0000
  C   C10       1.0  0.2325092759599041  0.40732893591569086  0.5937904256496391  1.0000
  C   C11       1.0  0.15714241884277294  0.4296573444479108  0.5508145121505501  1.0000
  N   N2        1.0  0.09655283928395011  0.44760772607142285  0.5162650054849574  1.0000
  C   C12       1.0  0.2505874844866046  0.4244500096274033  0.7228289055834105  1.0000
  C   C13       1.0  0.323764807602491  0.4027448595984262  0.7646988363703564  1.0000
  C   C14       1.0  0.5198526226327662  0.3821240686915581  0.6416888378124472  1.0000
  H   H1        1.0  0.6613708246692895  0.2793399618519814  0.8398017525508095  1.0000
  H   H2        1.0  0.5527910890730034  0.20582066413828604  0.9816968487409858  1.0000
  H   H3        1.0  0.4237527281665125  0.24241793184182936  0.9088267531244825  1.0000
  H   H4        1.0  0.4028334306722455  0.3150957240940324  0.4795654658671731  1.0000
  H   H5        1.0  0.2744820365647752  0.3545192760623319  0.4066295901543189  1.0000
  H   H6        1.0  0.2081803522536133  0.45489043593554124  0.7910191384312111  1.0000
  H   H7        1.0  0.3366666892427049  0.4182007376352692  0.8645416848425018  1.0000
  H   H8        1.0  0.5113492010832079  0.4329148762952948  0.5471776259007721  1.0000
  C   C15       1.0  0.9019693048275594  0.06148419940851291  0.5254128518001122  1.0000
  C   C16       1.0  0.8891468839764007  0.07084618038892754  0.3910892886482251  1.0000
  C   C17       1.0  0.8825728966732679  0.9584534285290567  0.3228700701753766  1.0000
  C   C18       1.0  0.888967278704883  0.8355819876847771  0.3907898531182805  1.0000
  C   C19       1.0  0.9018015323417441  0.8242650764203711  0.5251944537546462  1.0000
  C   C20       1.0  0.9082268752472754  0.9377314173872779  0.5916783470751361  1.0000
  C   C21       1.0  0.8690092510984542  0.969330965806795  0.18077191681113658  1.0000
  C   C22       1.0  0.9071154528641002  0.06435130156519175  0.09759009073762259  1.0000
  C   C23       1.0  0.8943573503438341  0.07445705364021027  0.9638659723954683  1.0000
  C   C24       1.0  0.8437050880757868  0.988873454784507  0.9104685503216157  1.0000
  C   C25       1.0  0.804681231104455  0.8956471029868167  0.9936248019376208  1.0000
  C   C26       1.0  0.8174666986770313  0.8852859887530824  0.1273103168371581  1.0000
  N   N3        1.0  0.8285296127415984  0.9987186595469959  0.7736184354666125  1.0000
  C   C27       1.0  0.883392155745844  0.03696825310347873  0.6728597648960282  1.0000
  O   O1        1.0  0.9523097069115832  0.04118195610593878  0.6975188540683899  1.0000
  C   C28       1.0  0.8594364458057155  0.06280575144982814  0.535438291737155  1.0000
  H   H9        1.0  0.9069246758457792  0.3853599332158715  0.5770726637068762  1.0000
  H   H10       1.0  0.8832071682616985  0.1657367588634  0.33955781515845485  1.0000
  H   H11       1.0  0.8849301920402468  0.7486744368874129  0.33835132172007176  1.0000
  H   H12       1.0  0.9181196055081521  0.9297955220500116  0.6952843555842034  1.0000
  H   H13       1.0  0.926475376672569  0.5956325816797242  0.7787244201407106  1.0000
  H   H14       1.0  0.9472283242722566  0.13038186805163887  0.13581909616840515  1.0000
  H   H15       1.0  0.9231827863581658  0.15060101265332992  0.9029508887496847  1.0000
  H   H16       1.0  0.7644963315640823  0.8303186657724966  0.9545321454748161  1.0000
  H   H17       1.0  0.7862271905485967  0.8126999094627981  0.18917032635953457  1.0000
  H   H18       1.0  0.7756184721623847  0.9685588189596197  0.7450017370610018  1.0000
  H   H19       1.0  0.8052069039408214  0.11493340492709359  0.5335012660117533  1.0000
  H   H20       1.0  0.852488231741961  0.9690184083673716  0.4905388611336057  1.0000
  H   H21       1.0  0.9022084789932254  0.1239249116641239  0.4780609883501361  1.0000
  C   C29       1.0  0.9019156265609855  0.44276404210873954  0.14395017299790003  1.0000
  C   C30       1.0  0.8304974205386083  0.38301355540637405  0.15077578756095433  1.0000
  C   C31       1.0  0.7942795015101762  0.35285106066509875  0.0370888105097551  1.0000
  C   C32       1.0  0.8304358659846406  0.3832375161437773  0.9154746805155245  1.0000
  C   C33       1.0  0.901855192774438  0.44298520637415617  0.9066571764860294  1.0000
  C   C34       1.0  0.9371951114118887  0.4724146780883849  0.021436577458623374  1.0000
  C   C35       1.0  0.7187239952102061  0.2896550577226169  0.04537259106728575  1.0000
  C   C36       1.0  0.6630759527826471  0.32996755780498366  0.9569859804311012  1.0000
  C   C37       1.0  0.5919795847470629  0.2704577789460638  0.9650184274305587  1.0000
  C   C38       1.0  0.5754942086442907  0.1702401302370835  0.06137571780441409  1.0000
  C   C39       1.0  0.6304738162270692  0.12911240267201496  0.14938793204270695  1.0000
  C   C40       1.0  0.7016167001191308  0.18844986853108292  0.1417157859290643  1.0000
  S   S1        1.0  0.4842986394386562  0.0937484402783999  0.07123084229300547  1.0000
  C   C41       1.0  0.4457475369625105  0.2070358745271761  0.1817148076405699  1.0000
  H   H22       1.0  0.9291401982230183  0.46548445366160585  0.46880581607464933  1.0000
  H   H23       1.0  0.8024259124996646  0.36140787355194726  0.24463393088334495  1.0000
  H   H24       1.0  0.8031983751279205  0.35857277685629607  0.8276734804082029  1.0000
  H   H25       1.0  0.9922913921242901  0.5185088557837556  0.01540252642313944  1.0000
  H   H26       1.0  0.9290525712357851  0.46580981363734897  0.5758402163563621  1.0000
  H   H27       1.0  0.6742299299763459  0.4086121241173719  0.8827669132826546  1.0000
  H   H28       1.0  0.5496429917477564  0.30276526389599767  0.8966417702873644  1.0000
  H   H29       1.0  0.6181714554975402  0.05113597092185773  0.22378494544229022  1.0000
  H   H30       1.0  0.7435495453024024  0.15408143600636048  0.21001097108829092  1.0000
  H   H31       1.0  0.47751657647846946  0.20177693038930444  0.27325653785929327  1.0000
  H   H32       1.0  0.3861347307351171  0.18045736557168301  0.20526079921672769  1.0000
  H   H33       1.0  0.4486293207716587  0.30783538669343913  0.1349599258768206  1.0000
  Zn  Zn1       1.0  0.8195664969125513  0.44087677082627463  0.5291253604639976  1.0000
  Zn  Zn2       1.0  0.9841971215965845  0.44487167065490896  0.5214816989449895  1.0000
  C   C42       1.0  0.9018660708232016  0.43776931667011554  0.7624907582694511  1.0000
  C   C43       1.0  0.9018993450766438  0.4479808072056455  0.2881163446631221  1.0000
  C   C44       1.0  0.9018297672820429  0.6800816310573439  0.5200609664485676  1.0000
  C   C45       1.0  0.9019355927786528  0.20566693106432155  0.5305462087748218  1.0000
  O   O2        1.0  0.9643703461960927  0.4512419787581954  0.33359910075921784  1.0000
  O   O3        1.0  0.964345904790742  0.437539201752837  0.7112062663923147  1.0000
  O   O4        1.0  0.9643157469025077  0.6332094400325419  0.5154425329831152  1.0000
  O   O5        1.0  0.9644004479127192  0.25557174837793606  0.529362739403292  1.0000
  O   O6        1.0  0.8393631144160643  0.6301766917413965  0.5212443226072705  1.0000
  O   O7        1.0  0.8393932719630959  0.4345080138539359  0.7170079863272294  1.0000
  O   O8        1.0  0.8394177135520987  0.44821074514866677  0.3393992593672428  1.0000
  O   O9        1.0  0.8394478152599808  0.25254050550711105  0.5351629953780181  1.0000
