data_image0
_chemical_formula_structural       NC12NC2H8C12OCH12C12OCH12Zn2C4O8
_chemical_formula_sum              "N2 C44 H32 O10 Zn2"
_cell_length_a       17.80743265337812
_cell_length_b       10.29979075500242
_cell_length_c       10.299794127170987
_cell_angle_alpha    85.57270427699777
_cell_angle_beta     91.52773436804358
_cell_angle_gamma    89.41792083348325

_space_group_name_H-M_alt    "P 1"
_space_group_IT_number       1

loop_
  _space_group_symop_operation_xyz
  'x, y, z'

loop_
  _atom_site_type_symbol
  _atom_site_label
  _atom_site_symmetry_multiplicity
  _atom_site_fract_x
  _atom_site_fract_y
  _atom_site_fract_z
  _atom_site_occupancy
  N   N1        1.0  0.707255629887201  0.4062285400704426  0.6013202298945839  1.0000
  C   C1        1.0  0.6564346481721255  0.43576493473148914  0.5326237957341811  1.0000
  C   C2        1.0  0.5932083320025008  0.4725060669078771  0.44717407923574615  1.0000
  C   C3        1.0  0.6049329394962332  0.5264854548986153  0.3205586062886894  1.0000
  C   C4        1.0  0.5436141018012832  0.5617237778817277  0.23750482586131416  1.0000
  C   C5        1.0  0.4704163459339118  0.5432459621144483  0.280406639846124  1.0000
  C   C6        1.0  0.4577149584929734  0.4891479239851544  0.4074902336902484  1.0000
  C   C7        1.0  0.5198911126828449  0.4539128495110982  0.49052750325930816  1.0000
  C   C8        1.0  0.37994902432533517  0.469556914481992  0.45325223676248405  1.0000
  C   C9        1.0  0.3611510108562729  0.4967849345882136  0.5802865062040539  1.0000
  C   C10       1.0  0.28792329924549825  0.4783487054786819  0.6232288775514563  1.0000
  C   C11       1.0  0.2325506299394688  0.432430458953746  0.5399749120976123  1.0000
  C   C12       1.0  0.15718633336744553  0.4134418629863641  0.5843181599987979  1.0000
  N   N2        1.0  0.09659877592202082  0.3981763088795205  0.6199670807941826  1.0000
  C   C13       1.0  0.2506571500713344  0.4050337042649168  0.4134835892742077  1.0000
  C   C14       1.0  0.3238320182757374  0.4234846348871968  0.37028534629333976  1.0000
  H   H1        1.0  0.6613978732743887  0.5412979356325807  0.2861227721449686  1.0000
  H   H2        1.0  0.5528100683904253  0.6037887951016272  0.13972905208650488  1.0000
  H   H3        1.0  0.42377532822632025  0.5728599858678205  0.2148179465898492  1.0000
  H   H4        1.0  0.5113937892121799  0.41046248105032346  0.5881789383631748  1.0000
  H   H5        1.0  0.4028169696347333  0.5339857860617339  0.645852751491814  1.0000
  H   H6        1.0  0.2744704749455429  0.5002264722125673  0.7212299123631076  1.0000
  H   H7        1.0  0.20827405769967033  0.3691002720937524  0.34833018147442063  1.0000
  H   H8        1.0  0.3367567118719736  0.40007141850546835  0.2725877371686918  1.0000
  C   C15       1.0  0.9019983094587135  0.020833219582046203  0.6106859900375812  1.0000
  C   C16       1.0  0.8802428393506276  0.010154006645949565  0.7410762762164107  1.0000
  C   C17       1.0  0.8691595622944944  0.8876077065578758  0.8071100209096438  1.0000
  C   C18       1.0  0.8801078742616033  0.7748744862235085  0.741004030173104  1.0000
  C   C19       1.0  0.9018633110824018  0.783561484817514  0.6106128099267791  1.0000
  C   C20       1.0  0.9126884592077936  0.906984687905539  0.5461846473869885  1.0000
  C   C21       1.0  0.8461480841692617  0.8773637133915433  0.9450570983169007  1.0000
  C   C22       1.0  0.7913295136423844  0.7876438823899462  0.9874952236616021  1.0000
  C   C23       1.0  0.7697393827889583  0.7782747437682657  0.11719443745089331  1.0000
  C   C24       1.0  0.8024817046654729  0.8579674150835547  0.20610684895914577  1.0000
  C   C25       1.0  0.8575001521739897  0.9482927230635966  0.16554991877884095  1.0000
  C   C26       1.0  0.8788574195101607  0.9573053420984071  0.03531287620304935  1.0000
  O   O1        1.0  0.8922205631002902  0.030298128904545862  0.25107748029262067  1.0000
  C   C27       1.0  0.8761052303853302  0.03164643683086732  0.385635748359239  1.0000
  H   H9        1.0  0.9103209518895468  0.35235326145650103  0.5610245593788734  1.0000
  H   H10       1.0  0.8708708543006156  0.09738809983970009  0.7910539407582884  1.0000
  H   H11       1.0  0.872615145912393  0.6801435081453342  0.7920107693056955  1.0000
  H   H12       1.0  0.9294724634102225  0.9144548410604075  0.44559407825668207  1.0000
  H   H13       1.0  0.9101157454240473  0.4594209326080661  0.5609103833705615  1.0000
  H   H14       1.0  0.7644631524052575  0.7259522385500554  0.9200019321402477  1.0000
  H   H15       1.0  0.7273078710096227  0.7091915374763634  0.14883956462276648  1.0000
  H   H16       1.0  0.7846713052820382  0.8486140287149104  0.3059159634875588  1.0000
  H   H17       1.0  0.9218949909852494  0.025950221293594034  0.005209565304909125  1.0000
  H   H18       1.0  0.8890793180234585  0.9348630256384819  0.4368774429347194  1.0000
  H   H19       1.0  0.911553733424439  0.1055639616314159  0.4295459181531951  1.0000
  H   H20       1.0  0.8161313320068092  0.057801429933444615  0.3971982622029596  1.0000
  C   C28       1.0  0.9019561584842855  0.4020833666303365  0.2292992149321229  1.0000
  C   C29       1.0  0.8283485648559745  0.3544832686537387  0.22858486750843876  1.0000
  C   C30       1.0  0.7910303377400052  0.3304669386930066  0.1110750349030778  1.0000
  C   C31       1.0  0.8282974501495634  0.3547107913718397  0.9932775080394713  1.0000
  C   C32       1.0  0.9019054643338624  0.40231138807610667  0.9919996137255502  1.0000
  C   C33       1.0  0.9383234077069087  0.42572823625004563  0.11051047584749485  1.0000
  C   C34       1.0  0.7131598254445621  0.2801015918930143  0.11137409637053297  1.0000
  C   C35       1.0  0.6593695169655475  0.3298808886758773  0.017645344124452844  1.0000
  C   C36       1.0  0.586183344705758  0.2824647185902147  0.018195781496301633  1.0000
  C   C37       1.0  0.5657235894709013  0.18495446629897194  0.11191116440676918  1.0000
  C   C38       1.0  0.6187729896989749  0.1337859032158104  0.2064671374476592  1.0000
  C   C39       1.0  0.6920611708150444  0.18183950628461876  0.20547015395458446  1.0000
  O   O2        1.0  0.6011072777227394  0.03557890125472518  0.3024513474175978  1.0000
  C   C40       1.0  0.529106080344917  0.9777947513405317  0.3150453841699765  1.0000
  H   H21       1.0  0.9300138113513744  0.4201625278722898  0.5570294544604242  1.0000
  H   H22       1.0  0.7994895629759734  0.3376513765626774  0.31948127150504146  1.0000
  H   H23       1.0  0.8001392485835545  0.33469880820285525  0.9025992003375602  1.0000
  H   H24       1.0  0.9951088884970609  0.4624488640977107  0.11029318872839777  1.0000
  H   H25       1.0  0.9299381373352749  0.4205108601639662  0.6640545770017869  1.0000
  H   H26       1.0  0.6736432747933492  0.4066513822563793  0.945003514530705  1.0000
  H   H27       1.0  0.5451016635851313  0.32170953904004107  0.9458870252551588  1.0000
  H   H28       1.0  0.5086562904479318  0.15010068997099824  0.1100096458602342  1.0000
  H   H29       1.0  0.7328120010187243  0.14085151795996964  0.27758945148032654  1.0000
  H   H30       1.0  0.5136302787922554  0.9296593283435368  0.22544790598573727  1.0000
  H   H31       1.0  0.5310497010116342  0.9032791224960868  0.3988168709702855  1.0000
  H   H32       1.0  0.4863044929630075  0.0529378984834723  0.33326605860641645  1.0000
  Zn  Zn1       1.0  0.8196116550126132  0.40390137504240964  0.6067087951676549  1.0000
  Zn  Zn2       1.0  0.9842427494735874  0.4004928836086734  0.6145891090683004  1.0000
  C   C41       1.0  0.9019142648969943  0.39709462387536476  0.8478333362961226  1.0000
  C   C42       1.0  0.9019419370570873  0.4073012362137478  0.37346478129569505  1.0000
  C   C43       1.0  0.9018852871997471  0.6393881644370696  0.6054515765907653  1.0000
  C   C44       1.0  0.9019708588488559  0.16500613653232277  0.6158466076968954  1.0000
  O   O3        1.0  0.9644138075849589  0.4077532304314171  0.42483860093597725  1.0000
  O   O4        1.0  0.9643935859590734  0.39405468369178265  0.8024401188346224  1.0000
  O   O5        1.0  0.964369343797255  0.5897097997561236  0.6067150925374369  1.0000
  O   O6        1.0  0.9644379935741672  0.2120981247912832  0.6205635271733627  1.0000
  O   O7        1.0  0.839416354731521  0.5922961350243623  0.6007343743665972  1.0000
  O   O8        1.0  0.8394405966183051  0.396642579244304  0.7964593312719441  1.0000
  O   O9        1.0  0.8394608184059954  0.4103410802601706  0.4188562520559336  1.0000
  O   O10       1.0  0.8394850043873014  0.21468596536039208  0.6145812756571238  1.0000
