data_image0
_chemical_formula_structural       NC12NC2H8C16H10C13F3H9Zn2C4O8
_chemical_formula_sum              "N2 C47 H27 F3 Zn2 O8"
_cell_length_a       19.240039667572717
_cell_length_b       10.29914801576943
_cell_length_c       10.2985328690268
_cell_angle_alpha    85.55501211268866
_cell_angle_beta     90.00547390957905
_cell_angle_gamma    90.01219802926651

_space_group_name_H-M_alt    "P 1"
_space_group_IT_number       1

loop_
  _space_group_symop_operation_xyz
  'x, y, z'

loop_
  _atom_site_type_symbol
  _atom_site_label
  _atom_site_symmetry_multiplicity
  _atom_site_fract_x
  _atom_site_fract_y
  _atom_site_fract_z
  _atom_site_occupancy
  N   N1        1.0  0.6545657639275955  0.4209488633829688  0.5668028550781741  1.0000
  C   C1        1.0  0.5944173951156907  0.42094894734585386  0.566802773103164  1.0000
  C   C2        1.0  0.5195993579808652  0.42094906459880077  0.5668026357436182  1.0000
  C   C3        1.0  0.4831235909812231  0.35651042157448454  0.6702468353093451  1.0000
  C   C4        1.0  0.4104528346749722  0.3563995578163639  0.6703334261235061  1.0000
  C   C5        1.0  0.3732671230424288  0.42094915710113145  0.5668024080098262  1.0000
  C   C6        1.0  0.41045708982836426  0.48549894344833433  0.4632715843801958  1.0000
  C   C7        1.0  0.48312777006526986  0.48538784420890835  0.46335829779347737  1.0000
  C   C8        1.0  0.2960620325889542  0.4209490784037486  0.5668023126170445  1.0000
  C   C9        1.0  0.258863460121423  0.30769173570239117  0.6087189930595522  1.0000
  C   C10       1.0  0.1861927792447279  0.30779861662156116  0.6086276204107008  1.0000
  C   C11       1.0  0.1497297456541549  0.4209489492388716  0.5668023735807091  1.0000
  C   C12       1.0  0.0749117084989681  0.42094883556347895  0.5668026223029687  1.0000
  N   N2        1.0  0.0147633916528842  0.42094879480106284  0.5668028307532091  1.0000
  C   C13       1.0  0.1862142229261286  0.5340993576737956  0.5249770738273585  1.0000
  C   C14       1.0  0.2588849266636518  0.5342064186787061  0.5248855385037481  1.0000
  H   H1        1.0  0.5108369020324807  0.30662083232758675  0.7510129679432624  1.0000
  H   H2        1.0  0.3833581210390801  0.3073084661998826  0.7522148464404352  1.0000
  H   H3        1.0  0.38336527267660814  0.5345900621037751  0.38139011320083727  1.0000
  H   H4        1.0  0.5108442304797848  0.535277333270264  0.382592441013349  1.0000
  H   H5        1.0  0.2859481704892166  0.21853849321260732  0.639922631860073  1.0000
  H   H6        1.0  0.1584695277886539  0.21954494968627247  0.6408639624921091  1.0000
  H   H7        1.0  0.1585076509323614  0.6223530000746667  0.4927407463067417  1.0000
  H   H8        1.0  0.2859866951197992  0.6233597403379101  0.49368185489843297  1.0000
  C   C15       1.0  0.834618431839443  0.039547517584392455  0.5669683874438942  1.0000
  C   C16       1.0  0.8187421915606456  0.049104915492291346  0.4334846554505767  1.0000
  C   C17       1.0  0.8107436665033958  0.9368209074928626  0.365640954016069  1.0000
  C   C18       1.0  0.818834949466378  0.8138529748551682  0.4330800355630857  1.0000
  C   C19       1.0  0.8347173893961348  0.8023401610932664  0.5666485266438455  1.0000
  C   C20       1.0  0.8425125815551939  0.915703355520531  0.6327702765176373  1.0000
  C   C21       1.0  0.793948690526208  0.9479770875119895  0.22443126374638278  1.0000
  C   C22       1.0  0.8268273374981191  0.8669655445765756  0.13920733852267597  1.0000
  C   C23       1.0  0.8109962038236652  0.8775905335069715  0.006306221282703861  1.0000
  C   C24       1.0  0.7621238435848392  0.9691268147316306  0.9568246421897615  1.0000
  C   C25       1.0  0.7291183978171418  0.05011827475344033  0.04076453271804348  1.0000
  C   C26       1.0  0.7448999783720434  0.03973455803088455  0.17368659807517894  1.0000
  C   C27       1.0  0.7458513246873287  0.9799415425941056  0.8199904921879155  1.0000
  C   C28       1.0  0.7322232655583247  0.988998773936272  0.7053938710930647  1.0000
  C   C29       1.0  0.7162649692439595  0.9996046695607007  0.5712023963529602  1.0000
  C   C30       1.0  0.7026391972624834  0.008660529466799405  0.4566242843738557  1.0000
  H   H9        1.0  0.8406893709399009  0.3633459371435348  0.618326043638002  1.0000
  H   H10       1.0  0.8134963240524954  0.1441441328767583  0.3815707813259346  1.0000
  H   H11       1.0  0.8117951511903558  0.7269437626225399  0.3816607794217688  1.0000
  H   H12       1.0  0.8547563003722013  0.9076155987361136  0.7357305610563147  1.0000
  H   H13       1.0  0.8642642605545462  0.5733038205416184  0.8189303024209384  1.0000
  H   H14       1.0  0.8654383063977498  0.7965719889638859  0.17505964584812528  1.0000
  H   H15       1.0  0.8369956656437868  0.8146476959009362  0.9421266736810687  1.0000
  H   H16       1.0  0.6910601704342487  0.12107575707639873  0.003542232521030586  1.0000
  H   H17       1.0  0.7180902634428751  0.10228733941940704  0.23706329980024798  1.0000
  H   H18       1.0  0.6906746724592514  0.016612339441344437  0.35601504078707613  1.0000
  C   C31       1.0  0.834647922469866  0.42082188999563397  0.18541101203992305  1.0000
  C   C32       1.0  0.9043349161879527  0.3799270618955408  0.18764126147706417  1.0000
  C   C33       1.0  0.939645853324583  0.35932402266756003  0.07160044041375735  1.0000
  C   C34       1.0  0.9043759806835384  0.38018270026308754  0.9523404777436388  1.0000
  C   C35       1.0  0.8346879024335472  0.42106582254113034  0.9482058839916738  1.0000
  C   C36       1.0  0.8002689125010418  0.44111916440961263  0.06523863272727137  1.0000
  C   C37       1.0  0.013321602029597424  0.3161006251318772  0.07489277813486739  1.0000
  C   C38       1.0  0.061319450862715286  0.3707056880179669  0.9833282080339929  1.0000
  C   C39       1.0  0.13065822101435898  0.33012880547101564  0.9864481825760989  1.0000
  C   C40       1.0  0.1532607342865342  0.23272449594527878  0.079960533585681  1.0000
  C   C41       1.0  0.10566543754553082  0.17993863178639313  0.17310166763855306  1.0000
  C   C42       1.0  0.03633119592936884  0.22054857209629275  0.17009260021319128  1.0000
  C   C43       1.0  0.22861041187457176  0.19243453613491446  0.08626094450849187  1.0000
  F   F1        1.0  0.26426428220019993  0.2717557960158319  0.16571235641833448  1.0000
  F   F2        1.0  0.2582110844599115  0.2036086438161877  0.9633990444803939  1.0000
  F   F3        1.0  0.23503037501896062  0.06430260247499398  0.1362007675485284  1.0000
  H   H19       1.0  0.703098000140409  0.4989165014474459  0.38845825529381006  1.0000
  H   H20       1.0  0.9315509245589876  0.3657663195494594  0.27972619992042147  1.0000
  H   H21       1.0  0.9310660133289638  0.36279970694906916  0.8627170850823642  1.0000
  H   H22       1.0  0.7465595410344159  0.4726323674308577  0.06278661344825442  1.0000
  H   H23       1.0  0.7028752550514135  0.4975767647867202  0.7331245457255311  1.0000
  H   H24       1.0  0.04549122280273954  0.44647634377184486  0.9105671483769151  1.0000
  H   H25       1.0  0.16669723098509093  0.3753589090502394  0.9159439253929973  1.0000
  H   H26       1.0  0.12204969915347097  0.1070597556669226  0.24830439258430537  1.0000
  H   H27       1.0  0.0005426412117106594  0.1762725757779975  0.24161613426170558  1.0000
  Zn  Zn1       1.0  0.758511027706282  0.4209453784896193  0.5668103384984464  1.0000
  Zn  Zn2       1.0  0.9108181458263631  0.4209416887034465  0.566805951468192  1.0000
  C   C44       1.0  0.8346781253528467  0.41584557917503817  0.8040234818848582  1.0000
  C   C45       1.0  0.8346527115880868  0.42604312677731637  0.3295929348226194  1.0000
  C   C46       1.0  0.834694841361345  0.6581544702117519  0.5615334063642774  1.0000
  C   C47       1.0  0.8346359434089933  0.18373267532884197  0.5720830802428953  1.0000
  O   O1        1.0  0.8924540756961286  0.4277883550603694  0.37798004274771624  1.0000
  O   O2        1.0  0.892474339604408  0.41409657050435444  0.7556326708422136  1.0000
  O   O3        1.0  0.8924870588950827  0.6097640648813811  0.5598202186579337  1.0000
  O   O4        1.0  0.8924413044294525  0.23212086994447434  0.5737923975476478  1.0000
  O   O5        1.0  0.7768878171282478  0.6097661972512625  0.559823892413656  1.0000
  O   O6        1.0  0.7768750980332237  0.4141002632886659  0.7556362746929057  1.0000
  O   O7        1.0  0.7768548340834478  0.42779200208555745  0.37798208509994824  1.0000
  O   O8        1.0  0.7768420628178285  0.23212450771120108  0.5737945372788933  1.0000
