data_image0
_chemical_formula_structural       NC10NC3NH7C16H10C12NCOH11Zn2C4O8
_chemical_formula_sum              "N4 C46 H28 O9 Zn2"
_cell_length_a       19.210446455230148
_cell_length_b       10.29914801576943
_cell_length_c       10.299148425239203
_cell_angle_alpha    85.5134079146002
_cell_angle_beta     89.97590399293749
_cell_angle_gamma    89.9607823085547

_space_group_name_H-M_alt    "P 1"
_space_group_IT_number       1

loop_
  _space_group_symop_operation_xyz
  'x, y, z'

loop_
  _atom_site_type_symbol
  _atom_site_label
  _atom_site_symmetry_multiplicity
  _atom_site_fract_x
  _atom_site_fract_y
  _atom_site_fract_z
  _atom_site_occupancy
  N   N1        1.0  0.6558463238792983  0.4209038843198467  0.5666939877441539  1.0000
  C   C1        1.0  0.5956178506360309  0.4231114516513481  0.5669243304192138  1.0000
  C   C2        1.0  0.5208135054437957  0.42584843098819314  0.5672096954787433  1.0000
  C   C3        1.0  0.4852062174901978  0.5420803920792656  0.5822792634678882  1.0000
  C   C4        1.0  0.4125407508962514  0.542231962497113  0.5822266062059163  1.0000
  C   C5        1.0  0.3756467732557601  0.4265574091663209  0.5672959207445378  1.0000
  C   C6        1.0  0.2983246010675605  0.42520090522000764  0.5671458231742244  1.0000
  C   C7        1.0  0.2605824211552871  0.5288060841065503  0.5037412811598214  1.0000
  C   C8        1.0  0.187804015963863  0.5274038038590887  0.5036327211357321  1.0000
  C   C9        1.0  0.1517663970904448  0.4226538943568854  0.5668776071206374  1.0000
  C   C10       1.0  0.0768368349780182  0.42135178222391034  0.56674125352871  1.0000
  N   N2        1.0  0.0165989488396233  0.42030483984205635  0.5666316601354693  1.0000
  C   C11       1.0  0.1887849280294859  0.31917442749292046  0.6302570922484101  1.0000
  C   C12       1.0  0.2615651640737078  0.3203023990260623  0.6304160034988964  1.0000
  C   C13       1.0  0.4138639707198756  0.312145704298326  0.5525138595524761  1.0000
  N   N3        1.0  0.48463400717803995  0.3145907755103159  0.5526785239504037  1.0000
  H   H1        1.0  0.5133097409820373  0.6315149188539309  0.594295228334264  1.0000
  H   H2        1.0  0.3852743219133765  0.6322477874752612  0.5956371710561366  1.0000
  H   H3        1.0  0.287318990196588  0.6100872209895547  0.4527170266178593  1.0000
  H   H4        1.0  0.1596667053409774  0.607856599722636  0.4539392566626046  1.0000
  H   H5        1.0  0.1614088761395839  0.23775821177794465  0.679851423799612  1.0000
  H   H6        1.0  0.2890574441497796  0.2399681713527868  0.6815472457931209  1.0000
  H   H7        1.0  0.387596173387769  0.22126691926290798  0.5390573655841415  1.0000
  C   C14       1.0  0.8361763705141847  0.03920301225340306  0.5668283943894656  1.0000
  C   C15       1.0  0.8203010082692643  0.04888399746622274  0.4333478060376017  1.0000
  C   C16       1.0  0.8123030383202501  0.9366626857913642  0.36550569016069034  1.0000
  C   C17       1.0  0.8203939858964436  0.8136321971802302  0.4329431713252385  1.0000
  C   C18       1.0  0.8362755412546623  0.801995724092612  0.5665085174393709  1.0000
  C   C19       1.0  0.8440701919000703  0.915297814034421  0.6326287220543565  1.0000
  C   C20       1.0  0.7955089914613359  0.9479496059891501  0.22429932545488085  1.0000
  C   C21       1.0  0.8284544729179854  0.8669454398198723  0.13906997143315292  1.0000
  C   C22       1.0  0.8126241761778711  0.8776935168573221  0.006171988294975117  1.0000
  C   C23       1.0  0.7636859104210179  0.9693470935139883  0.956699005602232  1.0000
  C   C24       1.0  0.7306136785520709  0.05033232250265618  0.04064435068757066  1.0000
  C   C25       1.0  0.7463943418487967  0.039825584821935545  0.17356329044638508  1.0000
  C   C26       1.0  0.7474142950042488  0.9802885070222113  0.8198680777642666  1.0000
  C   C27       1.0  0.7337869924349124  0.9894518358596831  0.7052741551954167  1.0000
  C   C28       1.0  0.7178295820780342  0.0001819705327059662  0.5710858403979455  1.0000
  C   C29       1.0  0.7042045666665411  0.009343910654715293  0.4565104264941211  1.0000
  H   H8        1.0  0.8422469141397846  0.36295394401505554  0.6181848475410556  1.0000
  H   H9        1.0  0.8150569130227261  0.14396973562621662  0.3814349939908128  1.0000
  H   H10       1.0  0.8133531020511401  0.7267721286901663  0.3815252858947491  1.0000
  H   H11       1.0  0.8563132301725567  0.9071147339467284  0.7355865821705394  1.0000
  H   H12       1.0  0.8658200458668993  0.572726568970718  0.8187844311261778  1.0000
  H   H13       1.0  0.8671181246433527  0.7964615754456669  0.17491549697358844  1.0000
  H   H14       1.0  0.8386758788156189  0.8147541732447311  0.9419881381524804  1.0000
  H   H15       1.0  0.6925038800231985  0.12138019191157379  0.003428740821323162  1.0000
  H   H16       1.0  0.719531290133393  0.10237680410692662  0.23694443717937275  1.0000
  H   H17       1.0  0.692240706275553  0.01738886791720562  0.35590355203596324  1.0000
  C   C30       1.0  0.8362783364887  0.42075514051230356  0.18527215486327586  1.0000
  C   C31       1.0  0.9069081155754457  0.4561997955442587  0.18127560794942688  1.0000
  C   C32       1.0  0.9426082939624142  0.47395693926854077  0.062117246894635825  1.0000
  C   C33       1.0  0.9067613277411313  0.45585985986950206  0.9460186209748027  1.0000
  C   C34       1.0  0.8361735737292342  0.42044361115345685  0.9480646925322058  1.0000
  C   C35       1.0  0.8013461947665333  0.40308992110538  0.0681971181784522  1.0000
  C   C36       1.0  0.017284059347264957  0.5114289336561635  0.058982059516665686  1.0000
  C   C37       1.0  0.06405134924399891  0.45397545046887156  0.9753999997481828  1.0000
  C   C38       1.0  0.1342875433331736  0.48937520452424743  0.9725988548348745  1.0000
  C   C39       1.0  0.15940077809540965  0.5816143223826686  0.05406480308664463  1.0000
  C   C40       1.0  0.11256464644776654  0.6409142925403706  0.13607770378927375  1.0000
  C   C41       1.0  0.04229700848154061  0.605621268330641  0.13897565064074047  1.0000
  N   N4        1.0  0.23169750483035823  0.6177043285391695  0.04750172848448497  1.0000
  C   C42       1.0  0.2717421218198528  0.6543139923905474  0.15620952784647235  1.0000
  O   O1        1.0  0.24818722489107947  0.6401893546547712  0.27057971303219563  1.0000
  H   H18       1.0  0.7030787581549784  0.3530909673480904  0.4001686116503973  1.0000
  H   H19       1.0  0.9345274948093325  0.46835038937539264  0.271192125889967  1.0000
  H   H20       1.0  0.9337714328828818  0.4712080016119742  0.8537746018322809  1.0000
  H   H21       1.0  0.7469009093113459  0.375768946191251  0.0704904012269123  1.0000
  H   H22       1.0  0.809025664683035  0.40678526683095284  0.6213785436298358  1.0000
  H   H23       1.0  0.046491855038721  0.38048857919381596  0.9132610188501928  1.0000
  H   H24       1.0  0.16945374909599553  0.44377499680872323  0.9076569646190467  1.0000
  H   H25       1.0  0.129729406399284  0.7165665411598572  0.19580923643545423  1.0000
  H   H26       1.0  0.007213286724095713  0.6538878191926154  0.20202383432748272  1.0000
  H   H27       1.0  0.25846860468361865  0.6087197986697259  0.9603177784173909  1.0000
  H   H28       1.0  0.32401379086978377  0.6912701185664663  0.14036109123053597  1.0000
  Zn  Zn1       1.0  0.7599517364373088  0.4207275456125905  0.5666835024009937  1.0000
  Zn  Zn2       1.0  0.9124935175048535  0.4204705907575659  0.5666527864577786  1.0000
  C   C43       1.0  0.8361911565313459  0.41532837913932275  0.8038827696425841  1.0000
  C   C44       1.0  0.8362557633578873  0.4258713931317979  0.3294536456690995  1.0000
  C   C45       1.0  0.8362539294678845  0.657813794930469  0.5613934163534293  1.0000
  C   C46       1.0  0.8361929381571044  0.18338441696475227  0.5719430688667588  1.0000
  O   O2        1.0  0.8941369978092185  0.4274852749967446  0.37783061693367714  1.0000
  O   O3        1.0  0.8940856042576788  0.41351849483179803  0.7554821122258732  1.0000
  O   O4        1.0  0.8941355136434844  0.6093285354927569  0.5596702433832457  1.0000
  O   O5        1.0  0.8940870363858177  0.2316752437542513  0.5736423884012329  1.0000
  O   O6        1.0  0.7783581655013229  0.609522892705008  0.5596939004611896  1.0000
  O   O7        1.0  0.778308256324739  0.4137144125090515  0.755505699398962  1.0000
  O   O8        1.0  0.778359650131133  0.42768114805184054  0.3778526426129831  1.0000
  O   O9        1.0  0.778309688690305  0.23187110747998463  0.5736645114592605  1.0000
