data_image0
_chemical_formula_structural       NC10NC3NCH9C12OCH12C15H12Zn2C4O8
_chemical_formula_sum              "N3 C46 H33 O9 Zn2"
_cell_length_a       19.437513618241372
_cell_length_b       10.29979075500242
_cell_length_c       10.299157797200024
_cell_angle_alpha    85.53980185155037
_cell_angle_beta     90.36969697792763
_cell_angle_gamma    89.50469088654314

_space_group_name_H-M_alt    "P 1"
_space_group_IT_number       1

loop_
  _space_group_symop_operation_xyz
  'x, y, z'

loop_
  _atom_site_type_symbol
  _atom_site_label
  _atom_site_symmetry_multiplicity
  _atom_site_fract_x
  _atom_site_fract_y
  _atom_site_fract_z
  _atom_site_occupancy
  N   N1        1.0  0.6473180553403441  0.41088943421772184  0.5755376418741356  1.0000
  C   C1        1.0  0.5883812364979677  0.4279003652277269  0.5725614415689946  1.0000
  C   C2        1.0  0.5149364186814036  0.4491539575523702  0.5688671967217027  1.0000
  C   C3        1.0  0.47318739291076195  0.347968942879223  0.5572071534388525  1.0000
  C   C4        1.0  0.3972940049831145  0.3580361513993342  0.5499853456410531  1.0000
  C   C5        1.0  0.3577231861000899  0.4388608944803938  0.6157320647425928  1.0000
  C   C6        1.0  0.2815402260831656  0.43025567962229805  0.6072874219072024  1.0000
  C   C7        1.0  0.24842509936263082  0.30891043758571946  0.6119310818895256  1.0000
  C   C8        1.0  0.1766896352524422  0.30254126365740985  0.6047625650916253  1.0000
  C   C9        1.0  0.1370988393092721  0.41704452265275327  0.5933126431147016  1.0000
  C   C10       1.0  0.0632489137807982  0.41033723124889243  0.5859760241605649  1.0000
  N   N2        1.0  0.0038786717063667006  0.40494515885794335  0.5800778409564002  1.0000
  C   C11       1.0  0.1694976091104262  0.5380789308246934  0.5894143067943369  1.0000
  C   C12       1.0  0.241217453053622  0.5447020715885615  0.5966448490131673  1.0000
  C   C13       1.0  0.3864152335936031  0.5311127102866673  0.705657760532401  1.0000
  N   N3        1.0  0.4433851363382075  0.5943320079406804  0.6852522718943201  1.0000
  C   C14       1.0  0.48719810535156616  0.5851118801968775  0.5721375015968331  1.0000
  H   H1        1.0  0.49558317697061555  0.2529180113617122  0.5450851616137888  1.0000
  H   H2        1.0  0.3725756551222932  0.2885457380255456  0.49166348417201555  1.0000
  H   H3        1.0  0.277892382572339  0.21899547722304602  0.6229526165977199  1.0000
  H   H4        1.0  0.1521118521923356  0.20831452024028563  0.6086499688907125  1.0000
  H   H5        1.0  0.13934574388175663  0.6273381501344328  0.5807050670835014  1.0000
  H   H6        1.0  0.2653136456274993  0.6393416161661372  0.5927419845066113  1.0000
  H   H7        1.0  0.3564306373068645  0.5514674479319999  0.7900297908840721  1.0000
  H   H8        1.0  0.5299411765391724  0.6554215340511016  0.5779012805100463  1.0000
  H   H9        1.0  0.45750316307813804  0.6132532932559529  0.48148615810487483  1.0000
  C   C15       1.0  0.8256634977135973  0.02654841595704993  0.5778475424463505  1.0000
  C   C16       1.0  0.8057753311954974  0.015675100065441816  0.7090405165102416  1.0000
  C   C17       1.0  0.7956432416632513  0.8930301430317119  0.7754831455657341  1.0000
  C   C18       1.0  0.8056517123382928  0.7803948871487865  0.7089731532533059  1.0000
  C   C19       1.0  0.8255398481199997  0.7892759890595573  0.5777792462254603  1.0000
  C   C20       1.0  0.8354359801044616  0.9127955120895074  0.5129517296568566  1.0000
  C   C21       1.0  0.7746068799458989  0.8825808239452178  0.9142792556030248  1.0000
  C   C22       1.0  0.724416181488574  0.7925380410425413  0.9587085067682577  1.0000
  C   C23       1.0  0.7046792439206776  0.7829761004925961  0.08920434106888386  1.0000
  C   C24       1.0  0.7346882702631462  0.8627953175579518  0.17694004426121535  1.0000
  C   C25       1.0  0.7850625217129553  0.9534435727452549  0.13438495213727775  1.0000
  C   C26       1.0  0.8045860605027162  0.962648038830478  0.0033596681952703378  1.0000
  O   O1        1.0  0.8168821429703282  0.035588254117837614  0.2186637532058563  1.0000
  C   C27       1.0  0.8021602696582304  0.03677073103205597  0.35382078576094766  1.0000
  H   H10       1.0  0.8332718550582198  0.35814258500652185  0.5278790644900484  1.0000
  H   H11       1.0  0.7972060844140264  0.10282917219423648  0.759363288138138  1.0000
  H   H12       1.0  0.7988037433352474  0.685593516884599  0.7602570139948546  1.0000
  H   H13       1.0  0.8507793897980622  0.9204154106039624  0.4117418997882296  1.0000
  H   H14       1.0  0.8330838986999978  0.46520920577587616  0.5277723119946567  1.0000
  H   H15       1.0  0.6997940722289394  0.7307393892800585  0.8921813512236552  1.0000
  H   H16       1.0  0.6658295436625816  0.7136436168500349  0.12239053771470221  1.0000
  H   H17       1.0  0.7184046896011164  0.8532870542207402  0.27740552709079125  1.0000
  H   H18       1.0  0.8439911991339353  0.03154459809765742  0.9716934955484866  1.0000
  H   H19       1.0  0.8140556184534165  0.940028166491179  0.40459797189579116  1.0000
  H   H20       1.0  0.8346354268428678  0.11085565988409263  0.3964512358418515  1.0000
  H   H21       1.0  0.747240046223237  0.06259264711292523  0.3675578445559189  1.0000
  C   C28       1.0  0.825521875800128  0.4080197976551523  0.1964203652633041  1.0000
  C   C29       1.0  0.753863483029667  0.3912351310594864  0.1956846415777138  1.0000
  C   C30       1.0  0.7176778947860231  0.38261336981376237  0.07817117160884979  1.0000
  C   C31       1.0  0.754067937564034  0.39102299147557207  0.9604199685997146  1.0000
  C   C32       1.0  0.8256814244893564  0.40780461200490103  0.9592064375849967  1.0000
  C   C33       1.0  0.8609902177251155  0.41619925927446233  0.0777316082362507  1.0000
  C   C34       1.0  0.6419189252606718  0.36487357443067037  0.07843964487297672  1.0000
  C   C35       1.0  0.6109754247623328  0.278410728917466  0.9969461892180651  1.0000
  C   C36       1.0  0.5396830453198507  0.2618098870025618  0.9972310845985883  1.0000
  C   C37       1.0  0.4980644852783157  0.330683982430662  0.07952526170219842  1.0000
  C   C38       1.0  0.5286396472878363  0.4179985127038224  0.16003723792114366  1.0000
  C   C39       1.0  0.5999313323565623  0.4346035645361639  0.15990028405917012  1.0000
  C   C40       1.0  0.4212620524241108  0.3151492806354763  0.07748581598614268  1.0000
  C   C41       1.0  0.3903048015887291  0.4094324774000302  0.9796725224932543  1.0000
  C   C42       1.0  0.3648625492526715  0.4869612550114255  0.8992431156863012  1.0000
  H   H22       1.0  0.9608282011143985  0.4389043585380388  0.4051644342550855  1.0000
  H   H23       1.0  0.726191483188761  0.3830716312834477  0.28687076999565364  1.0000
  H   H24       1.0  0.7262963806959526  0.38624796610674106  0.8694344950620776  1.0000
  H   H25       1.0  0.9162278681769954  0.4291396498432518  0.07751130918644278  1.0000
  H   H26       1.0  0.853229203683908  0.4142179018395473  0.6312673481938766  1.0000
  H   H27       1.0  0.6419916467697164  0.22252824748199185  0.933973878218127  1.0000
  H   H28       1.0  0.5169154156033652  0.19503399482655248  0.9333879135855656  1.0000
  H   H29       1.0  0.4972216916741242  0.4735785140902127  0.22265946123165747  1.0000
  H   H30       1.0  0.6221374601433504  0.5034960378787745  0.2220948801426894  1.0000
  H   H31       1.0  0.4075471098812412  0.21513809050318455  0.053874686031170516  1.0000
  H   H32       1.0  0.3993588723640329  0.33095931434767545  0.17442688108126547  1.0000
  H   H33       1.0  0.3425457107313239  0.5550285409577207  0.8286336809481423  1.0000
  Zn  Zn1       1.0  0.7502137547356922  0.4091705534193213  0.576855354997396  1.0000
  Zn  Zn2       1.0  0.9009829824830293  0.4066533671009831  0.5787707993356697  1.0000
  C   C43       1.0  0.8256505892329458  0.40267165596091337  0.8150240061069758  1.0000
  C   C44       1.0  0.825547794142032  0.4131538756548976  0.3406022964705757  1.0000
  C   C45       1.0  0.8255585794161356  0.6451057852973641  0.5726166491171927  1.0000
  C   C46       1.0  0.8256397527793197  0.17071818685577367  0.5830097221893815  1.0000
  O   O2        1.0  0.88277262968268  0.41391599430300374  0.389717971352872  1.0000
  O   O3        1.0  0.8828561090707088  0.3999980715241842  0.7673617353750344  1.0000
  O   O4        1.0  0.882781038961643  0.595766709457817  0.5716160696135681  1.0000
  O   O5        1.0  0.8828476483225433  0.21814736654600342  0.5854635390790646  1.0000
  O   O6        1.0  0.7683490374460387  0.5976765548347089  0.5701626145935224  1.0000
  O   O7        1.0  0.7684241072844875  0.4019094772241565  0.7659082109654873  1.0000
  O   O8        1.0  0.7683406276228929  0.41582735518671554  0.38826288544844534  1.0000
  O   O9        1.0  0.7684156462818194  0.22005871811349076  0.5840085505494332  1.0000
