data_image0
_chemical_formula_structural       NC8NC6H8C16H10C13F3H9Zn2C4O8
_chemical_formula_sum              "N2 C47 H27 F3 Zn2 O8"
_cell_length_a       17.457602349358154
_cell_length_b       10.29914801576943
_cell_length_c       10.2985328690268
_cell_angle_alpha    85.55501211268866
_cell_angle_beta     92.88104695485512
_cell_angle_gamma    91.70309287404056

_space_group_name_H-M_alt    "P 1"
_space_group_IT_number       1

loop_
  _space_group_symop_operation_xyz
  'x, y, z'

loop_
  _atom_site_type_symbol
  _atom_site_label
  _atom_site_symmetry_multiplicity
  _atom_site_fract_x
  _atom_site_fract_y
  _atom_site_fract_z
  _atom_site_occupancy
  N   N1        1.0  0.7225535397277842  0.4525164997665425  0.6258029175079538  1.0000
  C   C1        1.0  0.6614684150665805  0.4065839702581695  0.6152050625317251  1.0000
  C   C2        1.0  0.5854759383256823  0.3494496214719933  0.6020308713398417  1.0000
  C   C3        1.0  0.5269573971132953  0.3896388790613379  0.67691820718611  1.0000
  C   C4        1.0  0.4524033420564451  0.33462317025938093  0.6643576398960218  1.0000
  C   C5        1.0  0.3902944817402058  0.37705718357037776  0.7436662209308404  1.0000
  C   C6        1.0  0.31574723485945855  0.39550930619043756  0.6878906907525955  1.0000
  C   C7        1.0  0.257228670712831  0.4355146571944388  0.7628860639626598  1.0000
  C   C8        1.0  0.18124322702690404  0.45457197520514714  0.7048946473934949  1.0000
  N   N2        1.0  0.1201638459058005  0.46988767869329506  0.6582697021329074  1.0000
  C   C9        1.0  0.2727652550027134  0.4573112105864259  0.8941654267703603  1.0000
  C   C10       1.0  0.3465278760191773  0.43924823189645723  0.950328427684572  1.0000
  C   C11       1.0  0.40503488752968664  0.3994230970989481  0.8757907392361177  1.0000
  C   C12       1.0  0.4376562940799111  0.23874026793754144  0.5754769778625233  1.0000
  C   C13       1.0  0.4961631802124966  0.19882984215638255  0.5009895639259514  1.0000
  C   C14       1.0  0.5699325175405279  0.2539581122087682  0.5141000794859056  1.0000
  H   H1        1.0  0.5393160632995572  0.46486095528108984  0.7435236269414649  1.0000
  H   H2        1.0  0.30339418373551547  0.38050509187929915  0.5858640980971845  1.0000
  H   H3        1.0  0.2279121119410445  0.4882154491792734  0.9529934097151942  1.0000
  H   H4        1.0  0.3583674175901448  0.4558101199466509  0.05198109468094936  1.0000
  H   H5        1.0  0.46152102387023225  0.3844447690516075  0.9219070169846741  1.0000
  H   H6        1.0  0.3811645298016713  0.19339744528637315  0.5648427626757555  1.0000
  H   H7        1.0  0.4843184143455584  0.12472393906800305  0.4331852712529214  1.0000
  H   H8        1.0  0.6147856095465488  0.2221842651420296  0.45578361724113736  1.0000
  C   C15       1.0  0.9213077363367093  0.07979852462950077  0.6421977109088148  1.0000
  C   C16       1.0  0.9037824787641444  0.08859026168576545  0.5072829551449007  1.0000
  C   C17       1.0  0.8949531709829991  0.9759205101223941  0.438718297156093  1.0000
  C   C18       1.0  0.9038848711543646  0.8533427944690396  0.5068866961013931  1.0000
  C   C19       1.0  0.9214169723169744  0.8425959405483282  0.6418867697656507  1.0000
  C   C20       1.0  0.9300218276237813  0.9563350724370033  0.7087111485415056  1.0000
  C   C21       1.0  0.8764137514002445  0.9862667215731414  0.295994771782635  1.0000
  C   C22       1.0  0.9127074044756325  0.9068408117850612  0.213734402447201  1.0000
  C   C23       1.0  0.8952319385946435  0.9167023152126768  0.07940632717397911  1.0000
  C   C24       1.0  0.8412833533928646  0.005881637087722158  0.025519579854884178  1.0000
  C   C25       1.0  0.8048497313124087  0.08528134885734584  0.10648448533486055  1.0000
  C   C26       1.0  0.8222704971404614  0.07565872784735239  0.24082904219597046  1.0000
  C   C27       1.0  0.8233206569341723  0.015911592834223054  0.8872186870385623  1.0000
  C   C28       1.0  0.8082770923208991  0.02431158599054739  0.771393684650771  1.0000
  C   C29       1.0  0.7906612557993223  0.03414786346029186  0.6357637899218611  1.0000
  C   C30       1.0  0.7756202158927068  0.042546595482439775  0.5199575028045746  1.0000
  H   H9        1.0  0.9280092456093406  0.4038897263789003  0.6941025784079946  1.0000
  H   H10       1.0  0.89799173878683  0.1833764874731465  0.4548962385229329  1.0000
  H   H11       1.0  0.8961138702196563  0.7660940750326469  0.454832899382692  1.0000
  H   H12       1.0  0.9435372646634105  0.9488377914838895  0.8127750352151952  1.0000
  H   H13       1.0  0.9540327880530272  0.614984552135033  0.8968317878615761  1.0000
  H   H14       1.0  0.9553287785043444  0.838309341074777  0.2530669553050222  1.0000
  H   H15       1.0  0.9239318862613596  0.8550133494131676  0.01757027193791383  1.0000
  H   H16       1.0  0.7628385103981474  0.15440340325291335  0.06583176161846938  1.0000
  H   H17       1.0  0.7926761378129453  0.13691856148475345  0.3017892184293087  1.0000
  H   H18       1.0  0.7624129719087512  0.04992139426986619  0.4182698225667587  1.0000
  C   C31       1.0  0.9213402900701543  0.46107431928056775  0.2606429936778374  1.0000
  C   C32       1.0  0.998265462083216  0.4235402744654988  0.26915456304720364  1.0000
  C   C33       1.0  0.03724403998207415  0.4046401700460909  0.1562965352345158  1.0000
  C   C34       1.0  0.9983107918243629  0.4237978932437796  0.03385748071085182  1.0000
  C   C35       1.0  0.921384422632332  0.4613201799332547  0.023441469271090698  1.0000
  C   C36       1.0  0.8833904358091261  0.4797136027855635  0.13737182147650118  1.0000
  C   C37       1.0  0.11857226695728063  0.36496992083190305  0.1662297240552526  1.0000
  C   C38       1.0  0.1715555078857276  0.42188976814861445  0.07899149705649444  1.0000
  C   C39       1.0  0.24809628739857548  0.3846568751655195  0.08836140398614734  1.0000
  C   C40       1.0  0.2730464556957384  0.2883426133624889  0.18391105937004704  1.0000
  C   C41       1.0  0.22050757873362103  0.23326137858710028  0.272762134831658  1.0000
  C   C42       1.0  0.14397179812160488  0.27052754773008636  0.26350354320367186  1.0000
  C   C43       1.0  0.35622247750889025  0.2516865301689617  0.19700320296015006  1.0000
  F   F1        1.0  0.3955796080349341  0.33272726344145  0.2796683188108364  1.0000
  F   F2        1.0  0.38889768286415527  0.26428818466123305  0.07680939470639125  1.0000
  F   F3        1.0  0.3633092629024097  0.12386421102496459  0.2475216970019254  1.0000
  H   H19       1.0  0.7761266732446669  0.5328246940746815  0.4518328284667603  1.0000
  H   H20       1.0  0.02830831532955136  0.4106920741181226  0.3636926487241492  1.0000
  H   H21       1.0  0.02777303782954177  0.4077020757828964  0.9466398258365398  1.0000
  H   H22       1.0  0.8241024335816558  0.5086365727052862  0.13007864422035342  1.0000
  H   H23       1.0  0.7758807922936911  0.5314742151228629  0.7964790415053744  1.0000
  H   H24       1.0  0.15408324941664664  0.496897078528308  0.00480374126717753  1.0000
  H   H25       1.0  0.2878785608654748  0.4316250262031889  0.02110556576315581  1.0000
  H   H26       1.0  0.23859362428175435  0.16117266358108218  0.34944167465378584  1.0000
  H   H27       1.0  0.10446599394110101  0.2245255826180037  0.33180123337372924  1.0000
  Zn  Zn1       1.0  0.8372952852027831  0.4575259661633302  0.6351796307141289  1.0000
  Zn  Zn2       1.0  0.005422085271072685  0.46486756693221976  0.6489036266406376  1.0000
  C   C44       1.0  0.9213736300356861  0.4560994650494852  0.8792581858954953  1.0000
  C   C45       1.0  0.9213455766196704  0.4662957870262736  0.40482534813339144  1.0000
  C   C46       1.0  0.9213920822856757  0.6984091622464159  0.6367696170921913  1.0000
  C   C47       1.0  0.921327066780283  0.2239845269015599  0.6473139821339324  1.0000
  O   O1        1.0  0.9851505944482225  0.4708285922728528  0.4584224506516028  1.0000
  O   O2        1.0  0.9851729631076652  0.4571377849810383  0.8360769052575368  1.0000
  O   O3        1.0  0.9851870035127799  0.6528058927692233  0.640265599541626  1.0000
  O   O4        1.0  0.9851364966685157  0.27516049123916164  0.6542336542982468  1.0000
  O   O5        1.0  0.8575808164319144  0.6472330393524723  0.6298495983663615  1.0000
  O   O6        1.0  0.8575667762427719  0.4515664919881539  0.8256608341948772  1.0000
  O   O7        1.0  0.8575444075375226  0.46525725351884284  0.44800481808674353  1.0000
  O   O8        1.0  0.857530309758982  0.26958914322674143  0.6438161191124958  1.0000
