data_image0
_chemical_formula_structural       NC10NC5H10C16H10C12OCH12Zn2C4O8
_chemical_formula_sum              "N2 C48 H32 O9 Zn2"
_cell_length_a       19.4436361288709
_cell_length_b       10.29914801576943
_cell_length_c       10.299794127170987
_cell_angle_alpha    85.55374609457252
_cell_angle_beta     89.69815743819767
_cell_angle_gamma    89.43179634642199

_space_group_name_H-M_alt    "P 1"
_space_group_IT_number       1

loop_
  _space_group_symop_operation_xyz
  'x, y, z'

loop_
  _atom_site_type_symbol
  _atom_site_label
  _atom_site_symmetry_multiplicity
  _atom_site_fract_x
  _atom_site_fract_y
  _atom_site_fract_z
  _atom_site_occupancy
  N   N1        1.0  0.6479116232817244  0.40900662782313324  0.561603894681427  1.0000
  C   C1        1.0  0.5890769107922618  0.418910903891744  0.5759833649834976  1.0000
  C   C2        1.0  0.5157491518975619  0.4312628698131151  0.593970062095083  1.0000
  C   C3        1.0  0.4735615127763927  0.39925290803656033  0.4993129684540467  1.0000
  C   C4        1.0  0.3976581279215731  0.40969260374130556  0.5046367253652007  1.0000
  C   C5        1.0  0.3579154248663383  0.3849547133533413  0.6117142142271079  1.0000
  C   C6        1.0  0.2817954077985811  0.38887019279257795  0.598753862126628  1.0000
  C   C7        1.0  0.24123931863453854  0.4465464523820901  0.692497887886022  1.0000
  C   C8        1.0  0.1695764087973264  0.45018331381933385  0.6819530187443248  1.0000
  C   C9        1.0  0.1374747822843896  0.395747905353405  0.5779507932002621  1.0000
  C   C10       1.0  0.0636826359243601  0.39944599751602206  0.5672506247933184  1.0000
  N   N2        1.0  0.004358755292725  0.4024190695789338  0.5586483987826887  1.0000
  C   C11       1.0  0.1773058913413595  0.3373645429284695  0.48459026274814354  1.0000
  C   C12       1.0  0.2489852244526443  0.33367342525979304  0.49488338660570697  1.0000
  C   C13       1.0  0.3860426961274183  0.34450539064166485  0.7428190143732034  1.0000
  C   C14       1.0  0.4447114393492739  0.38763586768668556  0.7900425770924335  1.0000
  C   C15       1.0  0.48893128532802616  0.4854933802068766  0.7156400439933943  1.0000
  H   H1        1.0  0.49565729601626174  0.37012351125186105  0.40902146525872607  1.0000
  H   H2        1.0  0.372962877196887  0.432178651963004  0.41147360036999814  1.0000
  H   H3        1.0  0.265114796160326  0.4898496842171718  0.7733257587181419  1.0000
  H   H4        1.0  0.1392369038976115  0.4955095475985254  0.7548529749758881  1.0000
  H   H5        1.0  0.1529585541299875  0.2942570209265116  0.4040967837729126  1.0000
  H   H6        1.0  0.2786588320323152  0.28610370582485567  0.4226806117185897  1.0000
  H   H7        1.0  0.3550689961707147  0.2802904898252394  0.8070882875745526  1.0000
  H   H8        1.0  0.45985673654692377  0.35357688701108336  0.8879861127809496  1.0000
  H   H9        1.0  0.458833636359307  0.576211859539131  0.690353705992311  1.0000
  H   H10       1.0  0.5322192839552052  0.5110883643457405  0.7787122720195006  1.0000
  C   C16       1.0  0.8260894916430237  0.02431237088765026  0.5602920912700111  1.0000
  C   C17       1.0  0.8103935992406134  0.034162809095506175  0.42695461336105067  1.0000
  C   C18       1.0  0.8024860012129438  0.9220264481410021  0.3591846665823035  1.0000
  C   C19       1.0  0.8104854368975108  0.7989091801909844  0.4265492808755651  1.0000
  C   C20       1.0  0.8261874548487919  0.7871032110405091  0.5599714568504977  1.0000
  C   C21       1.0  0.8338940311546683  0.9003225117477347  0.626021326681433  1.0000
  C   C22       1.0  0.7858818097526299  0.9334926263191756  0.21812969408795935  1.0000
  C   C23       1.0  0.818427712202728  0.8518814947373599  0.1326462120998615  1.0000
  C   C24       1.0  0.8027763911000645  0.862798687306658  0.9998909090530712  1.0000
  C   C25       1.0  0.7544184840784605  0.9552297704804094  0.9508162510289311  1.0000
  C   C26       1.0  0.7217472477700453  0.036823163960188365  0.035016892517921505  1.0000
  C   C27       1.0  0.7373495293602148  0.026148149433386614  0.16779354775124022  1.0000
  C   C28       1.0  0.7383308167227681  0.9663448534444622  0.814132007912149  1.0000
  C   C29       1.0  0.7248575687101944  0.9756536289356732  0.6996609321568648  1.0000
  C   C30       1.0  0.7090805544058971  0.9865540797920126  0.5656164695490209  1.0000
  C   C31       1.0  0.695609567640942  0.9958614416459726  0.45116388192630463  1.0000
  H   H11       1.0  0.8320914318072865  0.34799872799957443  0.6115937834577803  1.0000
  H   H12       1.0  0.8052082023535471  0.12929901073254957  0.3750900002378179  1.0000
  H   H13       1.0  0.8035247326494213  0.7121297507048209  0.3751939455224793  1.0000
  H   H14       1.0  0.8459986640955915  0.8920087626183971  0.7288688182673912  1.0000
  H   H15       1.0  0.8553982504144838  0.5575214229082733  0.8119805805881308  1.0000
  H   H16       1.0  0.8566326090773299  0.780781077754976  0.16817742489646892  1.0000
  H   H17       1.0  0.8285123664184869  0.799381648065913  0.9355057267276266  1.0000
  H   H18       1.0  0.6840894913861164  0.10847742636627467  0.9981113157764572  1.0000
  H   H19       1.0  0.7108118280618361  0.08918996699372528  0.23138262843259616  1.0000
  H   H20       1.0  0.6837809567686811  0.0040340905878122335  0.35066485888264065  1.0000
  C   C32       1.0  0.8261616608603269  0.4055938828941039  0.17878018335580625  1.0000
  C   C33       1.0  0.7587589809872654  0.3577128209549365  0.18216629319704114  1.0000
  C   C34       1.0  0.7245866095933541  0.3335540550295426  0.06673530767185931  1.0000
  C   C35       1.0  0.7587122508090077  0.3579401701113609  0.9468616940498014  1.0000
  C   C36       1.0  0.8261153158522453  0.40582173240223174  0.9414833189672351  1.0000
  C   C37       1.0  0.8594632898748924  0.4293775786818015  0.05796549188540068  1.0000
  C   C38       1.0  0.6532803606655807  0.2828914717822417  0.07137230361165692  1.0000
  C   C39       1.0  0.6040489915413626  0.3324724403618169  0.9806117732041275  1.0000
  C   C40       1.0  0.5370321826590778  0.2847769075751787  0.9852392213478511  1.0000
  C   C41       1.0  0.5182726429353689  0.18718159071637164  0.08012253459712704  1.0000
  C   C42       1.0  0.5668252958869159  0.13620845249689073  0.1717518638731832  1.0000
  C   C43       1.0  0.633935680584784  0.18454185489131825  0.16667199593114512  1.0000
  O   O1        1.0  0.5506235420794234  0.037926843966376245  0.26874919352897897  1.0000
  C   C44       1.0  0.4846885833408919  0.9798669338259611  0.2853579524403802  1.0000
  H   H21       1.0  0.8518541133818289  0.42378013626366107  0.5049474373074774  1.0000
  H   H22       1.0  0.7323332438271385  0.34077092392438635  0.2746697332171866  1.0000
  H   H23       1.0  0.732927182937271  0.3378205565765591  0.8577525976924045  1.0000
  H   H24       1.0  0.9114619135492219  0.46631495953704616  0.05458485707495142  1.0000
  H   H25       1.0  0.8517849338858039  0.4241282125518213  0.6119766425926425  1.0000
  H   H26       1.0  0.6171391330293516  0.40930300214313053  0.907152213415301  1.0000
  H   H27       1.0  0.4994326912586445  0.32387035873184544  0.9151969976482199  1.0000
  H   H28       1.0  0.46601655280913085  0.1521101550952748  0.08139937786698681  1.0000
  H   H29       1.0  0.6712317666122126  0.14370384654202129  0.23654370291950588  1.0000
  H   H30       1.0  0.4705062718009286  0.9316692863243909  0.19663533258660726  1.0000
  H   H31       1.0  0.48644634914697393  0.9053524586449949  0.369046500691945  1.0000
  H   H32       1.0  0.4455249210902544  0.05485520691522594  0.30592859565962427  1.0000
  Zn  Zn1       1.0  0.7507745662626375  0.4071021314005969  0.5607585156644153  1.0000
  Zn  Zn2       1.0  0.9014958018151185  0.4043129606325835  0.5595044629535648  1.0000
  C   C45       1.0  0.8261218573485508  0.40060456997595617  0.7973182974240023  1.0000
  C   C46       1.0  0.8261501568031383  0.4108121303925847  0.32294479427151845  1.0000
  C   C47       1.0  0.8261657178546472  0.642918035473623  0.5548571343519781  1.0000
  C   C48       1.0  0.8261062446617933  0.1684971054358777  0.5654060276629189  1.0000
  O   O2        1.0  0.8833442186105517  0.4114992799423327  0.3708518505685574  1.0000
  O   O3        1.0  0.8833217257703583  0.3977995244352033  0.7484590707190821  1.0000
  O   O4        1.0  0.8833563725462645  0.5934707269687112  0.5526699719332984  1.0000
  O   O5        1.0  0.8833095204108102  0.2158280876224834  0.5666408524081177  1.0000
  O   O6        1.0  0.7689607962331859  0.5955870053639158  0.5536221266309782  1.0000
  O   O7        1.0  0.7689261496587684  0.39991736324266713  0.7494111555185008  1.0000
  O   O8        1.0  0.7689486426338134  0.4136170730228568  0.3718023740569196  1.0000
  O   O9        1.0  0.7689139444241471  0.21794587144256816  0.5675914732638185  1.0000
