data_image0
_chemical_formula_structural       NC10NC5H10C12NH11C12NCOH11Zn2C4O8
_chemical_formula_sum              "N4 C44 H32 O9 Zn2"
_cell_length_a       19.4436361288709
_cell_length_b       10.299770795358612
_cell_length_c       10.299148425239203
_cell_angle_alpha    85.53227456119625
_cell_angle_beta     89.68967150439464
_cell_angle_gamma    89.43566516156574

_space_group_name_H-M_alt    "P 1"
_space_group_IT_number       1

loop_
  _space_group_symop_operation_xyz
  'x, y, z'

loop_
  _atom_site_type_symbol
  _atom_site_label
  _atom_site_symmetry_multiplicity
  _atom_site_fract_x
  _atom_site_fract_y
  _atom_site_fract_z
  _atom_site_occupancy
  N   N1        1.0  0.6480686654325171  0.40989804458653056  0.5618989487490194  1.0000
  C   C1        1.0  0.5892332216060937  0.41979132514882567  0.5762833856379856  1.0000
  C   C2        1.0  0.5159045466220069  0.43212954044158414  0.594276283078389  1.0000
  C   C3        1.0  0.4737228818584775  0.40018907663213743  0.4995974467512181  1.0000
  C   C4        1.0  0.3978194629891027  0.41062411304963087  0.5049252773488904  1.0000
  C   C5        1.0  0.3580678711493201  0.3858129003929398  0.6120072502128906  1.0000
  C   C6        1.0  0.281948962158745  0.3897371745135698  0.5990466593845507  1.0000
  C   C7        1.0  0.2413878642524781  0.44734234993840616  0.6928207893570146  1.0000
  C   C8        1.0  0.1697258717444786  0.4509863277583894  0.6822758748438451  1.0000
  C   C9        1.0  0.1376301359779268  0.39662895219018823  0.5782434028984449  1.0000
  C   C10       1.0  0.0638389207251266  0.4003342648756332  0.5675431909824236  1.0000
  N   N2        1.0  0.0045157886437619  0.4033131417557585  0.5589409300102535  1.0000
  C   C11       1.0  0.177466200321668  0.338316465060563  0.48485258019828614  1.0000
  C   C12       1.0  0.24914463307214282  0.33461841316013907  0.4951457017899832  1.0000
  C   C13       1.0  0.3861839038858869  0.3452746851834714  0.7431141877862657  1.0000
  C   C14       1.0  0.444850615996967  0.3883681307185425  0.7903575603255502  1.0000
  C   C15       1.0  0.4890794581784247  0.4862695829830004  0.7159785305199422  1.0000
  H   H1        1.0  0.49582441300582747  0.3711258505692754  0.40928566702290525  1.0000
  H   H2        1.0  0.37313197963541667  0.43317387191489876  0.41175856872598926  1.0000
  H   H3        1.0  0.2652587985068039  0.4905848499492953  0.7736724960491794  1.0000
  H   H4        1.0  0.1393824883821071  0.49625724179321606  0.7551993981130942  1.0000
  H   H5        1.0  0.15312338816474763  0.2952694221913137  0.4043353694386962  1.0000
  H   H6        1.0  0.2788219884464748  0.2871037169780055  0.4229187019040266  1.0000
  H   H7        1.0  0.3552031430942575  0.2810200641473919  0.8073698622418293  1.0000
  H   H8        1.0  0.4599873830506167  0.35424307542139255  0.8883014254216584  1.0000
  H   H9        1.0  0.45898687524905335  0.5769980037205944  0.690719141229583  1.0000
  H   H10       1.0  0.5323636250744713  0.5118178883983564  0.7790666539003508  1.0000
  C   C16       1.0  0.8262331846949751  0.025238132488618392  0.5604600489100309  1.0000
  C   C17       1.0  0.8062884029378385  0.03483710682486674  0.42920585136832257  1.0000
  C   C18       1.0  0.7962453152612444  0.9225636743372331  0.3626626934612629  1.0000
  C   C19       1.0  0.8064143011648457  0.7995531964211253  0.42913624890270596  1.0000
  C   C20       1.0  0.826357838185131  0.7879629530349799  0.5603910073601843  1.0000
  C   C21       1.0  0.8361559303333486  0.901362552403223  0.6253177704389197  1.0000
  C   C22       1.0  0.7751451948852967  0.9337722316608849  0.2238033680977798  1.0000
  C   C23       1.0  0.7250699413435826  0.025894201854284482  0.17902855659147798  1.0000
  C   C24       1.0  0.7052399992744782  0.03631392634137143  0.04833285387547903  1.0000
  C   C25       1.0  0.735109997344564  0.9550389326850046  0.9603347910595654  1.0000
  C   C26       1.0  0.7850203271028945  0.8631184653105142  0.004220349308509341  1.0000
  C   C27       1.0  0.804905370111428  0.852441709735704  0.13488561963205759  1.0000
  N   N3        1.0  0.7147972306508804  0.9658288865211974  0.8266583782499795  1.0000
  H   H11       1.0  0.8338038166533377  0.3490332703765049  0.610491359609997  1.0000
  H   H12       1.0  0.7994292534412835  0.12989072026820336  0.3779068937968286  1.0000
  H   H13       1.0  0.7978285519145256  0.7127040643054915  0.3787917892801831  1.0000
  H   H14       1.0  0.8515419032014434  0.893189351945997  0.7265745755279156  1.0000
  H   H15       1.0  0.8339871551367164  0.4560935459554702  0.6103902074054051  1.0000
  H   H16       1.0  0.7005946218484778  0.08872960492414683  0.2454395824429263  1.0000
  H   H17       1.0  0.6664675823348493  0.1075252004066507  0.015740705618236595  1.0000
  H   H18       1.0  0.8086451448601125  0.7999535091991481  0.9371270594234704  1.0000
  H   H19       1.0  0.8442052507616035  0.7817315684199752  0.16603374621017641  1.0000
  H   H20       1.0  0.7367711175511767  0.9056554480173951  0.7603317268135661  1.0000
  H   H21       1.0  0.677634799849257  0.03407082920252669  0.7930296292105328  1.0000
  C   C28       1.0  0.8263472713011142  0.4067554215672289  0.17902889564053193  1.0000
  C   C29       1.0  0.8961353443258208  0.4410250437887535  0.17447716083310305  1.0000
  C   C30       1.0  0.931410072592899  0.4581882750200903  0.055038124941075184  1.0000
  C   C31       1.0  0.8959902964771302  0.440687573283157  0.939221239824966  1.0000
  C   C32       1.0  0.8262437479636784  0.40644565759146745  0.9418221713506738  1.0000
  C   C33       1.0  0.7918314166266687  0.38967136270414127  0.062228399762518816  1.0000
  C   C34       1.0  0.005195915159824649  0.49441792578633836  0.05131594503139536  1.0000
  C   C35       1.0  0.051403043237146395  0.4361934284304325  0.9673395663101547  1.0000
  C   C36       1.0  0.12080222701271892  0.47042468429655626  0.9639863776519668  1.0000
  C   C37       1.0  0.145618967225152  0.5622390872568024  0.04528120085021481  1.0000
  C   C38       1.0  0.09934388354834978  0.6223110534548888  0.12768958234272554  1.0000
  C   C39       1.0  0.029913634899752628  0.5881870399076956  0.13113986053051652  1.0000
  N   N4        1.0  0.21705411594059787  0.5971263450259319  0.03814977216575688  1.0000
  C   C40       1.0  0.2566220922585365  0.6330683716968575  0.14654824861137583  1.0000
  O   O1        1.0  0.23334782216408212  0.619335805319446  0.2611028276575871  1.0000
  H   H22       1.0  0.6947350244060537  0.34130729532120174  0.39497210198426314  1.0000
  H   H23       1.0  0.923425519352597  0.45271629616740494  0.2641760114463685  1.0000
  H   H24       1.0  0.9226785806876522  0.4555862054169184  0.8467654985969508  1.0000
  H   H25       1.0  0.7380349641651874  0.36325616701218566  0.06494965247640017  1.0000
  H   H26       1.0  0.7994193635653463  0.39323896264462155  0.6153494081658164  1.0000
  H   H27       1.0  0.03405054747590808  0.363004304419021  0.9053172710172479  1.0000
  H   H28       1.0  0.15554714073323295  0.4242449284055154  0.8987471916619101  1.0000
  H   H29       1.0  0.11630643178294409  0.6976719164839087  0.1873083121046959  1.0000
  H   H30       1.0  0.9952503139678291  0.637031538657465  0.19448555780442955  1.0000
  H   H31       1.0  0.24350539674382898  0.587698385237188  0.9507479890012185  1.0000
  H   H32       1.0  0.3082712065767268  0.6691539482199194  0.1302924674713195  1.0000
  Zn  Zn1       1.0  0.7509316051897144  0.40799430946478843  0.5610528414374327  1.0000
  Zn  Zn2       1.0  0.9016528372184381  0.40520626489874134  0.5597977202381765  1.0000
  C   C41       1.0  0.826260942111928  0.4013305782122827  0.797638419413859  1.0000
  C   C42       1.0  0.8263251464179049  0.4118716042671835  0.3232122558833648  1.0000
  C   C43       1.0  0.8263314422107586  0.6437938865436965  0.5552285776877626  1.0000
  C   C44       1.0  0.8262545946240434  0.16940673656264393  0.5656221674225528  1.0000
  O   O2        1.0  0.8835156422435888  0.4125249278165217  0.371125197270626  1.0000
  O   O3        1.0  0.8834643738347432  0.398560213781499  0.7487724962932834  1.0000
  O   O4        1.0  0.8835205323175295  0.5943524153407376  0.5530248403084699  1.0000
  O   O5        1.0  0.8834594323445892  0.21673273653838487  0.5668727563011358  1.0000
  O   O6        1.0  0.769124958629805  0.5964678387779847  0.5539778057959526  1.0000
  O   O7        1.0  0.7690688004082913  0.40067719754471076  0.7497253923891545  1.0000
  O   O8        1.0  0.7691200690673895  0.4146418669572247  0.372076531855944  1.0000
  O   O9        1.0  0.769063859150845  0.21884966635082526  0.567824188262237  1.0000
