data_image0
_chemical_formula_structural       NC8NC6H8C12ClH9C15H12Zn2C4O8
_chemical_formula_sum              "N2 C45 H29 Cl1 Zn2 O8"
_cell_length_a       17.457602349358154
_cell_length_b       10.299768534541528
_cell_length_c       10.299157797200024
_cell_angle_alpha    85.54593967103355
_cell_angle_beta     92.8989280324144
_cell_angle_gamma    91.70638861519478

_space_group_name_H-M_alt    "P 1"
_space_group_IT_number       1

loop_
  _space_group_symop_operation_xyz
  'x, y, z'

loop_
  _atom_site_type_symbol
  _atom_site_label
  _atom_site_symmetry_multiplicity
  _atom_site_fract_x
  _atom_site_fract_y
  _atom_site_fract_z
  _atom_site_occupancy
  N   N1        1.0  0.7223803053893793  0.4531939273034291  0.6264470332393646  1.0000
  C   C1        1.0  0.6612911831079141  0.4072719030675349  0.6158288094799083  1.0000
  C   C2        1.0  0.5852937352662398  0.3501506166766817  0.602629282057316  1.0000
  C   C3        1.0  0.5267901942414576  0.39029192660476353  0.6775344399402066  1.0000
  C   C4        1.0  0.452231374351562  0.33528872192912496  0.6649494759306549  1.0000
  C   C5        1.0  0.390138393852148  0.37767196864254715  0.7442768744455752  1.0000
  C   C6        1.0  0.3155822289702203  0.3961553301210303  0.6885095267637757  1.0000
  C   C7        1.0  0.2570786753830691  0.43611268664887004  0.7635226404573221  1.0000
  C   C8        1.0  0.1810839534383708  0.4552024964157746  0.705539674754672  1.0000
  N   N2        1.0  0.11999711232692832  0.47054432377486366  0.6589215211614685  1.0000
  C   C9        1.0  0.2726392887033278  0.4578296838890019  0.8948116691552921  1.0000
  C   C10       1.0  0.3464109137740876  0.4397352015085081  0.9509666601394489  1.0000
  C   C11       1.0  0.40490300335395285  0.39995777419360334  0.876411311125084  1.0000
  C   C12       1.0  0.4374642786059093  0.23946718033013603  0.5760262945082426  1.0000
  C   C13       1.0  0.4959562476477901  0.19960444021986734  0.5015211821835823  1.0000
  C   C14       1.0  0.5697304514600057  0.254719870909337  0.5146561443791546  1.0000
  H   H1        1.0  0.5391640407926086  0.46546770888021305  0.744173217011044  1.0000
  H   H2        1.0  0.30321059332996975  0.38121276569850004  0.586476280326752  1.0000
  H   H3        1.0  0.2277978980343831  0.4886963186553257  0.9536533566716205  1.0000
  H   H4        1.0  0.358269046876113  0.456235516557411  0.052626671666757385  1.0000
  H   H5        1.0  0.4613965262308307  0.3849535915413944  0.9225209468144555  1.0000
  H   H6        1.0  0.3809685378051236  0.19413482992140518  0.5653719720435084  1.0000
  H   H7        1.0  0.4840961432477188  0.12554543603451562  0.4336840271597273  1.0000
  H   H8        1.0  0.6145718402331655  0.22298340591205368  0.4563255919361262  1.0000
  C   C15       1.0  0.9211200128154098  0.080500718715389  0.6426765449977407  1.0000
  C   C16       1.0  0.9261413498906459  0.09032474626037734  0.506609777412079  1.0000
  C   C17       1.0  0.9287594617103957  0.9781665084105524  0.43767707764860364  1.0000
  C   C18       1.0  0.9262878873126866  0.8550434186483146  0.5066372363935017  1.0000
  C   C19       1.0  0.9212647453320096  0.8432277833249746  0.6427037945141387  1.0000
  C   C20       1.0  0.9187095029733361  0.956515019338375  0.7099615213344763  1.0000
  C   C21       1.0  0.9340726378519405  0.9896132229043598  0.29372986393877487  1.0000
  C   C22       1.0  0.8904077034399048  0.0812693425296942  0.21569548583489606  1.0000
  C   C23       1.0  0.8954769773240179  0.09185050221216362  0.08022184599543247  1.0000
  C   C24       1.0  0.944136700915804  0.011294913056009381  0.02108454452650821  1.0000
  C   C25       1.0  0.9877887105046695  0.9199509081728725  0.09760655849143718  1.0000
  C   C26       1.0  0.982855688066957  0.908983438494602  0.23310597048607162  1.0000
  Cl  Cl1       1.0  0.9504113709533135  0.024812864788430478  0.8511020877172846  1.0000
  H   H9        1.0  0.9191672692913208  0.404209314046158  0.6945182129947725  1.0000
  H   H10       1.0  0.9290870482998257  0.18548080734613004  0.4541147001756036  1.0000
  H   H11       1.0  0.927231309814385  0.7682660145200798  0.45376505993323724  1.0000
  H   H12       1.0  0.9148349955520848  0.9481680116930228  0.814930705528178  1.0000
  H   H13       1.0  0.9193812421420896  0.5112730589318353  0.694558919000333  1.0000
  H   H14       1.0  0.8516266444533629  0.14353958336323158  0.2592743166429383  1.0000
  H   H15       1.0  0.8613995108823677  0.16249354567823815  0.021323616098908982  1.0000
  H   H16       1.0  0.025713740607421487  0.8575971841942885  0.05226823703178285  1.0000
  H   H17       1.0  0.017906380125006782  0.8386766010973119  0.29058929427267266  1.0000
  C   C27       1.0  0.9211034408772263  0.46196664126057874  0.26129090377223196  1.0000
  C   C28       1.0  0.84118728062861  0.44050023489265544  0.25493872128177464  1.0000
  C   C29       1.0  0.8008316846897217  0.4295143177524141  0.13458906840675589  1.0000
  C   C30       1.0  0.8414151997314212  0.44030145058511705  0.01969003721447682  1.0000
  C   C31       1.0  0.9212812820455485  0.46176187707604077  0.024089446394408354  1.0000
  C   C32       1.0  0.9606590348463887  0.47246339537238313  0.14538207530148628  1.0000
  C   C33       1.0  0.7163424075435901  0.40682487497698405  0.12891968761035666  1.0000
  C   C34       1.0  0.6818036871209163  0.3183395746429092  0.04499000555615207  1.0000
  C   C35       1.0  0.6022957551811909  0.29708090709873813  0.039687143146593495  1.0000
  C   C36       1.0  0.5559102912241201  0.36323667132417503  0.11873017821869358  1.0000
  C   C37       1.0  0.5900385741500955  0.45254960066510486  0.20164964052410328  1.0000
  C   C38       1.0  0.6695457333181398  0.4738124328038775  0.20710039063169816  1.0000
  C   C39       1.0  0.47025821184483374  0.3426841727102936  0.11067143157881354  1.0000
  C   C40       1.0  0.43577113490912417  0.434945813616608  0.010445771864500353  1.0000
  C   C41       1.0  0.4074279064899041  0.5108131736301007  0.9280337648916048  1.0000
  H   H18       1.0  0.0720018924132797  0.5016913170845434  0.4806399330445019  1.0000
  H   H19       1.0  0.8103257925699608  0.4305287919626142  0.3439557349740823  1.0000
  H   H20       1.0  0.8104439461693631  0.4337120115151991  0.9265281165703589  1.0000
  H   H21       1.0  0.02226216055485164  0.48901269058528696  0.1494912064250864  1.0000
  H   H22       1.0  0.952003596747899  0.46997497710070046  0.6983094980717564  1.0000
  H   H23       1.0  0.716370755583967  0.26448288360727035  0.9844399790602996  1.0000
  H   H24       1.0  0.5768816618162048  0.22881690034289082  0.9740510080906608  1.0000
  H   H25       1.0  0.5550233998990721  0.5060775626581648  0.2618180634066809  1.0000
  H   H26       1.0  0.6943344514689358  0.5441563578328545  0.27104425139420196  1.0000
  H   H27       1.0  0.4549269175112829  0.2417759659989045  0.08597199326585359  1.0000
  H   H28       1.0  0.4458387135378339  0.3570633891232693  0.20589865308643884  1.0000
  H   H29       1.0  0.3825664808953523  0.5774231368531588  0.8556852880240102  1.0000
  Zn  Zn1       1.0  0.837123927995865  0.4581973922240117  0.6358259679072364  1.0000
  Zn  Zn2       1.0  0.0052534759296150035  0.46553020819066915  0.6495532194868354  1.0000
  C   C42       1.0  0.9212449940068588  0.4566268554678463  0.8799038909077788  1.0000
  C   C43       1.0  0.9211342462287032  0.4671024636047376  0.4054755739226952  1.0000
  C   C44       1.0  0.9212322254597798  0.699057384345225  0.637522773865804  1.0000
  C   C45       1.0  0.9211469571250038  0.22467037190552785  0.6478567554688264  1.0000
  O   O1        1.0  0.9849488709373715  0.4716031922078805  0.4590746865999522  1.0000
  O   O2        1.0  0.9850368056539023  0.4576905848923811  0.836723070641588  1.0000
  O   O3        1.0  0.9850256350932505  0.6534562650378741  0.6409985335654036  1.0000
  O   O4        1.0  0.9849599841058532  0.2758375188765445  0.6547991216098645  1.0000
  O   O5        1.0  0.8574173624452623  0.6478900790372215  0.6305800610929382  1.0000
  O   O6        1.0  0.8574285332823282  0.452125959212645  0.8263045289736968  1.0000
  O   O7        1.0  0.8573405982441231  0.4660385216935654  0.4486545834095661  1.0000
  O   O8        1.0  0.8573517114304107  0.2702728390471576  0.6443791157944816  1.0000
