data_image0
_chemical_formula_structural       NC10NC5H10C12NH11C13NH9Zn2C4O8
_chemical_formula_sum              "N4 C44 H30 Zn2 O8"
_cell_length_a       19.4436361288709
_cell_length_b       10.299770795358612
_cell_length_c       10.298528502251457
_cell_angle_alpha    85.53666946162151
_cell_angle_beta     89.70161212865115
_cell_angle_gamma    89.43566516156574

_space_group_name_H-M_alt    "P 1"
_space_group_IT_number       1

loop_
  _space_group_symop_operation_xyz
  'x, y, z'

loop_
  _atom_site_type_symbol
  _atom_site_label
  _atom_site_symmetry_multiplicity
  _atom_site_fract_x
  _atom_site_fract_y
  _atom_site_fract_z
  _atom_site_occupancy
  N   N1        1.0  0.6479104511731275  0.4097902409287384  0.5618223631057715  1.0000
  C   C1        1.0  0.5890765898662546  0.41968459978446093  0.5762075660336412  1.0000
  C   C2        1.0  0.5157498943904508  0.43202416386989073  0.5942014216804394  1.0000
  C   C3        1.0  0.47355781343123327  0.4000766026976663  0.49951754326003317  1.0000
  C   C4        1.0  0.39765498070896643  0.41051203850268947  0.5048456575897378  1.0000
  C   C5        1.0  0.3579151696094983  0.38570885297896607  0.6119333330723162  1.0000
  C   C6        1.0  0.2817948347453537  0.3896321555412361  0.5989720520315709  1.0000
  C   C7        1.0  0.24124405350251632  0.4472443605097951  0.6927511759174025  1.0000
  C   C8        1.0  0.16958090088421832  0.45088754785656704  0.6822056998379507  1.0000
  C   C9        1.0  0.1374737198715295  0.3965223737536281  0.5781676876742359  1.0000
  C   C10       1.0  0.0636813274232173  0.40022688432438036  0.5674669059216149  1.0000
  N   N2        1.0  0.004357248954707101  0.40320511635747036  0.5588641868385984  1.0000
  C   C11       1.0  0.1772995097218098  0.33820288581395386  0.4847718914736241  1.0000
  C   C12       1.0  0.2489790748813096  0.33450560551171216  0.49506556122244616  1.0000
  C   C13       1.0  0.3860456262191377  0.3451804658740103  0.7430472527066105  1.0000
  C   C14       1.0  0.44471753586149765  0.38827745289064963  0.7902931411776317  1.0000
  C   C15       1.0  0.4889381951526748  0.48617332951668524  0.7159101503389396  1.0000
  H   H1        1.0  0.4956494088294009  0.3710066066375306  0.4092009540047845  1.0000
  H   H2        1.0  0.3729572475179746  0.4330548133580612  0.4116739874015116  1.0000
  H   H3        1.0  0.2651238827457468  0.4904929213671816  0.7736071883431315  1.0000
  H   H4        1.0  0.1392455402829845  0.4961639284213992  0.7551331066277165  1.0000
  H   H5        1.0  0.1529478393759205  0.2951498071728593  0.40425039279395136  1.0000
  H   H6        1.0  0.2786484841232855  0.2869854950127111  0.42283471490911806  1.0000
  H   H7        1.0  0.3550719345857825  0.2809306616042728  0.8073063490789838  1.0000
  H   H8        1.0  0.4598650783165452  0.3541597397110141  0.8882422222451096  1.0000
  H   H9        1.0  0.4588428332839752  0.5768998567471737  0.6906494158673258  1.0000
  H   H10       1.0  0.5322293027575875  0.5117263641758301  0.7790016334585725  1.0000
  C   C16       1.0  0.8260748121334467  0.02513022096728923  0.5603833866386005  1.0000
  C   C17       1.0  0.8061155903022709  0.034719356160048065  0.4291221991936873  1.0000
  C   C18       1.0  0.7960651818074097  0.9224409354305817  0.36257549755056795  1.0000
  C   C19       1.0  0.8062414808718867  0.7994354405387315  0.4290525930214113  1.0000
  C   C20       1.0  0.8261994580279208  0.787855036338123  0.5603143414119667  1.0000
  C   C21       1.0  0.8360046931649612  0.901259502779193  0.625244562146136  1.0000
  C   C22       1.0  0.7749497846709713  0.9336390835113089  0.22370877727506167  1.0000
  C   C23       1.0  0.7248696051794182  0.025757697272660085  0.17893158129950604  1.0000
  C   C24       1.0  0.7050252844796936  0.03616762448242872  0.04822891842277777  1.0000
  C   C25       1.0  0.7348856013466928  0.9548860342708048  0.9602261692962335  1.0000
  C   C26       1.0  0.784800759222693  0.8629688566677108  0.004114064657513072  1.0000
  C   C27       1.0  0.804700177513794  0.85230189608893  0.13478629352112326  1.0000
  N   N3        1.0  0.7145581280963091  0.9656659673881833  0.8265426375890881  1.0000
  H   H11       1.0  0.8336509483411536  0.3489291093275735  0.6104173617411197  1.0000
  H   H12       1.0  0.799250797094815  0.12976912410500163  0.3778205097114835  1.0000
  H   H13       1.0  0.7976501929208011  0.7125825344762723  0.37870545231968356  1.0000
  H   H14       1.0  0.8514018059111692  0.8930938927857632  0.7265067596361348  1.0000
  H   H15       1.0  0.8338342756961622  0.4559893773239159  0.6103162041496972  1.0000
  H   H16       1.0  0.7004015919659277  0.08859807867940495  0.2453461438503608  1.0000
  H   H17       1.0  0.6662492818792419  0.1073764553586194  0.015635034480384835  1.0000
  H   H18       1.0  0.808418195638273  0.7997988710752406  0.9370172017393013  1.0000
  H   H19       1.0  0.8440034849591681  0.7815940897148075  0.16593607888344786  1.0000
  H   H20       1.0  0.7365247179975348  0.9054875568724153  0.760212453946604  1.0000
  H   H21       1.0  0.6773919975910948  0.033905389174231804  0.7929120976606256  1.0000
  C   C28       1.0  0.8261469351742509  0.4066189170110204  0.17893192036661598  1.0000
  C   C29       1.0  0.7546470533031456  0.42780174086691525  0.17703342856169701  1.0000
  C   C30       1.0  0.7184245590487315  0.43839488622313727  0.058924910623442184  1.0000
  C   C31       1.0  0.7546264786560894  0.4275372620603046  0.9417739192920092  1.0000
  C   C32       1.0  0.8261273413432298  0.40636629970727345  0.9417658249562515  1.0000
  C   C33       1.0  0.8614297267228573  0.39603993311301866  0.06081544736521427  1.0000
  C   C34       1.0  0.6428348019088224  0.46078366864801823  0.05792549518965329  1.0000
  C   C35       1.0  0.6124820955047824  0.5492753004671547  0.13908560432846762  1.0000
  C   C36       1.0  0.5413295269674612  0.5703028183097809  0.13802537971015094  1.0000
  C   C37       1.0  0.49958291876535954  0.503215636679418  0.0560288252783534  1.0000
  C   C38       1.0  0.5292568351693974  0.4149728789744227  0.9749783355835095  1.0000
  C   C39       1.0  0.6004020465498023  0.3938511325992069  0.9758020194332988  1.0000
  C   C40       1.0  0.4263312834024483  0.5249141826904249  0.05505798262340145  1.0000
  N   N4        1.0  0.3674419080566971  0.5423584735027702  0.05427752560965571  1.0000
  H   H22       1.0  0.9611965649715234  0.3657843961250198  0.38990720505907683  1.0000
  H   H23       1.0  0.7268712132966758  0.43432269483369934  0.2677790263894433  1.0000
  H   H24       1.0  0.7271098981886251  0.43739280991691953  0.8502974804690644  1.0000
  H   H25       1.0  0.9165360685356041  0.37971863407682416  0.061543772201716695  1.0000
  H   H26       1.0  0.9613043278012944  0.36717220546516494  0.7343619659530876  1.0000
  H   H27       1.0  0.6438637589148797  0.6034637234104892  0.20212331238360948  1.0000
  H   H28       1.0  0.5189186784620919  0.6391070259086324  0.2009123158989219  1.0000
  H   H29       1.0  0.49740003350337664  0.36224339261758676  0.9113727127556812  1.0000
  H   H30       1.0  0.6221374108947645  0.3239292184099174  0.913467569808676  1.0000
  Zn  Zn1       1.0  0.7507732978449039  0.4078864423806725  0.5609762107349914  1.0000
  Zn  Zn2       1.0  0.9014943917900967  0.4050983037275955  0.5597210226946296  1.0000
  C   C41       1.0  0.8261286629881309  0.40124044617582877  0.797574388005923  1.0000
  C   C42       1.0  0.8261406727810501  0.41174590805689304  0.323122959051364  1.0000
  C   C43       1.0  0.8261724941032043  0.6436855828581778  0.55515163681589  1.0000
  C   C44       1.0  0.8260967899786267  0.16929921200665143  0.5655457800582064  1.0000
  O   O1        1.0  0.8833364398013627  0.4124028232803578  0.3710384520280514  1.0000
  O   O2        1.0  0.8833267186729906  0.39846641863301957  0.7487058625451628  1.0000
  O   O3        1.0  0.8833613417633982  0.5942439464575433  0.5529477820772195  1.0000
  O   O4        1.0  0.8833017652840751  0.2166253057296681  0.5667964355365278  1.0000
  O   O5        1.0  0.7689658729172136  0.5963594413314712  0.5539007983145956  1.0000
  O   O6        1.0  0.7689312500804443  0.40058347382771076  0.7496588093872316  1.0000
  O   O7        1.0  0.7689409712872777  0.41451983373548495  0.37198983727640966  1.0000
  O   O8        1.0  0.7689062967631584  0.2187423068638319  0.5677479181658551  1.0000
