data_image0
_chemical_formula_structural       NC8NC6H8C12NH11C12BrH9Zn2C4O8
_chemical_formula_sum              "N3 C42 H28 Br1 Zn2 O8"
_cell_length_a       17.457602349358154
_cell_length_b       10.299770795358612
_cell_length_c       10.299148005577397
_cell_angle_alpha    85.54782545814984
_cell_angle_beta     92.84953389996222
_cell_angle_gamma    91.70596819880058

_space_group_name_H-M_alt    "P 1"
_space_group_IT_number       1

loop_
  _space_group_symop_operation_xyz
  'x, y, z'

loop_
  _atom_site_type_symbol
  _atom_site_label
  _atom_site_symmetry_multiplicity
  _atom_site_fract_x
  _atom_site_fract_y
  _atom_site_fract_z
  _atom_site_occupancy
  N   N1        1.0  0.723066455275824  0.4530406496926782  0.6263579286243608  1.0000
  C   C1        1.0  0.6619830607777728  0.40711698681778086  0.6157453027727824  1.0000
  C   C2        1.0  0.5859927334144177  0.349993663150415  0.6025527380278921  1.0000
  C   C3        1.0  0.5274508893251482  0.3901442796683545  0.6774496231536065  1.0000
  C   C4        1.0  0.4528988623997545  0.3351391282724516  0.6648713571992262  1.0000
  C   C5        1.0  0.3907653184525547  0.3775322300014414  0.7441900086213549  1.0000
  C   C6        1.0  0.3162373120316089  0.3960090466404429  0.688423499844665  1.0000
  C   C7        1.0  0.2576954019680605  0.4359757212515396  0.7634283554549846  1.0000
  C   C8        1.0  0.1817299581581941  0.4550587251394409  0.7054462760537628  1.0000
  N   N2        1.0  0.12066665663789941  0.4703950805392645  0.6588288357408589  1.0000
  C   C9        1.0  0.2731892405117826  0.45770864436687275  0.8947082342456751  1.0000
  C   C10       1.0  0.3469325075563054  0.43962075642658904  0.9508623235878082  1.0000
  C   C11       1.0  0.4054627200171813  0.39983406738433724  0.8763151892915544  1.0000
  C   C12       1.0  0.4381775948101815  0.23930615603483107  0.5759632948576652  1.0000
  C   C13       1.0  0.4967076618759698  0.19943415954790478  0.5014664040477776  1.0000
  C   C14       1.0  0.5704747928322272  0.25455160384326336  0.5145946275200222  1.0000
  H   H1        1.0  0.5397903674357893  0.46532865476350205  0.7440766996400945  1.0000
  H   H2        1.0  0.3039175570759046  0.3810541205460023  0.5863971515461857  1.0000
  H   H3        1.0  0.2283177658382927  0.488582584627792  0.9535434963965856  1.0000
  H   H4        1.0  0.3587389378042722  0.4561334007287754  0.05251528485653878  1.0000
  H   H5        1.0  0.46193295881450175  0.3848352983542995  0.9224241007501401  1.0000
  H   H6        1.0  0.3816875957393082  0.19397216733668254  0.5653145073000618  1.0000
  H   H7        1.0  0.4848825256782057  0.1253664276140143  0.4336408884856593  1.0000
  H   H8        1.0  0.6153460127138367  0.22280788777778526  0.4562705697946057  1.0000
  C   C15       1.0  0.9218006897113463  0.0803464298893517  0.6426275980946616  1.0000
  C   C16       1.0  0.8995693553425514  0.08857083363674545  0.509395083772797  1.0000
  C   C17       1.0  0.8883749417597674  0.9756051232417663  0.4418557690931868  1.0000
  C   C18       1.0  0.8997097973835101  0.8532953603750065  0.5093379970273173  1.0000
  C   C19       1.0  0.9219397432385787  0.8430796041270155  0.6425709485278626  1.0000
  C   C20       1.0  0.9328610744928441  0.9571545955065479  0.7084695674755965  1.0000
  C   C21       1.0  0.8648558161984645  0.985359484886536  0.30090352932825915  1.0000
  C   C22       1.0  0.8090047494344084  0.07410630165012755  0.25115291832719344  1.0000
  C   C23       1.0  0.7869014446811924  0.08315931753738015  0.11849029587500537  1.0000
  C   C24       1.0  0.8202308175636925  0.003867007333971273  0.03346387339073842  1.0000
  C   C25       1.0  0.8758980289107425  0.915310379354344  0.08230886630051981  1.0000
  C   C26       1.0  0.8980627998824446  0.9060040250084791  0.214946534021351  1.0000
  N   N3        1.0  0.7975893110046441  0.013257029351067207  0.8977726435052191  1.0000
  H   H9        1.0  0.9302392245762972  0.40466338270848157  0.6934098309310714  1.0000
  H   H10       1.0  0.8919246010730808  0.18315007929534244  0.45741596071226565  1.0000
  H   H11       1.0  0.8901389858663363  0.765856151387606  0.4581417282029303  1.0000
  H   H12       1.0  0.9500109587492878  0.9500417789171661  0.8112525023792403  1.0000
  H   H13       1.0  0.9304437423699098  0.5117359448761685  0.6933269046570367  1.0000
  H   H14       1.0  0.781695535813008  0.13531558515774744  0.31512917467574986  1.0000
  H   H15       1.0  0.7436566587941786  0.15175782164424456  0.08204540618796807  1.0000
  H   H16       1.0  0.9022586320497392  0.8537142384731587  0.01756583216071128  1.0000
  H   H17       1.0  0.9418961238540309  0.8379416944775867  0.24999987375694532  1.0000
  H   H18       1.0  0.822108285030952  0.954541729026132  0.8336321309913495  1.0000
  H   H19       1.0  0.7561405155014379  0.07899405712797614  0.8604512085804163  1.0000
  C   C27       1.0  0.9219747998721889  0.46176961791477944  0.26121963924251546  1.0000
  C   C28       1.0  0.8498223391792381  0.5194001242574202  0.24988469639488264  1.0000
  C   C29       1.0  0.8131314647352009  0.5485620421221067  0.12699055406856918  1.0000
  C   C30       1.0  0.849566273983182  0.519316142564443  0.014586755832503684  1.0000
  C   C31       1.0  0.9217656254054917  0.46165641609826413  0.023978919236071983  1.0000
  C   C32       1.0  0.9575251634600181  0.4332362214106735  0.14768275890876836  1.0000
  C   C33       1.0  0.7368034179851702  0.6095301185220239  0.1160445133962904  1.0000
  C   C34       1.0  0.7207066966018959  0.7101452772052412  0.19479892133031007  1.0000
  C   C35       1.0  0.6488320598271606  0.7674170529294595  0.18429886248115213  1.0000
  C   C36       1.0  0.592237236250665  0.7250031084514756  0.09531583173248781  1.0000
  C   C37       1.0  0.6075635474050151  0.6251411884299929  0.016645971053620867  1.0000
  C   C38       1.0  0.6793729182725333  0.5676445985919174  0.026748181134819582  1.0000
  Br  Br1       1.0  0.49410166742608863  0.8033903450859574  0.08124376492802576  1.0000
  H   H20       1.0  0.9497434212962641  0.4396558110285662  0.5930523104643872  1.0000
  H   H21       1.0  0.8215164817566415  0.5401108685322424  0.3369105901900984  1.0000
  H   H22       1.0  0.8220184010321147  0.543208691606601  0.9195182858381297  1.0000
  H   H23       1.0  0.013179268487511164  0.3887883604514908  0.1557097318031042  1.0000
  H   H24       1.0  0.058252467358505644  0.35357130045927  0.834374678232058  1.0000
  H   H25       1.0  0.7640016271717607  0.7456521123324684  0.26323928279156417  1.0000
  H   H26       1.0  0.6372607997308627  0.8449783113417826  0.24515141573137522  1.0000
  H   H27       1.0  0.5638151684081694  0.5917665470728877  0.947861384912712  1.0000
  H   H28       1.0  0.6896602957717606  0.48933801031517077  0.9659919322010682  1.0000
  Zn  Zn1       1.0  0.8378052820929118  0.4580452797189227  0.6357358299461926  1.0000
  Zn  Zn2       1.0  0.00592781071390025  0.46537980104071974  0.649461568036177  1.0000
  C   C39       1.0  0.9218025186854126  0.4565040176008528  0.8798013560297224  1.0000
  C   C40       1.0  0.9219324102779798  0.4669227818636261  0.40539631918572194  1.0000
  C   C41       1.0  0.9219109338949135  0.6989073874969054  0.6374060556961245  1.0000
  C   C42       1.0  0.9218239373965524  0.22451784914107575  0.6477916841920535  1.0000
  O   O1        1.0  0.9857198063437055  0.4714299775961057  0.45899217653821034  1.0000
  O   O2        1.0  0.9856162316764038  0.45756257416849966  0.8366226425117091  1.0000
  O   O3        1.0  0.9857029178824644  0.6533063232464185  0.6408866521864012  1.0000
  O   O4        1.0  0.9856330627972104  0.275686235320151  0.6547280648017533  1.0000
  O   O5        1.0  0.8580999726376359  0.6477388429379942  0.6304693284898639  1.0000
  O   O6        1.0  0.8580132867315359  0.45199665418507506  0.8262052494516858  1.0000
  O   O7        1.0  0.858116861869786  0.46586401259037813  0.44857322204103967  1.0000
  O   O8        1.0  0.8580301182917593  0.27012026101096187  0.6443092076755956  1.0000
