data_image0
_chemical_formula_structural       NC11NC3H8C12NH11C12IH9Zn2C4O8
_chemical_formula_sum              "N3 C42 H28 I1 Zn2 O8"
_cell_length_a       17.807433833752565
_cell_length_b       10.299770795358612
_cell_length_c       10.29977335064465
_cell_angle_alpha    85.53972113204546
_cell_angle_beta     88.53399239926371
_cell_angle_gamma    90.70213480944165

_space_group_name_H-M_alt    "P 1"
_space_group_IT_number       1

loop_
  _space_group_symop_operation_xyz
  'x, y, z'

loop_
  _atom_site_type_symbol
  _atom_site_label
  _atom_site_symmetry_multiplicity
  _atom_site_fract_x
  _atom_site_fract_y
  _atom_site_fract_z
  _atom_site_occupancy
  N   N1        1.0  0.7075303625464675  0.43888533283778686  0.534549243761941  1.0000
  C   C1        1.0  0.6567110241081056  0.40414006175470774  0.601113813759627  1.0000
  C   C2        1.0  0.5934866411682558  0.3609198093647643  0.6839116443972364  1.0000
  C   C3        1.0  0.6052140981035903  0.2973354043925027  0.806634117650918  1.0000
  C   C4        1.0  0.5438971908924032  0.25579556373914514  0.8871479022193778  1.0000
  C   C5        1.0  0.470698484197679  0.27752668097881417  0.8455800288019857  1.0000
  C   C6        1.0  0.4579942177182952  0.34126576554076204  0.7223973502957746  1.0000
  C   C7        1.0  0.3802272647222858  0.36432777673533545  0.6780487436536105  1.0000
  C   C8        1.0  0.3614283331151689  0.34749157515930884  0.5484711336928467  1.0000
  C   C9        1.0  0.28819967278029684  0.36918397664588176  0.5068591924473722  1.0000
  C   C10       1.0  0.23282684909318524  0.4080313355361318  0.5940045689128657  1.0000
  C   C11       1.0  0.15746145544833332  0.43038258105286364  0.5510312924175176  1.0000
  N   N2        1.0  0.096873052401252  0.4483513219520854  0.5164839057046302  1.0000
  C   C12       1.0  0.2509342042860588  0.42507826190491493  0.7230510327051516  1.0000
  C   C13       1.0  0.3241101209752572  0.4033508593766799  0.7649184035410506  1.0000
  C   C14       1.0  0.5201684375615441  0.3828010366957315  0.6418999817670268  1.0000
  H   H1        1.0  0.6616799516654196  0.27991164484778763  0.8400007680090527  1.0000
  H   H2        1.0  0.5530954650497636  0.20631693198717294  0.9818871959025193  1.0000
  H   H3        1.0  0.424059082341179  0.24295300584363866  0.9090213329982884  1.0000
  H   H4        1.0  0.4030944862872067  0.31586886693822436  0.47975797899559947  1.0000
  H   H5        1.0  0.2747461853245801  0.3553310749811629  0.40682686756383424  1.0000
  H   H6        1.0  0.208551000009332  0.45547808743351936  0.791249526508466  1.0000
  H   H7        1.0  0.3370354348389026  0.41874921993511194  0.8647678467563242  1.0000
  H   H8        1.0  0.5116689066961119  0.4336419548512931  0.5473948877863728  1.0000
  C   C15       1.0  0.9021372231087064  0.06224820767691197  0.5255591356603415  1.0000
  C   C16       1.0  0.8803199752209986  0.07093114451346061  0.395161051525456  1.0000
  C   C17       1.0  0.8693339081505741  0.9581963847930915  0.32904902192751306  1.0000
  C   C18       1.0  0.8804574756650609  0.8356528939819088  0.39508611870152355  1.0000
  C   C19       1.0  0.9022733640757393  0.8249786321198083  0.5254848164630739  1.0000
  C   C20       1.0  0.9129914338284566  0.9388283058392718  0.5899909678021733  1.0000
  C   C21       1.0  0.8462528550767536  0.9684358411687449  0.1910954020968103  1.0000
  C   C22       1.0  0.79154534897221  0.05829675124282163  0.14844665573727234  1.0000
  C   C23       1.0  0.7698536744584339  0.06780568576851365  0.018602153219430706  1.0000
  C   C24       1.0  0.8024590523558335  0.9878637781718647  0.9293453032397161  1.0000
  C   C25       1.0  0.8569861986895407  0.8981968229236815  0.9711118594645982  1.0000
  C   C26       1.0  0.8787380520059437  0.8884333344284682  0.10092359668929873  1.0000
  N   N3        1.0  0.7802392720495092  0.9977207933708305  0.7965407993339095  1.0000
  H   H9        1.0  0.910418655794983  0.3863910833190234  0.575265465960868  1.0000
  H   H10       1.0  0.8728153803771729  0.16566888634061794  0.344157022926336  1.0000
  H   H11       1.0  0.8710671653512335  0.7484102693416854  0.34510968992156443  1.0000
  H   H12       1.0  0.9298218812817716  0.9313617632947919  0.6905873423250743  1.0000
  H   H13       1.0  0.910618889982185  0.4934596010785456  0.5751565514393571  1.0000
  H   H14       1.0  0.7648272951421646  0.12003905415381144  0.21588959256340212  1.0000
  H   H15       1.0  0.7274950857910213  0.13726654256056925  0.9876560106157513  1.0000
  H   H16       1.0  0.8827750933523463  0.8360865747240471  0.9030227622788272  1.0000
  H   H17       1.0  0.9216724340934858  0.8194971658667934  0.13040348011619174  1.0000
  H   H18       1.0  0.8042250580949072  0.9385278237241861  0.7292882507357445  1.0000
  H   H19       1.0  0.7396390031642057  0.0642846772270611  0.764489903369407  1.0000
  C   C27       1.0  0.9021694990793593  0.4437186226652843  0.14415445561763374  1.0000
  C   C28       1.0  0.9702830532195921  0.5143781040314177  0.13465064440017938  1.0000
  C   C29       1.0  0.004832828192729011  0.5500748666879614  0.012703287094438798  1.0000
  C   C30       1.0  0.9703552798357475  0.5141657037135579  0.8993776988179971  1.0000
  C   C31       1.0  0.9022410968853279  0.4435082120039868  0.9068895808315971  1.0000
  C   C32       1.0  0.8685299086036209  0.40867927437280427  0.0297283913034736  1.0000
  C   C33       1.0  0.0768909907036448  0.6248243751062978  0.003703079420488198  1.0000
  C   C34       1.0  0.08872724402864152  0.7281311713353258  0.0829553239954377  1.0000
  C   C35       1.0  0.1565876840305891  0.7983732295262207  0.07428068144011268  1.0000
  C   C36       1.0  0.2133661886254934  0.766394086648164  0.9866597990612007  1.0000
  C   C37       1.0  0.20225477069849762  0.6639911099359188  0.907516583974123  1.0000
  C   C38       1.0  0.13447050286524753  0.5935249319522191  0.9157817706504918  1.0000
  I   I1        1.0  0.31567526069583374  0.8725202274871726  0.9738852119268442  1.0000
  H   H20       1.0  0.8761933179910707  0.4168586260269336  0.4752253351066711  1.0000
  H   H21       1.0  0.9971519024604936  0.540278326021812  0.22237855493223213  1.0000
  H   H22       1.0  0.9962330579900983  0.5429825528771131  0.8050616650026186  1.0000
  H   H23       1.0  0.8159829810153943  0.35416982709732125  0.03629180899227902  1.0000
  H   H24       1.0  0.8762981693069115  0.41654903395096254  0.5823006581926302  1.0000
  H   H25       1.0  0.045169822882934474  0.7556500625718312  0.15036452992429883  1.0000
  H   H26       1.0  0.1649161974065858  0.8778526059380058  0.1354730427159183  1.0000
  H   H27       1.0  0.24618155803962827  0.6387174257477581  0.8397988996282617  1.0000
  H   H28       1.0  0.12744742605645754  0.5135364080229625  0.8546897956574178  1.0000
  Zn  Zn1       1.0  0.8198862524546559  0.44161353610430276  0.529343462261681  1.0000
  Zn  Zn2       1.0  0.9845171468305493  0.44561249613758114  0.5217002742144996  1.0000
  C   C39       1.0  0.9022249600972372  0.4383742447527701  0.7627168615921762  1.0000
  C   C40       1.0  0.9021802372566732  0.44885346974757234  0.28832691872705896  1.0000
  C   C41       1.0  0.9022432822754032  0.6808076730393955  0.5203239293009625  1.0000
  C   C42       1.0  0.9021618586294756  0.20641847976944527  0.5307199230166761  1.0000
  O   O1        1.0  0.964660406510277  0.45208869006716634  0.3338119648989095  1.0000
  O   O2        1.0  0.9646958301653722  0.43817316294612674  0.711430438794558  1.0000
  O   O3        1.0  0.9647097834687112  0.6339412014464487  0.5156964699690678  1.0000
  O   O4        1.0  0.9646463970220839  0.2563206595193861  0.5295458389572798  1.0000
  O   O5        1.0  0.8397569460826767  0.6309053713592645  0.5214979001203148  1.0000
  O   O6        1.0  0.839742993047924  0.43513889318721155  0.7172317995488153  1.0000
  O   O7        1.0  0.8397075692881555  0.4490543754840848  0.33961176426017947  1.0000
  O   O8        1.0  0.8396935598043714  0.25328633562052993  0.5353457356870837  1.0000
