data_image0
_chemical_formula_structural       NC9NC5H8C12NCOCH13C13F3H9Zn2C4O8
_chemical_formula_sum              "N3 C45 H30 O9 F3 Zn2"
_cell_length_a       17.807436237873137
_cell_length_b       10.299155265289647
_cell_length_c       10.2985328690268
_cell_angle_alpha    85.56203192291568
_cell_angle_beta     89.39824995993841
_cell_angle_gamma    88.36808077728016

_space_group_name_H-M_alt    "P 1"
_space_group_IT_number       1

loop_
  _space_group_symop_operation_xyz
  'x, y, z'

loop_
  _atom_site_type_symbol
  _atom_site_label
  _atom_site_symmetry_multiplicity
  _atom_site_fract_x
  _atom_site_fract_y
  _atom_site_fract_z
  _atom_site_occupancy
  N   N1        1.0  0.7070249190045207  0.38742311194348344  0.5566144516506506  1.0000
  C   C1        1.0  0.6464445225323366  0.3522270179209628  0.5456000090727182  1.0000
  C   C2        1.0  0.5710891676670401  0.30844695294827895  0.5318992384252805  1.0000
  C   C3        1.0  0.5530076086848752  0.23699329574570482  0.4269093968777107  1.0000
  C   C4        1.0  0.479841467111827  0.1943746950341232  0.41352422946473966  1.0000
  C   C5        1.0  0.423708247348038  0.2228321802206823  0.5050965600686319  1.0000
  C   C6        1.0  0.345951479053163  0.1776545356551702  0.49095364039630796  1.0000
  C   C7        1.0  0.2837585718790038  0.2594255983126681  0.5168705641147833  1.0000
  C   C8        1.0  0.2104501709260477  0.2166039467847123  0.5034991383145797  1.0000
  C   C9        1.0  0.1472066016577372  0.30106669957249177  0.5297792041652749  1.0000
  N   N2        1.0  0.0963717615049573  0.36896890968312035  0.5509076522780256  1.0000
  C   C10       1.0  0.1987511876922494  0.09175322319866108  0.4641855126856629  1.0000
  C   C11       1.0  0.2600867276257386  0.009968304479250234  0.438260202693751  1.0000
  C   C12       1.0  0.3332757721489872  0.05239531904931649  0.4514291903865728  1.0000
  C   C13       1.0  0.4424811141965037  0.2947803132560278  0.6103055029988826  1.0000
  C   C14       1.0  0.5157001603353031  0.33720845529310406  0.623535063672821  1.0000
  H   H1        1.0  0.5954034714317334  0.21448390798047723  0.3551978191399128  1.0000
  H   H2        1.0  0.46693610104968186  0.1406621694050767  0.33061324351812726  1.0000
  H   H3        1.0  0.2922361859784645  0.35690758856852445  0.5457212217771856  1.0000
  H   H4        1.0  0.1422930665625625  0.05771104268546701  0.4535998039761675  1.0000
  H   H5        1.0  0.250910521109521  0.9133061090502993  0.40820880294810813  1.0000
  H   H6        1.0  0.3799300203628528  0.9866388826503205  0.43239861807781077  1.0000
  H   H7        1.0  0.4008023228832028  0.3167510090514647  0.6833118346677682  1.0000
  H   H8        1.0  0.5291335488585324  0.39214134467439266  0.7054039866783075  1.0000
  C   C15       1.0  0.9017858446697016  0.9967944278199544  0.5538785051410293  1.0000
  C   C16       1.0  0.8889449443389371  0.007072706332012846  0.4191321118121272  1.0000
  C   C17       1.0  0.8823615706690412  0.8951497492745202  0.35069618630502175  1.0000
  C   C18       1.0  0.8887652950622579  0.7718213822907258  0.41882693867665766  1.0000
  C   C19       1.0  0.9016180394036508  0.7595873269955482  0.5536547546665318  1.0000
  C   C20       1.0  0.9080525302562059  0.8725944915483084  0.6203504325079734  1.0000
  C   C21       1.0  0.8687783760476049  0.9069965522173105  0.20815075911007042  1.0000
  C   C22       1.0  0.9068739910542195  0.9992834402803773  0.12616910124567782  1.0000
  C   C23       1.0  0.8940974916546427  0.010300892066335887  0.9920242649841651  1.0000
  C   C24       1.0  0.8434370354918562  0.9283471789800063  0.9370123553302214  1.0000
  C   C25       1.0  0.804423744729041  0.8379200568915572  0.01893929959340479  1.0000
  C   C26       1.0  0.8172276044479261  0.8266452804408675  0.15304639675569853  1.0000
  N   N3        1.0  0.8282426937873802  0.939277306891352  0.7996644037851328  1.0000
  C   C27       1.0  0.8830925749698721  0.9735918888383717  0.7006358704952675  1.0000
  O   O1        1.0  0.9520147573427288  0.9728657328627744  0.7274860209918916  1.0000
  C   C28       1.0  0.8591177576700999  0.0011437134856828735  0.562437715634545  1.0000
  H   H9        1.0  0.9067483232000231  0.32031604258819324  0.6057016952366476  1.0000
  H   H10       1.0  0.8829981202215688  0.10238796983291865  0.36740602155589586  1.0000
  H   H11       1.0  0.8847210122263339  0.6852021061492308  0.366254094142227  1.0000
  H   H12       1.0  0.9179595140965202  0.8639516554645702  0.7242826590034823  1.0000
  H   H13       1.0  0.9263267717452401  0.5291915190414791  0.8079977835643064  1.0000
  H   H14       1.0  0.9469928003803683  0.062439316721875526  0.16567618767170944  1.0000
  H   H15       1.0  0.9229151919712523  0.08437717770122144  0.9320172833953637  1.0000
  H   H16       1.0  0.7642327886482578  0.7754714545511447  0.9785661741859855  1.0000
  H   H17       1.0  0.785995915410272  0.7562999487590413  0.21392176636814186  1.0000
  H   H18       1.0  0.7753266824453298  0.9129098129254029  0.7693643951883957  1.0000
  H   H19       1.0  0.8048869435497835  0.05715879665140511  0.5587786399605887  1.0000
  H   H20       1.0  0.8521633170528617  0.9078534925209406  0.5173124234392938  1.0000
  H   H21       1.0  0.9018827951290179  0.05919550762830217  0.5064117416453886  1.0000
  C   C29       1.0  0.9016803635830222  0.37806992829247443  0.17236950770713744  1.0000
  C   C30       1.0  0.9770215455283482  0.333604520113594  0.17349045041145428  1.0000
  C   C31       1.0  0.015197460686532827  0.31119224124518086  0.05688755027660286  1.0000
  C   C32       1.0  0.9770658410926124  0.33385805637950394  0.9381890488333435  1.0000
  C   C33       1.0  0.9017234910662362  0.37831181421949833  0.9351637774970634  1.0000
  C   C34       1.0  0.8645119024279116  0.40012869449465693  0.052744403549740415  1.0000
  C   C35       1.0  0.09485102853789029  0.2641938902969918  0.05900708815330846  1.0000
  C   C36       1.0  0.14671345563469118  0.3163402413054106  0.9666890721464929  1.0000
  C   C37       1.0  0.22167811930094694  0.2722106215346143  0.9687052976770074  1.0000
  C   C38       1.0  0.24614484342566922  0.1736476357187664  0.06184707317050586  1.0000
  C   C39       1.0  0.19471688976759438  0.12329987194320413  0.1557355084586063  1.0000
  C   C40       1.0  0.11975710920143712  0.16746231769378528  0.15383012253320816  1.0000
  C   C41       1.0  0.32760674690346714  0.12949698184184744  0.06694853959767388  1.0000
  F   F1        1.0  0.3661173484721405  0.20699212409093404  0.14584524060152138  1.0000
  F   F2        1.0  0.35959884338196946  0.13915462571730997  0.943619100564578  1.0000
  F   F3        1.0  0.3345924097613715  0.0010352452091177966  0.11677023460045222  1.0000
  H   H22       1.0  0.7594565624284308  0.46290482138562705  0.3775109325214052  1.0000
  H   H23       1.0  0.006445124784584033  0.31804931290654936  0.26514238499762044  1.0000
  H   H24       1.0  0.005922040621208602  0.31510752339198356  0.8481405726701605  1.0000
  H   H25       1.0  0.8064447197760025  0.434393825802295  0.05114735183563712  1.0000
  H   H26       1.0  0.7592162742345722  0.4615764874255577  0.7221805803226138  1.0000
  H   H27       1.0  0.12957702295953233  0.39292235439631984  0.8941884898921084  1.0000
  H   H28       1.0  0.2606173098482325  0.31559463953429767  0.8976358602982355  1.0000
  H   H29       1.0  0.21245331149322477  0.049581071049453085  0.23066931709632255  1.0000
  H   H30       1.0  0.08108829839842135  0.12501958190117324  0.22591499098603918  1.0000
  Zn  Zn1       1.0  0.8193820073897252  0.382094164604043  0.5549751049898841  1.0000
  Zn  Zn2       1.0  0.9840146578556942  0.3742872733316651  0.5525576794459384  1.0000
  C   C42       1.0  0.9017148034200552  0.37309203563428883  0.7909808615236138  1.0000
  C   C43       1.0  0.9016836592554338  0.3832909558500974  0.3165520235092152  1.0000
  C   C44       1.0  0.9016455777527348  0.6154017473786402  0.5485215634466261  1.0000
  C   C45       1.0  0.9017528290923824  0.1409796863560595  0.5590113921125446  1.0000
  O   O2        1.0  0.9641619994214593  0.3820748396168021  0.3640235942024883  1.0000
  O   O3        1.0  0.9641888358119121  0.3683819221064504  0.7416741471915973  1.0000
  O   O4        1.0  0.9641320930634512  0.5640501191310439  0.5458865605257397  1.0000
  O   O5        1.0  0.9642186859843983  0.1864066545163081  0.5598110843086528  1.0000
  O   O6        1.0  0.8391779230799766  0.56997478608492  0.5477217009452866  1.0000
  O   O7        1.0  0.8392346654777652  0.37430814947553404  0.7435092179029199  1.0000
  O   O8        1.0  0.8392078290589426  0.3880010212285707  0.3658571034101463  1.0000
  O   O9        1.0  0.8392645156263595  0.1923328268694975  0.5616446908941213  1.0000
