data_image0
_chemical_formula_structural       NC10NC3NH7C13OH12C13NH13Zn2C4O8
_chemical_formula_sum              "N4 C43 H32 O9 Zn2"
_cell_length_a       19.210446455230148
_cell_length_b       10.299150109392551
_cell_length_c       10.299780419254978
_cell_angle_alpha    85.552664501727
_cell_angle_beta     89.97732542180437
_cell_angle_gamma    89.92850971851941

_space_group_name_H-M_alt    "P 1"
_space_group_IT_number       1

loop_
  _space_group_symop_operation_xyz
  'x, y, z'

loop_
  _atom_site_type_symbol
  _atom_site_label
  _atom_site_symmetry_multiplicity
  _atom_site_fract_x
  _atom_site_fract_y
  _atom_site_fract_z
  _atom_site_occupancy
  N   N1        1.0  0.6553987559224936  0.4199935151251193  0.5669322625889763  1.0000
  C   C1        1.0  0.5951696189913114  0.42220121896612417  0.567162703920437  1.0000
  C   C2        1.0  0.5203644509447618  0.42493836741236524  0.5674481913198977  1.0000
  C   C3        1.0  0.484722256671871  0.5411793726266465  0.582522628652484  1.0000
  C   C4        1.0  0.4120567436269411  0.5413309091995497  0.5824699857309112  1.0000
  C   C5        1.0  0.3751975057658333  0.42564739716270483  0.5675344469164108  1.0000
  C   C6        1.0  0.2978757412896881  0.4242908039333715  0.567384289669393  1.0000
  C   C7        1.0  0.2601014567563184  0.5278555473796136  0.5039925790681246  1.0000
  C   C8        1.0  0.1873234736361619  0.5264532042503323  0.503883952203557  1.0000
  C   C9        1.0  0.1513183030198974  0.4217436340209981  0.5671159600609414  1.0000
  C   C10       1.0  0.076389132371044  0.42044144106107995  0.5669795483314457  1.0000
  N   N2        1.0  0.0161515609831676  0.4193944337165665  0.5668699081892565  1.0000
  C   C11       1.0  0.1883689002936833  0.31830458627681835  0.6304826236121619  1.0000
  C   C12       1.0  0.2611487977532744  0.3194326535746894  0.6306415807171302  1.0000
  C   C13       1.0  0.4134490635610313  0.3112268223183128  0.5527475869453671  1.0000
  N   N3        1.0  0.48421836376168176  0.31367198763092774  0.5529123706102483  1.0000
  H   H1        1.0  0.5127989269654233  0.630621123925843  0.594542293737601  1.0000
  H   H2        1.0  0.3847633038757849  0.6313548365917148  0.5958841293674808  1.0000
  H   H3        1.0  0.2868128223132457  0.6091041526129097  0.45297853275535793  1.0000
  H   H4        1.0  0.1591612268292605  0.6068743117462501  0.4542005023278184  1.0000
  H   H5        1.0  0.1610180742504156  0.23692000023332827  0.6800668973567621  1.0000
  H   H6        1.0  0.2886659967383396  0.23913102127136177  0.6817626561951162  1.0000
  H   H7        1.0  0.3872085370079943  0.2203399093493681  0.5392874707499842  1.0000
  C   C14       1.0  0.8358440730062174  0.0382942624930227  0.5670451948999335  1.0000
  C   C15       1.0  0.8345448491641441  0.026521063005732204  0.7038503326776364  1.0000
  C   C16       1.0  0.8338255798642801  0.9034172459541059  0.7729497685998881  1.0000
  C   C17       1.0  0.8344106856804104  0.7912658644774531  0.7034869763285618  1.0000
  C   C18       1.0  0.8357128939666867  0.8010836710246776  0.5667682333333115  1.0000
  C   C19       1.0  0.8364238921267583  0.9250584629102963  0.49934631603489077  1.0000
  C   C20       1.0  0.8324450903022552  0.891944277263516  0.917583975300537  1.0000
  C   C21       1.0  0.7896334997785257  0.7991494579425836  0.9856098942612768  1.0000
  C   C22       1.0  0.7883113985636031  0.7884348534679025  0.12171054220421906  1.0000
  C   C23       1.0  0.8302335501911369  0.869356230155817  0.19224558957924232  1.0000
  C   C24       1.0  0.8723790905088036  0.9631059254524617  0.12486233002750324  1.0000
  C   C25       1.0  0.8737173500579641  0.9739963000661828  0.9887613905906589  1.0000
  C   C26       1.0  0.8273492387379571  0.8601993433835214  0.3383261489886349  1.0000
  O   O1        1.0  0.7753168760231745  0.9434696325981324  0.3785740885685457  1.0000
  H   H8        1.0  0.837844179838537  0.26781031515838016  0.3088191646572993  1.0000
  H   H9        1.0  0.8331243170488944  0.11330663897169102  0.7568569022472087  1.0000
  H   H10       1.0  0.8348012702528333  0.6961524216237093  0.7563181776409413  1.0000
  H   H11       1.0  0.8374263546383443  0.9333474427109096  0.3938910589541995  1.0000
  H   H12       1.0  0.8361669168094359  0.4773845535544096  0.5141814178847874  1.0000
  H   H13       1.0  0.7563502980868352  0.7361865868876686  0.9335091685475632  1.0000
  H   H14       1.0  0.7544435194605857  0.7171706557758482  0.1720898162270148  1.0000
  H   H15       1.0  0.9043799973754145  0.027624032056622783  0.17770945141099126  1.0000
  H   H16       1.0  0.9076084516945453  0.04570603928079531  0.9391887215265997  1.0000
  H   H17       1.0  0.8785469677131909  0.8879508333306406  0.3784855980076913  1.0000
  H   H18       1.0  0.8160322597454516  0.7582037310164114  0.37613907963717474  1.0000
  H   H19       1.0  0.7755626788391533  0.9338095934657408  0.47519661925018275  1.0000
  C   C27       1.0  0.8358258974329976  0.4196040307499642  0.18555257121298663  1.0000
  C   C28       1.0  0.8862070671207479  0.5185574894384877  0.1768463287169295  1.0000
  C   C29       1.0  0.9116819156926269  0.5687933724652305  0.05529086125906457  1.0000
  C   C30       1.0  0.8861114338390508  0.5187298947443266  0.9415461068289033  1.0000
  C   C31       1.0  0.8357310915386752  0.4197739151337354  0.9482607967445138  1.0000
  C   C32       1.0  0.8108685240989592  0.370768538054993  0.07071813334138422  1.0000
  C   C33       1.0  0.9649832147655494  0.6734750556924143  0.047171981316314726  1.0000
  C   C34       1.0  0.9602596338201417  0.778068968238222  0.9513085203419549  1.0000
  C   C35       1.0  0.010450611400766308  0.8765101596218885  0.9437525483189275  1.0000
  C   C36       1.0  0.06593918068630211  0.8727146250667974  0.03241877450504149  1.0000
  C   C37       1.0  0.07133011061826089  0.7678407445383564  0.1272254488832183  1.0000
  C   C38       1.0  0.02115353003663878  0.6693748282817182  0.13495419805875253  1.0000
  C   C39       1.0  0.12088952530552399  0.9768495219775568  0.021915988461433722  1.0000
  N   N4        1.0  0.17425742809313127  0.9441063509789527  0.9290407433472345  1.0000
  H   H20       1.0  0.8166566105161729  0.3818512161615346  0.5163268880984242  1.0000
  H   H21       1.0  0.905069330793538  0.5580352022812793  0.2646986009359382  1.0000
  H   H22       1.0  0.9062843323139451  0.5558543729373877  0.8477216284717111  1.0000
  H   H23       1.0  0.7720019778629532  0.2944294035278898  0.07666603926079874  1.0000
  H   H24       1.0  0.8165206595789252  0.3820901692430445  0.6233640858420961  1.0000
  H   H25       1.0  0.9173282981780542  0.7844871814036074  0.8830119315816067  1.0000
  H   H26       1.0  0.0059536145139615915  0.9559240987551028  0.8688852281930473  1.0000
  H   H27       1.0  0.11451981416728985  0.7620744139681712  0.19499523171623667  1.0000
  H   H28       1.0  0.02686391755386297  0.5889416346407161  0.20835579030381712  1.0000
  H   H29       1.0  0.09682095108558242  0.07192361690250504  0.9886051029135858  1.0000
  H   H30       1.0  0.14489297519712863  0.9881209100941717  0.11876441605521948  1.0000
  H   H31       1.0  0.20937078134672316  0.02174574419255837  0.9190669451881219  1.0000
  H   H32       1.0  0.2021977666673096  0.8637501452441909  0.9698375482822659  1.0000
  Zn  Zn1       1.0  0.7595042215973664  0.41981717050880873  0.5669217684906411  1.0000
  Zn  Zn2       1.0  0.9120460798660599  0.41956019729994054  0.5668910414955834  1.0000
  C   C40       1.0  0.8357483293512081  0.4145677382737738  0.8040945199552267  1.0000
  C   C41       1.0  0.8358036375668976  0.42481126550917625  0.3297184165619065  1.0000
  C   C42       1.0  0.835734749471151  0.6568991277065013  0.5616455961852429  1.0000
  C   C43       1.0  0.835817165654825  0.1824783157509473  0.5721674101449439  1.0000
  O   O2        1.0  0.8936850081613181  0.42645567487043645  0.37809013255528634  1.0000
  O   O3        1.0  0.8936426998193664  0.41272731230801374  0.7556991094078147  1.0000
  O   O4        1.0  0.8936309533573351  0.6084129755890948  0.5599198877640073  1.0000
  O   O5        1.0  0.8936967025816547  0.23077002094632304  0.5738692568353121  1.0000
  O   O6        1.0  0.7778535468267224  0.6086073469515312  0.5599435531545667  1.0000
  O   O7        1.0  0.7778652930258343  0.4129232440850572  0.7557227049889754  1.0000
  O   O8        1.0  0.7779076016159899  0.4266515610399373  0.3781121668127112  1.0000
  O   O9        1.0  0.7779192960229719  0.23096589784796162  0.5738913884601731  1.0000
