data_image0
_chemical_formula_structural       NC12NC2H8C16H10C13NH13Zn2C4O8
_chemical_formula_sum              "N3 C47 H31 Zn2 O8"
_cell_length_a       17.80743265337812
_cell_length_b       10.29914801576943
_cell_length_c       10.299780419254978
_cell_angle_alpha    85.54946318164076
_cell_angle_beta     91.52098048016336
_cell_angle_gamma    89.44985071264975

_space_group_name_H-M_alt    "P 1"
_space_group_IT_number       1

loop_
  _space_group_symop_operation_xyz
  'x, y, z'

loop_
  _atom_site_type_symbol
  _atom_site_label
  _atom_site_symmetry_multiplicity
  _atom_site_fract_x
  _atom_site_fract_y
  _atom_site_fract_z
  _atom_site_occupancy
  N   N1        1.0  0.7077965921461774  0.40644612081496545  0.6008693236639477  1.0000
  C   C1        1.0  0.6569896349546129  0.43598997968981146  0.5321632643289749  1.0000
  C   C2        1.0  0.5937807640267255  0.472740396536971  0.44670157482603634  1.0000
  C   C3        1.0  0.6055310744859259  0.5267335044729515  0.32006850714602786  1.0000
  C   C4        1.0  0.5442290428992311  0.5619808132676567  0.23700323912664034  1.0000
  C   C5        1.0  0.4710225183944928  0.543498333397348  0.279911074279138  1.0000
  C   C6        1.0  0.45829535863963244  0.48938653119386544  0.40701230227568863  1.0000
  C   C7        1.0  0.5204547088700594  0.4541424723883416  0.4900610583429965  1.0000
  C   C8        1.0  0.3805201089106829  0.46979055631494093  0.4527806903419176  1.0000
  C   C9        1.0  0.3617221349752144  0.49701144517772344  0.5798068341375553  1.0000
  C   C10       1.0  0.2884856651783992  0.4785705523697157  0.6227552136395011  1.0000
  C   C11       1.0  0.23310406081335613  0.4326546910071243  0.5395154657278547  1.0000
  C   C12       1.0  0.15773073591397432  0.4136612832003739  0.583864902242204  1.0000
  N   N2        1.0  0.0971359203051635  0.39839186070331767  0.6195187982660983  1.0000
  C   C13       1.0  0.2512104511028083  0.4052650138424603  0.41303232412757906  1.0000
  C   C14       1.0  0.3243940994831476  0.42372062819572376  0.36982806733108675  1.0000
  H   H1        1.0  0.662003040511335  0.5415497273728207  0.28562784604453406  1.0000
  H   H2        1.0  0.5534449788107967  0.6040564564217858  0.1392137576471768  1.0000
  H   H3        1.0  0.42439533942834123  0.5731195989386135  0.21431274345947182  1.0000
  H   H4        1.0  0.5119369848598098  0.41068137422031126  0.5877266394661904  1.0000
  H   H5        1.0  0.4033954599725957  0.5342105028533954  0.6453615536373796  1.0000
  H   H6        1.0  0.27503314829764314  0.500442888810902  0.7207497034968182  1.0000
  H   H7        1.0  0.20882036677061  0.36933344839334104  0.34789004228791454  1.0000
  H   H8        1.0  0.33731797784702416  0.4003126946118063  0.27213749069757176  1.0000
  C   C15       1.0  0.9024163338813396  0.02101869587797478  0.6103571925307432  1.0000
  C   C16       1.0  0.8852810938019213  0.03094354286944201  0.4760678352422998  1.0000
  C   C17       1.0  0.8766483919822899  0.9188447128523862  0.4078183288476229  1.0000
  C   C18       1.0  0.8853814334400397  0.7956895658562841  0.47566806760932057  1.0000
  C   C19       1.0  0.902523358583156  0.783809156478978  0.6100424945766376  1.0000
  C   C20       1.0  0.9109366053878986  0.8969918801347619  0.6765597329871418  1.0000
  C   C21       1.0  0.8585215599316811  0.9303896058513308  0.26575639305690735  1.0000
  C   C22       1.0  0.8940765004400992  0.8486508286856257  0.18224524051262536  1.0000
  C   C23       1.0  0.87698990516501  0.8596422037593994  0.048540761917476916  1.0000
  C   C24       1.0  0.8241729805308112  0.9522759089932087  0.996534852513157  1.0000
  C   C25       1.0  0.788481227543552  0.03399755827673756  0.07875556281438123  1.0000
  C   C26       1.0  0.8055142566233507  0.023248561488605768  0.21247842130782746  1.0000
  C   C27       1.0  0.8066100401380537  0.9634672593803092  0.8588749707022338  1.0000
  C   C28       1.0  0.7919012668237163  0.9728399079791447  0.7435868080583208  1.0000
  C   C29       1.0  0.774677466995062  0.983815153503776  0.6085855463529244  1.0000
  C   C30       1.0  0.7599711623385345  0.9931863777986618  0.4933160089723958  1.0000
  H   H9        1.0  0.9089686437717902  0.3446765766952591  0.6620228743748025  1.0000
  H   H10       1.0  0.8796207137663188  0.1261049018738456  0.4238887223929315  1.0000
  H   H11       1.0  0.8777818908725509  0.7089425622645364  0.42389062999341776  1.0000
  H   H12       1.0  0.9241512584391024  0.8886207458155504  0.7801413116389408  1.0000
  H   H13       1.0  0.9344125865451595  0.5540886058354921  0.8638231258649498  1.0000
  H   H14       1.0  0.93580443887632  0.7773905697511239  0.22009225952452938  1.0000
  H   H15       1.0  0.9051050878833087  0.7961239911807584  0.9857152300671093  1.0000
  H   H16       1.0  0.7473510113366216  0.10580951212330447  0.039567337620435294  1.0000
  H   H17       1.0  0.7765234206646388  0.08639491037030123  0.2744592543516866  1.0000
  H   H18       1.0  0.7470578429368012  0.0014151031370994716  0.39209963827046  1.0000
  C   C31       1.0  0.9025209939007754  0.40232799310815937  0.2288481612529336  1.0000
  C   C32       1.0  0.9569267133010869  0.5002400724561171  0.2227511089964369  1.0000
  C   C33       1.0  0.9844366097456316  0.5499493896322258  0.10251495024647883  1.0000
  C   C34       1.0  0.9568235580477319  0.5004144537031068  0.9874459197464374  1.0000
  C   C35       1.0  0.9024187307769173  0.4024998363401804  0.9915514624401993  1.0000
  C   C36       1.0  0.8755700348214037  0.3540083691922191  0.11272119862216523  1.0000
  C   C37       1.0  0.0419957220279068  0.6535293344277775  0.0971564914065084  1.0000
  C   C38       1.0  0.036931924692165774  0.7582206306112833  0.0010437826074103373  1.0000
  C   C39       1.0  0.09113221384653714  0.8556243742353511  0.996087156591257  1.0000
  C   C40       1.0  0.15101656504239913  0.850682140743634  0.08763165417423968  1.0000
  C   C41       1.0  0.1568005021110559  0.7456970859983896  0.18272220222626245  1.0000
  C   C42       1.0  0.10261574274276652  0.648268320032902  0.18785235315066795  1.0000
  C   C43       1.0  0.21035521814433222  0.9536812218383581  0.0799748451841602  1.0000
  N   N3        1.0  0.2679414226604  0.9198352411287596  0.9898690493821833  1.0000
  H   H19       1.0  0.881820392177655  0.36497140812212825  0.5586297241549507  1.0000
  H   H20       1.0  0.9772965248549531  0.5393278967016224  0.3115801403591165  1.0000
  H   H21       1.0  0.9786070946163606  0.5371219634034741  0.8946662768379476  1.0000
  H   H22       1.0  0.8335987497885792  0.2784726066135699  0.11665624516093764  1.0000
  H   H23       1.0  0.8816737461107813  0.3652131701875978  0.6656598606150892  1.0000
  H   H24       1.0  0.9906007208100384  0.7655260334918679  0.9305201429022563  1.0000
  H   H25       1.0  0.08630474890182516  0.9351310704074292  0.9209833624796953  1.0000
  H   H26       1.0  0.20341075992116187  0.7390382249248122  0.25273241076141395  1.0000
  H   H27       1.0  0.10875241748751718  0.5677172961097787  0.2615533976595792  1.0000
  H   H28       1.0  0.18441039107683843  0.04925249840271917  0.04541169912499443  1.0000
  H   H29       1.0  0.23626442025564942  0.9644565380291692  0.17806784230520645  1.0000
  H   H30       1.0  0.30586252839428685  0.9967488216802745  0.981713384796667  1.0000
  H   H31       1.0  0.2980696168266166  0.8389018085480133  0.032118341122284066  1.0000
  Zn  Zn1       1.0  0.8201515139085572  0.40411836945069535  0.6062586472078255  1.0000
  Zn  Zn2       1.0  0.9847809931417097  0.400709020125684  0.6141400716654175  1.0000
  C   C44       1.0  0.9024356377575523  0.3972933148090896  0.847386290900908  1.0000
  C   C45       1.0  0.9024986672543599  0.40753567632015386  0.37301264082178776  1.0000
  C   C46       1.0  0.9024999620344051  0.6396244468211316  0.6049268344833993  1.0000
  C   C47       1.0  0.9024342865727323  0.16520298505639253  0.6154721644292447  1.0000
  O   O1        1.0  0.9649672028280408  0.407983925871378  0.4243865189690048  1.0000
  O   O2        1.0  0.964917067567637  0.39425646811996495  0.8019938581283892  1.0000
  O   O3        1.0  0.9649681678468337  0.5899419396608907  0.6062060907530238  1.0000
  O   O4        1.0  0.9649160463863171  0.21229846476287473  0.6201741862808758  1.0000
  O   O5        1.0  0.8400164044839894  0.5925289259783608  0.6002245298959923  1.0000
  O   O6        1.0  0.8399653044296073  0.396845014854011  0.7960122273850345  1.0000
  O   O7        1.0  0.8400154399430185  0.41057242699285346  0.4184033269166392  1.0000
  O   O8        1.0  0.8399642834838614  0.21488695661678436  0.6141910915956297  1.0000
