data_image0
_chemical_formula_structural       NC10NC5H10C16H10C15H12Zn2C4O8
_chemical_formula_sum              "N2 C50 H32 Zn2 O8"
_cell_length_a       19.4436361288709
_cell_length_b       10.29914801576943
_cell_length_c       10.299157797200024
_cell_angle_alpha    85.52082761248347
_cell_angle_beta     89.72702837822627
_cell_angle_gamma    89.43179634642199

_space_group_name_H-M_alt    "P 1"
_space_group_IT_number       1

loop_
  _space_group_symop_operation_xyz
  'x, y, z'

loop_
  _atom_site_type_symbol
  _atom_site_label
  _atom_site_symmetry_multiplicity
  _atom_site_fract_x
  _atom_site_fract_y
  _atom_site_fract_z
  _atom_site_occupancy
  N   N1        1.0  0.6475234475289154  0.4098426447304806  0.5614536492035087  1.0000
  C   C1        1.0  0.588692615585075  0.4197385632401083  0.5758346214912835  1.0000
  C   C2        1.0  0.5153697107077532  0.4320800750293823  0.5938231973759649  1.0000
  C   C3        1.0  0.47315652675338626  0.40012512934359146  0.49915621647215036  1.0000
  C   C4        1.0  0.397254578605284  0.41056173080275826  0.5044805294682366  1.0000
  C   C5        1.0  0.357540772239003  0.38576160540821025  0.6115692029464186  1.0000
  C   C6        1.0  0.2814172575989048  0.38968461759412265  0.5986074970920681  1.0000
  C   C7        1.0  0.24088646686109974  0.4473063917813125  0.6923613147411227  1.0000
  C   C8        1.0  0.1692207113108727  0.4509493820511188  0.6818153441511543  1.0000
  C   C9        1.0  0.1370910180213054  0.3965744212036413  0.5778022552127708  1.0000
  C   C10       1.0  0.0632959840381022  0.4002787324610311  0.5671009691360069  1.0000
  N   N2        1.0  0.0039697819488761  0.40325680426383315  0.55849784459294  1.0000
  C   C11       1.0  0.1768969321447955  0.33824532128793283  0.48443197292841056  1.0000
  C   C12       1.0  0.24857904303133113  0.3345482211047439  0.49472617193857404  1.0000
  C   C13       1.0  0.3857034243693063  0.34523608266432326  0.7426876974450518  1.0000
  C   C14       1.0  0.4443849116760082  0.3883391126822613  0.7899161928297165  1.0000
  C   C15       1.0  0.4885846788606162  0.48623986904564  0.7155058881272207  1.0000
  H   H1        1.0  0.4952279432891913  0.3710482113044766  0.4088552820151632  1.0000
  H   H2        1.0  0.3725341862203519  0.4331019267987375  0.411307673260479  1.0000
  H   H3        1.0  0.2647837571681456  0.4905626452727021  0.7731976283255815  1.0000
  H   H4        1.0  0.1389008797092746  0.49623324530682966  0.7547229150367922  1.0000
  H   H5        1.0  0.15252787239351834  0.29518458327621677  0.4039300861292334  1.0000
  H   H6        1.0  0.2782331654591769  0.28702046698126726  0.4225158552203998  1.0000
  H   H7        1.0  0.3547470685735158  0.2809838276039447  0.806963683795604  1.0000
  H   H8        1.0  0.4595566406093659  0.3542232057875889  0.8878699590613173  1.0000
  H   H9        1.0  0.4584802059417676  0.5769730451683095  0.6902169088801531  1.0000
  H   H10       1.0  0.5318896986056257  0.5117981946807588  0.7785847042669962  1.0000
  C   C16       1.0  0.8257009618776624  0.02514915023437503  0.5601417087696621  1.0000
  C   C17       1.0  0.8099690860798064  0.03507708613949423  0.42679030329720336  1.0000
  C   C18       1.0  0.8020431991746773  0.9229801140717566  0.3590132777117174  1.0000
  C   C19       1.0  0.8100608143508107  0.7998236928201563  0.426384928473329  1.0000
  C   C20       1.0  0.8257988385547568  0.7879401767446598  0.559821040858768  1.0000
  C   C21       1.0  0.8335232395459544  0.9011210882990628  0.6258778098284192  1.0000
  C   C22       1.0  0.7854009416212104  0.9345282754682066  0.21794357153471355  1.0000
  C   C23       1.0  0.817923774893875  0.8529668281395507  0.13245116049949313  1.0000
  C   C24       1.0  0.8022366275055944  0.863961180037546  0.9996819906993943  1.0000
  C   C25       1.0  0.7538654768494645  0.9564207861221136  0.950602206656475  1.0000
  C   C26       1.0  0.721216963522067  0.03796524095444087  0.03481164319543395  1.0000
  C   C27       1.0  0.7368550771601057  0.02721305468873747  0.16760216741237177  1.0000
  C   C28       1.0  0.7377409229165819  0.9676153119724418  0.8139036863949234  1.0000
  C   C29       1.0  0.7242367829293692  0.97699061973135  0.6994206537374885  1.0000
  C   C30       1.0  0.7084235944377323  0.9879689791948262  0.5653621897191337  1.0000
  C   C31       1.0  0.6949217206874766  0.9973428625709098  0.45089764712541713  1.0000
  H   H11       1.0  0.8317167466796515  0.3488056900505725  0.6114487595976779  1.0000
  H   H12       1.0  0.804769692641186  0.1302434322501662  0.3749202727346732  1.0000
  H   H13       1.0  0.8030862509884704  0.7130741118079139  0.3750242288767811  1.0000
  H   H14       1.0  0.8456556276388301  0.8927475626995819  0.7287360441927182  1.0000
  H   H15       1.0  0.8550776430861013  0.5582119172145447  0.8118564878262093  1.0000
  H   H16       1.0  0.8561382604730241  0.7818457598953016  0.16798608465490328  1.0000
  H   H17       1.0  0.8279552273830474  0.8005815624088365  0.9352900831176356  1.0000
  H   H18       1.0  0.6835492475380102  0.10964095342286884  0.9979022115380709  1.0000
  H   H19       1.0  0.7103345364610729  0.0902179133429899  0.2311978901944547  1.0000
  H   H20       1.0  0.6830659884376046  0.005573923018540983  0.3503881266091229  1.0000
  C   C32       1.0  0.8256701735914569  0.40665240255574675  0.17858995060925276  1.0000
  C   C33       1.0  0.7540295295036625  0.38999516948521085  0.1793667170645521  1.0000
  C   C34       1.0  0.7178528614866684  0.3814377466944454  0.06261706331509043  1.0000
  C   C35       1.0  0.7542338578787083  0.389782644759076  0.9440978156252764  1.0000
  C   C36       1.0  0.8258296094139981  0.4064369122407716  0.9413727397964733  1.0000
  C   C37       1.0  0.8611296932776802  0.4147687784997436  0.059152607966895365  1.0000
  C   C38       1.0  0.6421126578494186  0.36383267753091086  0.06448457559916365  1.0000
  C   C39       1.0  0.6111538155755519  0.27741829505236604  0.983670731310097  1.0000
  C   C40       1.0  0.5398791226484727  0.260944243893541  0.9854603586054069  1.0000
  C   C41       1.0  0.49829370483723656  0.3298988677485313  0.06860668625102928  1.0000
  C   C42       1.0  0.5288845722617007  0.4171656677582991  0.14844651196421932  1.0000
  C   C43       1.0  0.6001585722569116  0.43364393043179317  0.14680483938144295  1.0000
  C   C44       1.0  0.4215110077192521  0.31450095082626417  0.06818748480061276  1.0000
  C   C45       1.0  0.39059091266125306  0.4088476154222802  0.9709936526875986  1.0000
  C   C46       1.0  0.3651792090484177  0.4864285576271026  0.8910733368786827  1.0000
  H   H21       1.0  0.960942750808591  0.43729627476526933  0.384478386047274  1.0000
  H   H22       1.0  0.7263638951429618  0.3818807407519931  0.2711374793958601  1.0000
  H   H23       1.0  0.7264696820205986  0.3850571502466045  0.8536979364865558  1.0000
  H   H24       1.0  0.9163536627881073  0.4276109374940815  0.05776640990677184  1.0000
  H   H25       1.0  0.8533705540410884  0.4128012092956619  0.6128522139290866  1.0000
  H   H26       1.0  0.6421440157244469  0.22147542238774598  0.920064878145459  1.0000
  H   H27       1.0  0.5170992875286783  0.19420374813292685  0.9221182885642198  1.0000
  H   H28       1.0  0.49749267749052795  0.4728067575253341  0.21171082649074147  1.0000
  H   H29       1.0  0.6223776974281666  0.5025021922253992  0.20850943435005287  1.0000
  H   H30       1.0  0.4077713493670784  0.21450612803347235  0.04489820369491859  1.0000
  H   H31       1.0  0.3996193343761498  0.33035167153117984  0.16558385701426492  1.0000
  H   H32       1.0  0.3428891846655  0.5545416052611856  0.8209104337796216  1.0000
  Zn  Zn1       1.0  0.7503861623698642  0.4079386396546243  0.5606081818837174  1.0000
  Zn  Zn2       1.0  0.9011070594948054  0.40515019776043437  0.5593539981826976  1.0000
  C   C47       1.0  0.8257972931526657  0.40130358621619244  0.7971926731355887  1.0000
  C   C48       1.0  0.8256975748164529  0.41178685946850413  0.3227696200201775  1.0000
  C   C49       1.0  0.8257757213733474  0.643757973697  0.5547061841514684  1.0000
  C   C50       1.0  0.8257190949794991  0.16933091248778598  0.5652561793310193  1.0000
  O   O1        1.0  0.8829045651611266  0.41244616473468  0.37068168037593363  1.0000
  O   O2        1.0  0.8829839760777676  0.3985269383744141  0.7483283429144398  1.0000
  O   O3        1.0  0.8829657858218356  0.5943119364029557  0.5525187932760649  1.0000
  O   O4        1.0  0.882922703967061  0.21666117697614395  0.566491133057959  1.0000
  O   O5        1.0  0.7685704664639622  0.5964276613918891  0.5534710474296152  1.0000
  O   O6        1.0  0.7685886569025199  0.40064422381623266  0.7492805271624281  1.0000
  O   O7        1.0  0.7685092456993838  0.41456340535701575  0.37163230314978146  1.0000
  O   O8        1.0  0.7685273845216696  0.21877840828144834  0.567441853209316  1.0000
