data_image0
_chemical_formula_structural       NC12NC2H8C12NH11C12OCH12Zn2C4O8
_chemical_formula_sum              "N3 C43 H31 O9 Zn2"
_cell_length_a       19.240039667572717
_cell_length_b       10.299770795358612
_cell_length_c       10.299794127170987
_cell_angle_alpha    85.57261220462476
_cell_angle_beta     89.99328814946611
_cell_angle_gamma    90.01598423534

_space_group_name_H-M_alt    "P 1"
_space_group_IT_number       1

loop_
  _space_group_symop_operation_xyz
  'x, y, z'

loop_
  _atom_site_type_symbol
  _atom_site_label
  _atom_site_symmetry_multiplicity
  _atom_site_fract_x
  _atom_site_fract_y
  _atom_site_fract_z
  _atom_site_occupancy
  N   N1        1.0  0.6547791546520082  0.42085849239260775  0.567445139182541  1.0000
  C   C1        1.0  0.594630785852404  0.42085857635009294  0.5674450572451553  1.0000
  C   C2        1.0  0.5198127487373608  0.4208586935960068  0.5674449199409151  1.0000
  C   C3        1.0  0.4833229273393894  0.3564232950085269  0.6708553501418739  1.0000
  C   C4        1.0  0.4106521572563309  0.35631243886144537  0.6709418938904881  1.0000
  C   C5        1.0  0.3734805138281206  0.42085878609543914  0.5674446922651657  1.0000
  C   C6        1.0  0.4106845488028605  0.4854053203714639  0.4639476851621862  1.0000
  C   C7        1.0  0.48335521524067726  0.485294228760605  0.46403435141735505  1.0000
  C   C8        1.0  0.296275423382724  0.4208587074069423  0.5674445968579138  1.0000
  C   C9        1.0  0.2590680754060924  0.30761017358905884  0.6093188152037061  1.0000
  C   C10       1.0  0.186397408709802  0.3077170473458801  0.609227488882494  1.0000
  C   C11       1.0  0.1499431364364186  0.4208585782518195  0.5674446577715635  1.0000
  C   C12       1.0  0.0751250992488977  0.42085846458067966  0.5674449064262534  1.0000
  N   N2        1.0  0.014976782377642  0.4208584238171402  0.567445114837865  1.0000
  C   C13       1.0  0.1864363750342868  0.5340001849700275  0.5256617737687006  1.0000
  C   C14       1.0  0.2591070929771002  0.5341072388007144  0.5255702848518413  1.0000
  H   H1        1.0  0.5110252800607439  0.30653620261560244  0.7515952560821122  1.0000
  H   H2        1.0  0.3835463865470556  0.30722375066608243  0.7527972165446459  1.0000
  H   H3        1.0  0.38360378873123385  0.5344940356045902  0.38209231166066826  1.0000
  H   H4        1.0  0.5110826339501493  0.5351812209704774  0.38329472126451525  1.0000
  H   H5        1.0  0.2861460819399265  0.21846390501778523  0.6404892453166886  1.0000
  H   H6        1.0  0.15866736765106929  0.21947025403778442  0.6414307946575004  1.0000
  H   H7        1.0  0.1587365926406533  0.6222469537454922  0.493458482544626  1.0000
  H   H8        1.0  0.2862155652751064  0.6232535865355948  0.4943998099656184  1.0000
  C   C15       1.0  0.8348183216050632  0.03948994184405619  0.567484700830494  1.0000
  C   C16       1.0  0.8146537304941242  0.04862766547478059  0.43608043367363925  1.0000
  C   C17       1.0  0.8044999248647482  0.9361216543407052  0.3694617619775493  1.0000
  C   C18       1.0  0.8147809482296526  0.8133460324492439  0.4360118840055902  1.0000
  C   C19       1.0  0.8349442815483242  0.8022170171626826  0.5674167016843101  1.0000
  C   C20       1.0  0.8448503912681193  0.9158435264150045  0.6324171356260442  1.0000
  C   C21       1.0  0.7831672621186875  0.94684224075191  0.2304436741701219  1.0000
  C   C22       1.0  0.7325616957767616  0.03800723225374303  0.18525863094910733  1.0000
  C   C23       1.0  0.7125131950548905  0.047968222576955766  0.05441374587314729  1.0000
  C   C24       1.0  0.7426908407180461  0.9671830711180407  0.9666738623234723  1.0000
  C   C25       1.0  0.7931296805160651  0.8762159068095292  0.010968388322855072  1.0000
  C   C26       1.0  0.8132338596791051  0.8659988821429357  0.14178330177291087  1.0000
  N   N3        1.0  0.722154209105349  0.9775032636983231  0.832844611151117  1.0000
  H   H9        1.0  0.8424724045991034  0.36346030929753637  0.6175729502348175  1.0000
  H   H10       1.0  0.8077185206362502  0.143518302013681  0.3847305897302129  1.0000
  H   H11       1.0  0.806101042544727  0.726302690861582  0.3856020996877414  1.0000
  H   H12       1.0  0.8604059316049293  0.9080261504192434  0.7337897082713076  1.0000
  H   H13       1.0  0.8426576646238733  0.470523901439285  0.6174733311357197  1.0000
  H   H14       1.0  0.7078338603215608  0.10043724040347768  0.25145877498472435  1.0000
  H   H15       1.0  0.6733303231401029  0.1184399904090585  0.02150371827285702  1.0000
  H   H16       1.0  0.8169980130724809  0.813440147068827  0.9440790034965763  1.0000
  H   H17       1.0  0.852949636265865  0.7960369746174167  0.17325385387914038  1.0000
  H   H18       1.0  0.7443542967421799  0.917689054661794  0.7667080763698371  1.0000
  H   H19       1.0  0.6845981861051436  0.045034719786335664  0.7989114631536842  1.0000
  C   C27       1.0  0.834904728109088  0.4207399988755114  0.18609930288791987  1.0000
  C   C28       1.0  0.7667911032449077  0.3716174918428663  0.18891033761809384  1.0000
  C   C29       1.0  0.7322582951584052  0.34682931774825554  0.07318783415890384  1.0000
  C   C30       1.0  0.7667438893795163  0.37184395790145786  0.9536054258123006  1.0000
  C   C31       1.0  0.8348579034845574  0.42096697236050096  0.948802129201916  1.0000
  C   C32       1.0  0.868557618071129  0.44513704426972267  0.06556878064177951  1.0000
  C   C33       1.0  0.6601999271616232  0.2948533929010604  0.07721644718324261  1.0000
  C   C34       1.0  0.6104522679274342  0.34352033040538865  0.9860638003266251  1.0000
  C   C35       1.0  0.5427285809841471  0.29459046724398674  0.9901194363315242  1.0000
  C   C36       1.0  0.5237681919607453  0.19665687769668727  0.08481486616484069  1.0000
  C   C37       1.0  0.5728299439416488  0.1465853479896604  0.17683022060961862  1.0000
  C   C38       1.0  0.6406482139107799  0.1961547551318481  0.17232315188184155  1.0000
  O   O1        1.0  0.5564542311712073  0.04801279219799848  0.2736606630460754  1.0000
  C   C39       1.0  0.4898234118949755  0.9887394349430151  0.2897031636586491  1.0000
  H   H20       1.0  0.8608681752801605  0.43939947001353064  0.5124857416509567  1.0000
  H   H21       1.0  0.740086699349903  0.354188719357027  0.2811889194370101  1.0000
  H   H22       1.0  0.7406867839604039  0.35124958138083073  0.8642757377256483  1.0000
  H   H23       1.0  0.921104708937134  0.4830321532515589  0.06263179422838827  1.0000
  H   H24       1.0  0.8607982801390442  0.4397462379713779  0.6195144878757359  1.0000
  H   H25       1.0  0.6236828678093043  0.4205861833466802  0.9127382258258052  1.0000
  H   H26       1.0  0.5047348265224103  0.33298573960253286  0.9197781465748172  1.0000
  H   H27       1.0  0.4709609913815795  0.16062279565389082  0.08564654094357071  1.0000
  H   H28       1.0  0.6783353087134313  0.1560094688489433  0.24249083136056804  1.0000
  H   H29       1.0  0.47549016161789154  0.9402838512973009  0.2008469518950562  1.0000
  H   H30       1.0  0.49159703998994614  0.9142638501949876  0.3733816896736626  1.0000
  H   H31       1.0  0.45025029625749324  0.06299753745357384  0.3099736159561506  1.0000
  Zn  Zn1       1.0  0.7587244174555609  0.4208550076327726  0.5674526205484549  1.0000
  Zn  Zn2       1.0  0.9110315359446515  0.4208513182613216  0.5674482328293999  1.0000
  C   C40       1.0  0.8348643293936141  0.41575037947152516  0.8046354390644543  1.0000
  C   C41       1.0  0.8348932874583863  0.425957585038117  0.330265541580107  1.0000
  C   C42       1.0  0.8349172169387169  0.6580438175381931  0.5622546594529803  1.0000
  C   C43       1.0  0.8348403476795718  0.18366258669232516  0.5726463905675396  1.0000
  O   O2        1.0  0.8926892046471889  0.4277015887846629  0.37864738364830486  1.0000
  O   O3        1.0  0.8926659908523619  0.41400259574467557  0.7562498930774149  1.0000
  O   O4        1.0  0.8927079189625643  0.609657611622934  0.560525698559065  1.0000
  O   O5        1.0  0.892647224572399  0.2320465821689024  0.5743714807971225  1.0000
  O   O6        1.0  0.7771086768528694  0.6096597437278628  0.5605293725753986  1.0000
  O   O7        1.0  0.7770667490014347  0.41400628813139817  0.7562534977124564  1.0000
  O   O8        1.0  0.7770899629309158  0.42770523545087036  0.3786494269583087  1.0000
  O   O9        1.0  0.7770479828457691  0.2320502195752825  0.5743736214713253  1.0000
