data_image0
_chemical_formula_structural       NC10NC3NCH9C12OCH12C13NH13Zn2C4O8
_chemical_formula_sum              "N4 C44 H34 O9 Zn2"
_cell_length_a       19.437513618241372
_cell_length_b       10.29979075500242
_cell_length_c       10.299780419254978
_cell_angle_alpha    85.56841767701755
_cell_angle_beta     90.33405371402336
_cell_angle_gamma    89.50469088654314

_space_group_name_H-M_alt    "P 1"
_space_group_IT_number       1

loop_
  _space_group_symop_operation_xyz
  'x, y, z'

loop_
  _atom_site_type_symbol
  _atom_site_label
  _atom_site_symmetry_multiplicity
  _atom_site_fract_x
  _atom_site_fract_y
  _atom_site_fract_z
  _atom_site_occupancy
  N   N1        1.0  0.6477910759846799  0.41016772122694745  0.5756851783947978  1.0000
  C   C1        1.0  0.588855245447946  0.4271771443259773  0.5727092863450729  1.0000
  C   C2        1.0  0.5154116543777877  0.44842886493777234  0.569015424123569  1.0000
  C   C3        1.0  0.4736665005530455  0.3472379426289036  0.557356588511954  1.0000
  C   C4        1.0  0.3977755107682191  0.35730149217377116  0.5501355287019059  1.0000
  C   C5        1.0  0.3581828593985338  0.4381595462517871  0.6158754381870835  1.0000
  C   C6        1.0  0.2820027035907713  0.42955005286123193  0.6074316699927216  1.0000
  C   C7        1.0  0.2488860348519273  0.30820716356476985  0.6120748490150301  1.0000
  C   C8        1.0  0.1771529511882387  0.30183435766144284  0.6049070746853464  1.0000
  C   C9        1.0  0.1375659574160703  0.41633181548037257  0.5934583386166645  1.0000
  C   C10       1.0  0.063718468155712  0.40962080693145886  0.5861224795416693  1.0000
  N   N2        1.0  0.004350184688613099  0.404225746188156  0.5802249072328529  1.0000
  C   C11       1.0  0.1699660217362039  0.5373642485352106  0.5895604060605508  1.0000
  C   C12       1.0  0.24168346463614301  0.5439910526996732  0.596790199386976  1.0000
  C   C13       1.0  0.3868450453022885  0.5304569234886496  0.7057918200598199  1.0000
  N   N3        1.0  0.4438217240893263  0.5936658825709562  0.6853884448891674  1.0000
  C   C14       1.0  0.48767225507912115  0.5843884445032212  0.5722853902818494  1.0000
  H   H1        1.0  0.4960663099578659  0.2521808694264802  0.5452358522037442  1.0000
  H   H2        1.0  0.37307652782456024  0.2877815296547712  0.49181970783090234  1.0000
  H   H3        1.0  0.2783496581450224  0.21829778733335226  0.6230952421845424  1.0000
  H   H4        1.0  0.1525738772395105  0.2076095838223886  0.6087940758525021  1.0000
  H   H5        1.0  0.13981704858127442  0.6266190552527864  0.5808520683959624  1.0000
  H   H6        1.0  0.2657809532326728  0.6386286198659121  0.5928877391136709  1.0000
  H   H7        1.0  0.3568324316292474  0.5508544087643534  0.7901551117068648  1.0000
  H   H8        1.0  0.5304134122909736  0.6547010186130033  0.578048572220434  1.0000
  H   H9        1.0  0.45800741536099326  0.6124839284776451  0.4816434358648185  1.0000
  C   C15       1.0  0.8261357513101757  0.025827873292216585  0.5779948397225765  1.0000
  C   C16       1.0  0.8062040195937609  0.015021027162438472  0.7091742256738591  1.0000
  C   C17       1.0  0.7960498664843147  0.8924097337129071  0.7756099730351755  1.0000
  C   C18       1.0  0.806080423105846  0.7797407801157569  0.7091068693939702  1.0000
  C   C19       1.0  0.826012124395677  0.7885554117920057  0.5779265505753632  1.0000
  C   C20       1.0  0.8359297836275826  0.9120420895448583  0.5131057484181187  1.0000
  C   C21       1.0  0.774967414798332  0.8820307365658531  0.9143917074766212  1.0000
  C   C22       1.0  0.7247619627373797  0.7920104640282651  0.9588163569497876  1.0000
  C   C23       1.0  0.7049816914700904  0.7825146400298173  0.08929867534299529  1.0000
  C   C24       1.0  0.7349615834527645  0.8623783089519645  0.1770252914434055  1.0000
  C   C25       1.0  0.7853499661549591  0.9530050033288793  0.1344746068983641  1.0000
  C   C26       1.0  0.8049170144582435  0.9621430846135482  0.003462893700715619  1.0000
  O   O1        1.0  0.8171416009846403  0.035192385096618484  0.21874467891839722  1.0000
  C   C27       1.0  0.8023748461309128  0.0364433401883284  0.35388771278955544  1.0000
  H   H10       1.0  0.8337607016672457  0.35739672549181556  0.528031537175325  1.0000
  H   H11       1.0  0.7976180621496849  0.10220059564626727  0.7594917851972773  1.0000
  H   H12       1.0  0.7992154242917188  0.6849653931485677  0.7603854184876986  1.0000
  H   H13       1.0  0.8513068020288229  0.9196107094498132  0.41190640120357513  1.0000
  H   H14       1.0  0.8335727807582823  0.4644632921743332  0.5279247957366608  1.0000
  H   H15       1.0  0.7001619451236228  0.7301781058556959  0.8922960918540639  1.0000
  H   H16       1.0  0.6661209710849751  0.7131989703866551  0.12248143477900675  1.0000
  H   H17       1.0  0.7186446412581181  0.8529209470960519  0.27748036871350923  1.0000
  H   H18       1.0  0.8443326684627211  0.031023600011237606  0.9718000008295671  1.0000
  H   H19       1.0  0.8142533333662506  0.9397265022345105  0.4046596397546297  1.0000
  H   H20       1.0  0.8348358470390782  0.1105498680313457  0.39651374748647705  1.0000
  H   H21       1.0  0.7474500610363112  0.062272216238150824  0.36762334878957026  1.0000
  C   C28       1.0  0.8261207897665572  0.4071060024643838  0.1966071682788615  1.0000
  C   C29       1.0  0.8759170690056012  0.5053049961565914  0.18857095687097525  1.0000
  C   C30       1.0  0.9010961738298544  0.5551593729906632  0.06735434084725123  1.0000
  C   C31       1.0  0.8758225487968065  0.5054788034390736  0.9532695625048762  1.0000
  C   C32       1.0  0.8260270873070945  0.4072772767814967  0.9593142311922671  1.0000
  C   C33       1.0  0.8014531556754999  0.3586442345636913  0.08144086693018604  1.0000
  C   C34       1.0  0.9537786817199351  0.6590428624810889  0.05994432550041262  1.0000
  C   C35       1.0  0.9491108349907222  0.7636979824576364  0.9640494558992763  1.0000
  C   C36       1.0  0.9987191290288074  0.8613875686056414  0.9571609472910518  1.0000
  C   C37       1.0  0.05356262637291809  0.8567705225850855  0.04653401865621687  1.0000
  C   C38       1.0  0.05889006210314229  0.7518255740937678  0.14138053809777862  1.0000
  C   C39       1.0  0.009295997507502651  0.6541110519109796  0.1484420007070375  1.0000
  C   C40       1.0  0.10787500572241693  0.9600828478612022  0.03676098397983041  1.0000
  N   N4        1.0  0.1606222608792125  0.926551996484696  0.9445575445742809  1.0000
  H   H22       1.0  0.8071740441728567  0.3696402591800996  0.5271265200124222  1.0000
  H   H23       1.0  0.8945603740142013  0.5445000406086946  0.2766747532231506  1.0000
  H   H24       1.0  0.8957612342434553  0.5423013986360821  0.8597126794889864  1.0000
  H   H25       1.0  0.7630378230816601  0.2828871320771347  0.08687187704676869  1.0000
  H   H26       1.0  0.8070396755161783  0.3698812058054759  0.6341620492850617  1.0000
  H   H27       1.0  0.9066786169456984  0.7707515051763845  0.8952069435978665  1.0000
  H   H28       1.0  0.9942750340822749  0.9408614663611208  0.8822581632876507  1.0000
  H   H29       1.0  0.1015776497201506  0.7454200527895785  0.20969972040681317  1.0000
  H   H30       1.0  0.014939369666716606  0.5736000136761028  0.22189425542871488  1.0000
  H   H31       1.0  0.08408697191795267  0.05550546131176182  0.003169271148451447  1.0000
  H   H32       1.0  0.13159950970478307  0.9709977829269039  0.13391874338793164  1.0000
  H   H33       1.0  0.1953280407484237  0.0036648365725615584  0.9350531197539032  1.0000
  H   H34       1.0  0.18823716655468248  0.8457886967645429  0.985688630522704  1.0000
  Zn  Zn1       1.0  0.7506863378075591  0.4084495080563526  0.5770027550379266  1.0000
  Zn  Zn2       1.0  0.9014549294940627  0.4059332922101748  0.5789180009869686  1.0000
  C   C41       1.0  0.8260440837362972  0.40207128027273176  0.815146738191969  1.0000
  C   C42       1.0  0.8260988296723536  0.4123131311644115  0.34077416606205824  1.0000
  C   C43       1.0  0.8260325700333654  0.6443825923668725  0.5727644881752334  1.0000
  C   C44       1.0  0.8261102921729399  0.17000025964241927  0.5831564848006976  1.0000
  O   O2        1.0  0.8833073553905287  0.4131001345842431  0.3898847538630843  1.0000
  O   O3        1.0  0.8832654307651993  0.39937354744081244  0.7674894040071754  1.0000
  O   O4        1.0  0.8832553618409075  0.5950430095773018  0.5717640123051084  1.0000
  O   O5        1.0  0.8833173728781722  0.21743068257471632  0.5856100475400312  1.0000
  O   O6        1.0  0.7688238429735291  0.5969521185518851  0.570310707824454  1.0000
  O   O7        1.0  0.768833911650246  0.4012842167033195  0.7660360301442066  1.0000
  O   O8        1.0  0.768875836520535  0.41501075823934785  0.3884298186669657  1.0000
  O   O9        1.0  0.7688858539949064  0.2193412969629318  0.5841552097086224  1.0000
