data_image0
_chemical_formula_structural       NC9NC5H8C12ClH9C12SCH12Zn2C4O8
_chemical_formula_sum              "N2 C43 H29 Cl1 S1 Zn2 O8"
_cell_length_a       17.807436237873137
_cell_length_b       10.299768534541528
_cell_length_c       10.299780138516091
_cell_angle_alpha    85.57853540926422
_cell_angle_beta     89.38476460054896
_cell_angle_gamma    88.408414792471

_space_group_name_H-M_alt    "P 1"
_space_group_IT_number       1

loop_
  _space_group_symop_operation_xyz
  'x, y, z'

loop_
  _atom_site_type_symbol
  _atom_site_label
  _atom_site_symmetry_multiplicity
  _atom_site_fract_x
  _atom_site_fract_y
  _atom_site_fract_z
  _atom_site_occupancy
  N   N1        1.0  0.7077838727276727  0.38731079471714036  0.5572145125107004  1.0000
  C   C1        1.0  0.6471906908848031  0.35211857237057154  0.546190417911022  1.0000
  C   C2        1.0  0.571819432428686  0.3083433233367665  0.5324776412134613  1.0000
  C   C3        1.0  0.5537231373343441  0.23689929993830905  0.4274778678739217  1.0000
  C   C4        1.0  0.48054152058569094  0.19428538842864418  0.4140810185241568  1.0000
  C   C5        1.0  0.4244074129485677  0.22273796870488627  0.5056514854037022  1.0000
  C   C6        1.0  0.3466342340261644  0.17756529391888187  0.491496176974604  1.0000
  C   C7        1.0  0.284470986681587  0.259327354493192  0.5174354869777897  1.0000
  C   C8        1.0  0.2111470262979366  0.21651041284436423  0.504052314518594  1.0000
  C   C9        1.0  0.1479341597175532  0.3009638777415362  0.530355560854195  1.0000
  N   N2        1.0  0.0971240022534062  0.36885862100718536  0.5515026443453332  1.0000
  C   C10       1.0  0.1994027225472368  0.0916734284118057  0.46470447870384923  1.0000
  C   C11       1.0  0.2607085981677407  0.009897513386730061  0.4387567791010547  1.0000
  C   C12       1.0  0.3339130694845466  0.052319863183389215  0.4519374144611312  1.0000
  C   C13       1.0  0.4431951867938615  0.2946764121608061  0.610870488202242  1.0000
  C   C14       1.0  0.5164296519584469  0.33709988800778046  0.6241116898099468  1.0000
  H   H1        1.0  0.5961196045256717  0.21439377640607815  0.3557676800392391  1.0000
  H   H2        1.0  0.4676256188802347  0.14058019026487356  0.3311630332376527  1.0000
  H   H3        1.0  0.2929842370414328  0.356798656981576  0.5463130713210889  1.0000
  H   H4        1.0  0.1429322260362276  0.05763499118905169  0.45410942650840225  1.0000
  H   H5        1.0  0.2514972510774984  0.9132459468272219  0.408678847920223  1.0000
  H   H6        1.0  0.3805432207985029  0.9865706269698175  0.4328886284095088  1.0000
  H   H7        1.0  0.401515396642993  0.3166432715694192  0.6838751111040964  1.0000
  H   H8        1.0  0.5298742127974775  0.3920253462466756  0.7059881133541914  1.0000
  C   C15       1.0  0.9023866699401536  0.9967225155647353  0.5543574652242869  1.0000
  C   C16       1.0  0.9073454438958942  0.006014570843484002  0.41782212214252756  1.0000
  C   C17       1.0  0.9099303168377136  0.8935801411501282  0.3486449069103372  1.0000
  C   C18       1.0  0.9074889262727809  0.7707200576612662  0.41783550641563916  1.0000
  C   C19       1.0  0.902528385001091  0.7594365570865106  0.5543708133780516  1.0000
  C   C20       1.0  0.9000055893940346  0.8729933411622715  0.6218671860173972  1.0000
  C   C21       1.0  0.9151772851799155  0.9044639814796663  0.20420188141821338  1.0000
  C   C22       1.0  0.8724441631215744  8.24883710315305e-06  0.13036845070982173  1.0000
  C   C23       1.0  0.8774496948941269  0.01005346457341938  0.9944215726303982  1.0000
  C   C24       1.0  0.9251159346635854  0.9250795007729603  0.9306174082786143  1.0000
  C   C25       1.0  0.9678368655882463  0.8298476278475618  0.0029398674284635273  1.0000
  C   C26       1.0  0.9629647445872983  0.819403842227465  0.13889943088380075  1.0000
  Cl  Cl1       1.0  0.931312411356969  0.9379327265566503  0.7600494141723235  1.0000
  H   H9        1.0  0.9004585864954335  0.32063736131815745  0.6063814645962697  1.0000
  H   H10       1.0  0.9102460389742  0.10087454344314639  0.3650494256897088  1.0000
  H   H11       1.0  0.90842898992707  0.6838267305367463  0.36487802664622926  1.0000
  H   H12       1.0  0.8961793627136269  0.8650567955966155  0.7271979292593398  1.0000
  H   H13       1.0  0.9006680982043231  0.42768185308983087  0.6064016187565935  1.0000
  H   H14       1.0  0.834455987890941  0.06579778871961373  0.17766705587765408  1.0000
  H   H15       1.0  0.844098828078782  0.08373211015585302  0.9388016916653705  1.0000
  H   H16       1.0  0.0049873502540960235  0.764050695631551  0.9539641520444953  1.0000
  H   H17       1.0  0.9972690380724115  0.7459728966043316  0.1930110887334413  1.0000
  C   C27       1.0  0.9024876990868216  0.377966825213804  0.1730115983007754  1.0000
  C   C28       1.0  0.8310463050923896  0.3233416788434891  0.17755292219861163  1.0000
  C   C29       1.0  0.794816683048439  0.2957783552420734  0.0627075685130436  1.0000
  C   C30       1.0  0.8309848423221415  0.3235700286035743  0.942249931970649  1.0000
  C   C31       1.0  0.9024273559327337  0.3781922984555097  0.9357167532930966  1.0000
  C   C32       1.0  0.9377786931412533  0.40508560872627664  0.05162644878918887  1.0000
  C   C33       1.0  0.7192366519207358  0.23800460508751553  0.06857473298417394  1.0000
  C   C34       1.0  0.6636057894742239  0.28230172456733427  0.9784352377273295  1.0000
  C   C35       1.0  0.5924863263758311  0.22789419222865703  0.9841936790819044  1.0000
  C   C36       1.0  0.5759605301416976  0.1288685459796064  0.07999682546466591  1.0000
  C   C37       1.0  0.630922636844908  0.08380419580395926  0.16974046505611007  1.0000
  C   C38       1.0  0.7020885451948393  0.13803609874094525  0.16434374672622698  1.0000
  S   S1        1.0  0.4847352725918447  0.05892154249067039  0.08693502546377596  1.0000
  C   C39       1.0  0.4462307072867098  0.17496057130891818  0.1962311838692561  1.0000
  H   H18       1.0  0.9297210870898578  0.39873346633956497  0.49873799388725226  1.0000
  H   H19       1.0  0.8029664455455374  0.30375035963643615  0.2705137907403161  1.0000
  H   H20       1.0  0.803737746392645  0.300860186595828  0.8535769651330676  1.0000
  H   H21       1.0  0.9928928620682224  0.44722579207509794  0.04735463607051771  1.0000
  H   H22       1.0  0.929633593415269  0.39906507370480826  0.6057697153657471  1.0000
  H   H23       1.0  0.6747915122318383  0.36013866470676414  0.9045944721109276  1.0000
  H   H24       1.0  0.5501634684205425  0.2632329750897273  0.9144839502685107  1.0000
  H   H25       1.0  0.6185888186337435  0.006717635934580635  0.2437229525275919  1.0000
  H   H26       1.0  0.74400682506279  0.10066552131669226  0.23395855418127898  1.0000
  H   H27       1.0  0.47799714314477754  0.16742500474870337  0.2887791413470844  1.0000
  H   H28       1.0  0.3866079982378723  0.15265777999813768  0.2178777180372684  1.0000
  H   H29       1.0  0.4491533484955136  0.27554310964529694  0.1495990576444146  1.0000
  Zn  Zn1       1.0  0.8201390214680623  0.38198243296996814  0.5555737011507969  1.0000
  Zn  Zn2       1.0  0.9847688325042472  0.37417639992733776  0.5531541316735367  1.0000
  C   C40       1.0  0.9024361174416003  0.3729761677516248  0.7915490589021508  1.0000
  C   C41       1.0  0.9024735345774804  0.3831842185317411  0.31717887499032016  1.0000
  C   C42       1.0  0.9024981341353557  0.6152660570062993  0.5491934343109031  1.0000
  C   C43       1.0  0.9024114614117099  0.14089277168675873  0.5595345696154597  1.0000
  O   O1        1.0  0.9649449350988729  0.38196720889332725  0.36464451592524605  1.0000
  O   O2        1.0  0.9649149340697031  0.3682675991146569  0.7422466468717999  1.0000
  O   O3        1.0  0.9649641710189139  0.563919789194723  0.546542777709971  1.0000
  O   O4        1.0  0.9648956419820902  0.18631503073820155  0.5603482885423807  1.0000
  O   O5        1.0  0.840012155810145  0.569843804824332  0.5483795451008024  1.0000
  O   O6        1.0  0.8399629191528754  0.37419317499980154  0.7440833450475892  1.0000
  O   O7        1.0  0.839992920347147  0.38789273905940136  0.3664796527657648  1.0000
  O   O8        1.0  0.8399436272178624  0.1922405516445631  0.5621835227464433  1.0000
