data_image0
_chemical_formula_structural       NC12NC2H8C12OCH12C13NH9Zn2C4O8
_chemical_formula_sum              "N3 C44 H29 O9 Zn2"
_cell_length_a       19.240039667572717
_cell_length_b       10.29979075500242
_cell_length_c       10.298528502251457
_cell_angle_alpha    85.53676387981383
_cell_angle_beta     89.99709375093414
_cell_angle_gamma    89.9807799165636

_space_group_name_H-M_alt    "P 1"
_space_group_IT_number       1

loop_
  _space_group_symop_operation_xyz
  'x, y, z'

loop_
  _atom_site_type_symbol
  _atom_site_label
  _atom_site_symmetry_multiplicity
  _atom_site_fract_x
  _atom_site_fract_y
  _atom_site_fract_z
  _atom_site_occupancy
  N   N1        1.0  0.6542607037616127  0.421756953225771  0.567201615379213  1.0000
  C   C1        1.0  0.5941123349314704  0.42175703723463975  0.567201533427903  1.0000
  C   C2        1.0  0.5192942977729648  0.4217571545667058  0.5672013961002904  1.0000
  C   C3        1.0  0.4828293591900508  0.3572568214452996  0.6706294694934001  1.0000
  C   C4        1.0  0.4101586286570742  0.3571459110715751  0.6707160279117057  1.0000
  C   C5        1.0  0.3729620628251784  0.42175724720920393  0.567201168385614  1.0000
  C   C6        1.0  0.4101411753416487  0.48636877026608505  0.4636865034155715  1.0000
  C   C7        1.0  0.48281188141136633  0.48625762435198383  0.46377318436106507  1.0000
  C   C8        1.0  0.2957569724022613  0.4217571685808996  0.5672010729618513  1.0000
  C   C9        1.0  0.2585883681238303  0.30848251947622374  0.6090822889100818  1.0000
  C   C10       1.0  0.1859176630167727  0.30858945047709296  0.6089909470914889  1.0000
  C   C11       1.0  0.1494246855006107  0.42175703938771414  0.5672011338857401  1.0000
  C   C12       1.0  0.0746066483593481  0.42175692556035216  0.5672013825829234  1.0000
  N   N2        1.0  0.0144583315089342  0.421756884665762  0.5672015910302428  1.0000
  C   C13       1.0  0.1858792188288773  0.5349247041437291  0.525411267779107  1.0000
  C   C14       1.0  0.2585498982958935  0.5350318153204014  0.5253197633372586  1.0000
  H   H1        1.0  0.5105510008223416  0.30731902915949316  0.7513831514440559  1.0000
  H   H2        1.0  0.3830719240300711  0.3080058195157356  0.7525853193947938  1.0000
  H   H3        1.0  0.3830413491770428  0.5355088888916264  0.3818171610764396  1.0000
  H   H4        1.0  0.510520011252692  0.5361953162814159  0.38301977824498135  1.0000
  H   H5        1.0  0.285696808765571  0.21931682108734107  0.6402579197584866  1.0000
  H   H6        1.0  0.1582177970485147  0.22032257561197977  0.6411996324213816  1.0000
  H   H7        1.0  0.1581492613533576  0.6231915544671065  0.49320259700260327  1.0000
  H   H8        1.0  0.2856279364583572  0.6241975929009  0.4941440877080605  1.0000
  C   C15       1.0  0.8344253132138086  0.04038916015593852  0.5672405419287874  1.0000
  C   C16       1.0  0.8143031047606482  0.0291773152941579  0.6986953280137063  1.0000
  C   C17       1.0  0.8040518752832987  0.9063599144969671  0.7652713123597346  1.0000
  C   C18       1.0  0.8141782405585396  0.7938950449949534  0.6986295345812954  1.0000
  C   C19       1.0  0.8343004181829768  0.8031146754129348  0.5671738158630437  1.0000
  C   C20       1.0  0.8443128994865828  0.9268026227169393  0.502216054017627  1.0000
  C   C21       1.0  0.7827679529010705  0.8955525207497024  0.9043443513932088  1.0000
  C   C22       1.0  0.7320546050328548  0.8046706104047648  0.9494156464359513  1.0000
  C   C23       1.0  0.7120853339160799  0.7947726991163031  0.08017132152346595  1.0000
  C   C24       1.0  0.7423797424672043  0.8750875698343469  0.16753059381030488  1.0000
  C   C25       1.0  0.79327807165933  0.9665779132534612  0.12433124248030003  1.0000
  C   C26       1.0  0.8130318921989632  0.9761148203998818  0.9930488007632283  1.0000
  O   O1        1.0  0.8254023691146689  0.04924861754035659  0.2082103305450369  1.0000
  C   C27       1.0  0.8104982269853758  0.0501784869320514  0.3435636436883729  1.0000
  H   H9        1.0  0.8421231526849393  0.3721128241509719  0.5171719203053222  1.0000
  H   H10       1.0  0.8056344875616079  0.11618585389060754  0.7491305027557749  1.0000
  H   H11       1.0  0.807248235925864  0.6989767871138186  0.7500039415947317  1.0000
  H   H12       1.0  0.8598368680458728  0.934683690856418  0.40080424049390095  1.0000
  H   H13       1.0  0.8419333038683848  0.4791763170015164  0.5170675543683554  1.0000
  H   H14       1.0  0.7071970476858762  0.7424649902525402  0.8831977044152848  1.0000
  H   H15       1.0  0.6728313666943311  0.7247907595669258  0.11385440854900675  1.0000
  H   H16       1.0  0.7259061866239037  0.8653025019560405  0.26820998432238385  1.0000
  H   H17       1.0  0.8528466045840503  0.04567001515713365  0.9608787635924183  1.0000
  H   H18       1.0  0.8225029043240295  0.9536315473405701  0.39419265793233693  1.0000
  H   H19       1.0  0.8432946272700166  0.12480257610288636  0.38578331929678567  1.0000
  H   H20       1.0  0.7550143769526605  0.07508405311920963  0.35800097433179234  1.0000
  C   C28       1.0  0.8343727141538451  0.42187840599489124  0.1857903162833443  1.0000
  C   C29       1.0  0.7621139124640373  0.44174028579286095  0.18329849689293254  1.0000
  C   C30       1.0  0.7255069879659504  0.45166422908866943  0.06488939353924006  1.0000
  C   C31       1.0  0.7620932084301633  0.4414754274294037  0.9480388164332072  1.0000
  C   C32       1.0  0.8343529973495573  0.42162542722972063  0.9486240578425034  1.0000
  C   C33       1.0  0.8700300485920232  0.4119512639055898  0.06796663031614947  1.0000
  C   C34       1.0  0.6491149018055781  0.47265650795184566  0.06326271149175988  1.0000
  C   C35       1.0  0.6184138740893987  0.5605872173312758  0.14417107852473499  1.0000
  C   C36       1.0  0.5465060894533723  0.5803002077583541  0.14252040834351454  1.0000
  C   C37       1.0  0.5043425057128547  0.5124419300359697  0.06017729423254581  1.0000
  C   C38       1.0  0.5343575228476705  0.4247475541817858  0.9793729139197933  1.0000
  C   C39       1.0  0.6062579039467739  0.404940199498097  0.9807869821183139  1.0000
  C   C40       1.0  0.4303133579998359  0.5327871687483381  0.058598587407778346  1.0000
  N   N3        1.0  0.370798915113163  0.549143491748207  0.057329448591054044  1.0000
  H   H21       1.0  0.9708560697369271  0.3835388979988843  0.39788628215015853  1.0000
  H   H22       1.0  0.7340438137023215  0.44774809093594947  0.2738135995477755  1.0000
  H   H23       1.0  0.7342839989702512  0.45082260922491146  0.8563340395930181  1.0000
  H   H24       1.0  0.9257213030368356  0.39664804199309533  0.0691522442060688  1.0000
  H   H25       1.0  0.9709645094072005  0.38492869532023977  0.7423419396822211  1.0000
  H   H26       1.0  0.6501077493536518  0.6153552791298691  0.20746930794226315  1.0000
  H   H27       1.0  0.5238369184830094  0.6486902524976563  0.20522147718256778  1.0000
  H   H28       1.0  0.5021830324994224  0.3714296481942587  0.9155028291076612  1.0000
  H   H29       1.0  0.6282448544428725  0.33541997145560676  0.9186327922540412  1.0000
  Zn  Zn1       1.0  0.758205967978234  0.42175346376574585  0.5672090980235283  1.0000
  Zn  Zn2       1.0  0.9105130875243426  0.4217497771626535  0.567204709545059  1.0000
  C   C41       1.0  0.8343560189077897  0.41649960863016555  0.8044326232328078  1.0000
  C   C42       1.0  0.8343646995121351  0.4270052708303427  0.32998131162709066  1.0000
  C   C43       1.0  0.8343205650783454  0.6589450576835887  0.5620106438530692  1.0000
  C   C44       1.0  0.8344001016235547  0.1845582614573451  0.5724033603920708  1.0000
  O   O2        1.0  0.8921617687655969  0.42871882873262956  0.37837146195606275  1.0000
  O   O3        1.0  0.8921565294130894  0.41478227308586657  0.7560387683428091  1.0000
  O   O4        1.0  0.8921271207941426  0.6105600389087236  0.560281304722346  1.0000
  O   O5        1.0  0.8921911254134369  0.232941072233517  0.5741288281902948  1.0000
  O   O6        1.0  0.7765278781141945  0.6105621686975564  0.5602849793729583  1.0000
  O   O7        1.0  0.7765572864762214  0.4147859631969477  0.7560423736028448  1.0000
  O   O8        1.0  0.7765625259227312  0.4287224741056881  0.37837350562296357  1.0000
  O   O9        1.0  0.7765918825667331  0.23294470828550518  0.574130969238092  1.0000
