data_image0
_chemical_formula_structural       NC12NC2H8C12OCH12C13F3H9Zn2C4O8
_chemical_formula_sum              "N2 C44 H29 O9 F3 Zn2"
_cell_length_a       19.240039667572717
_cell_length_b       10.29979075500242
_cell_length_c       10.2985328690268
_cell_angle_alpha    85.57397699723032
_cell_angle_beta     90.00547390957905
_cell_angle_gamma    89.9807799165636

_space_group_name_H-M_alt    "P 1"
_space_group_IT_number       1

loop_
  _space_group_symop_operation_xyz
  'x, y, z'

loop_
  _atom_site_type_symbol
  _atom_site_label
  _atom_site_symmetry_multiplicity
  _atom_site_fract_x
  _atom_site_fract_y
  _atom_site_fract_z
  _atom_site_occupancy
  N   N1        1.0  0.6541487031856364  0.4208237648806221  0.5672745450917396  1.0000
  C   C1        1.0  0.5940003343490882  0.4208238488361158  0.567274463144601  1.0000
  C   C2        1.0  0.5191822971798478  0.4208239660787394  0.5672743258239779  1.0000
  C   C3        1.0  0.48272544347748386  0.35639099614931347  0.6706971347083188  1.0000
  C   C4        1.0  0.4100547197107018  0.3562801421514945  0.6707836887207845  1.0000
  C   C5        1.0  0.3728500622142611  0.42082405857292615  0.5672740981208924  1.0000
  C   C6        1.0  0.4100210830813946  0.48536816204032496  0.46376470206714604  1.0000
  C   C7        1.0  0.48269179592688477  0.4852570725819323  0.46385137860056314  1.0000
  C   C8        1.0  0.2956449717838848  0.420823979882472  0.5672740027019869  1.0000
  C   C9        1.0  0.2584796413228723  0.30757660821125965  0.6091530868882944  1.0000
  C   C10       1.0  0.18580892907570598  0.3076834797207717  0.6090617497190178  1.0000
  C   C11       1.0  0.1493126848869966  0.42082385072896633  0.5672740636227747  1.0000
  C   C12       1.0  0.0744946477651744  0.4208237370635821  0.567274312307299  1.0000
  N   N2        1.0  0.014346330931054698  0.4208236963047549  0.5672745207440082  1.0000
  C   C13       1.0  0.1857639515385806  0.5339642975480996  0.5254863246283399  1.0000
  C   C14       1.0  0.2584346238527759  0.534071349127498  0.5253948248440847  1.0000
  H   H1        1.0  0.5104533975533032  0.30650579911740516  0.7514467062810781  1.0000
  H   H2        1.0  0.38297441473343263  0.3071933724513032  0.7526488130412372  1.0000
  H   H3        1.0  0.3829148572630794  0.5344549587770953  0.381899526893239  1.0000
  H   H4        1.0  0.5103936133462434  0.5351421694371183  0.383102082848336  1.0000
  H   H5        1.0  0.2855905189359615  0.21843121465777648  0.6403271308911112  1.0000
  H   H6        1.0  0.1581115808317469  0.21943758252431378  0.6412687956206504  1.0000
  H   H7        1.0  0.1580314763398996  0.6222101702123006  0.4932792932793548  1.0000
  H   H8        1.0  0.2855102250403906  0.6232168218434315  0.49422073606275463  1.0000
  C   C15       1.0  0.8343133156806861  0.039455997163834855  0.5673134696599451  1.0000
  C   C16       1.0  0.8142013829312914  0.028329769424187745  0.698761564671045  1.0000
  C   C17       1.0  0.8039553576394526  0.9055557298795812  0.7653341602867036  1.0000
  C   C18       1.0  0.8140765135861688  0.7930474562734103  0.698695774587532  1.0000
  C   C19       1.0  0.8341884154339371  0.8021814689618298  0.5672467469905706  1.0000
  C   C20       1.0  0.8441958190470468  0.9258271089691962  0.5022922915076877  1.0000
  C   C21       1.0  0.7826823064730504  0.8948389150585239  0.9044001204758223  1.0000
  C   C22       1.0  0.7319724817879002  0.8039863598606095  0.9494691213810045  1.0000
  C   C23       1.0  0.712013431726006  0.7941736103599912  0.08021814097958391  1.0000
  C   C24       1.0  0.7423146690737831  0.874545378584072  0.16757296666271182  1.0000
  C   C25       1.0  0.7932096214110191  0.9660075860619319  0.12437581418797339  1.0000
  C   C26       1.0  0.8129531797188929  0.9754589883349187  0.9931000547723594  1.0000
  O   O1        1.0  0.825340475620104  0.04873292119446737  0.20825063279104328  1.0000
  C   C27       1.0  0.8104469139389712  0.049750946837354704  0.34359705642478533  1.0000
  H   H9        1.0  0.8420072413321754  0.37114705122947544  0.5172473965389215  1.0000
  H   H10       1.0  0.8055367082050242  0.11537115668780484  0.7491941722530475  1.0000
  H   H11       1.0  0.8071505248452179  0.6981626587858512  0.7500675666337997  1.0000
  H   H12       1.0  0.859711860335028  0.933642127116257  0.4008856398647169  1.0000
  H   H13       1.0  0.8418173843574283  0.47821047610599304  0.5171430359142006  1.0000
  H   H14       1.0  0.7071097482432611  0.7417376116504553  0.8832545498662849  1.0000
  H   H15       1.0  0.6727620974812257  0.7242136087640473  0.11389951352953609  1.0000
  H   H16       1.0  0.7258489832489352  0.864825883667622  0.26824723257450767  1.0000
  H   H17       1.0  0.8527653774007731  0.04499323059524363  0.9609316550626099  1.0000
  H   H18       1.0  0.8224555489026593  0.9532369821616229  0.39422349364221587  1.0000
  H   H19       1.0  0.8432466144981211  0.12440253388202627  0.3858145830436137  1.0000
  H   H20       1.0  0.7549641924595575  0.07466591612604923  0.3580336522053067  1.0000
  C   C28       1.0  0.8342308989956909  0.4206968026718605  0.18588265990413277  1.0000
  C   C29       1.0  0.9039298956983952  0.37980557489960565  0.18809933412930246  1.0000
  C   C30       1.0  0.9392468800046657  0.3592043495365831  0.07205167379957  1.0000
  C   C31       1.0  0.9039708851619159  0.38006119076108047  0.9527986352561189  1.0000
  C   C32       1.0  0.834270807363067  0.4209407137418506  0.9486776128303283  1.0000
  C   C33       1.0  0.7998459316018354  0.44099229014001984  0.0657170183579765  1.0000
  C   C34       1.0  0.012935315149502857  0.31598475733298304  0.07532966333018964  1.0000
  C   C35       1.0  0.06091713692589251  0.37058501285987555  0.9837832196119867  1.0000
  C   C36       1.0  0.1302678167423923  0.3300117026492464  0.9868897244854975  1.0000
  C   C37       1.0  0.15289891901917407  0.23261596847309307  0.08036974172060951  1.0000
  C   C38       1.0  0.10531911538438887  0.1798347515134986  0.17349335328155946  1.0000
  C   C39       1.0  0.035972954400631973  0.2204411165767135  0.1704977664984566  1.0000
  C   C40       1.0  0.22826042205777153  0.19232955573874344  0.08665677822004847  1.0000
  F   F1        1.0  0.2638910109097652  0.2716438322784087  0.1661345211591867  1.0000
  F   F2        1.0  0.2578578149461703  0.20350267966601132  0.9637985874844803  1.0000
  F   F3        1.0  0.23471799302936502  0.06420890264874135  0.13655406732020614  1.0000
  H   H21       1.0  0.7026580552244887  0.498784538774963  0.38895582699615683  1.0000
  H   H22       1.0  0.931150060369394  0.36564607924698755  0.2801795718540614  1.0000
  H   H23       1.0  0.9306660198657449  0.36267972782333824  0.8631694722363443  1.0000
  H   H24       1.0  0.7461273107384351  0.47250271877957983  0.06327546002061912  1.0000
  H   H25       1.0  0.7024357033597535  0.4974449200629223  0.7336216726966001  1.0000
  H   H26       1.0  0.045066669525203995  0.4463489978631012  0.9110473123460752  1.0000
  H   H27       1.0  0.16629355128777745  0.37523782422857943  0.9164004816274862  1.0000
  H   H28       1.0  0.1217247675707871  0.10696229155613679  0.2486718857746828  1.0000
  H   H29       1.0  0.0001973950696136928  0.17616901825993825  0.24200660294184106  1.0000
  Zn  Zn1       1.0  0.7580939679871693  0.4208202802940786  0.5672820273551864  1.0000
  Zn  Zn2       1.0  0.9104010871902344  0.42081659083274947  0.5672776391000918  1.0000
  C   C41       1.0  0.8342625624688002  0.4157209299592408  0.8044934778415438  1.0000
  C   C42       1.0  0.8342341556359021  0.42591757978260136  0.3300663158985666  1.0000
  C   C43       1.0  0.8342081587287397  0.6580084884342035  0.5620838377870416  1.0000
  C   C44       1.0  0.8342885076633618  0.18362846103325525  0.5724760253347785  1.0000
  O   O2        1.0  0.8920350075043963  0.4276626544180111  0.378454003159608  1.0000
  O   O3        1.0  0.8920592900694853  0.41397207526902124  0.7561020862080388  1.0000
  O   O4        1.0  0.8920145792636343  0.6096223433326067  0.5603545866800124  1.0000
  O   O5        1.0  0.8920796663315277  0.23201239561474152  0.5742014053063607  1.0000
  O   O6        1.0  0.7764153368709307  0.6096244755147568  0.5603582611435836  1.0000
  O   O7        1.0  0.7764600474144371  0.41397576772822475  0.7561056912845658  1.0000
  O   O8        1.0  0.7764357648212822  0.4276663011221191  0.3784560467224858  1.0000
  O   O9        1.0  0.7764804236521878  0.232016033061204  0.5742035462451782  1.0000
