data_image0
_chemical_formula_structural       NC12NC2H8C12NH11C12BrH9Zn2C4O8
_chemical_formula_sum              "N3 C42 H28 Br1 Zn2 O8"
_cell_length_a       17.80743265337812
_cell_length_b       10.299770795358612
_cell_length_c       10.299148005577397
_cell_angle_alpha    85.54782545814984
_cell_angle_beta     91.50743167608279
_cell_angle_gamma    89.45311437677636

_space_group_name_H-M_alt    "P 1"
_space_group_IT_number       1

loop_
  _space_group_symop_operation_xyz
  'x, y, z'

loop_
  _atom_site_type_symbol
  _atom_site_label
  _atom_site_symmetry_multiplicity
  _atom_site_fract_x
  _atom_site_fract_y
  _atom_site_fract_z
  _atom_site_occupancy
  N   N1        1.0  0.7080383267088395  0.40682228523079145  0.601220466847707  1.0000
  C   C1        1.0  0.6572417327782502  0.43638805167917183  0.5325185261548782  1.0000
  C   C2        1.0  0.5940457525026314  0.47316571865328094  0.4470619602474497  1.0000
  C   C3        1.0  0.6058151460992544  0.5271992446850589  0.32043633107109804  1.0000
  C   C4        1.0  0.5445256256739641  0.562473080571017  0.23737588603327486  1.0000
  C   C5        1.0  0.4713126279581051  0.5439769219113069  0.2802811384286148  1.0000
  C   C6        1.0  0.45856631760211347  0.48982454515296237  0.4073749272933447  1.0000
  C   C7        1.0  0.5207131590148579  0.4545539648558712  0.49041886009029345  1.0000
  C   C8        1.0  0.38078416763681855  0.47021396923858694  0.4531405998303899  1.0000
  C   C9        1.0  0.36197015536516947  0.4973872401428452  0.5801863080656393  1.0000
  C   C10       1.0  0.2887272084929116  0.47893265048684075  0.623132121980353  1.0000
  C   C11       1.0  0.2333550430399592  0.43305043378740815  0.5398702290976471  1.0000
  C   C12       1.0  0.15797503164203444  0.41404287805081874  0.5842170326233724  1.0000
  N   N2        1.0  0.0973748405472647  0.3987620815939925  0.6198688118958355  1.0000
  C   C13       1.0  0.25147739222994236  0.405708195815214  0.41336751199482014  1.0000
  C   C14       1.0  0.3246675526457493  0.42417759689024637  0.37016580447393577  1.0000
  H   H1        1.0  0.6622923072251947  0.5420264487390618  0.2859977367394715  1.0000
  H   H2        1.0  0.5537563126213497  0.6045799025782603  0.13959227519575879  1.0000
  H   H3        1.0  0.42469539742205814  0.5736189812028121  0.21468720944541908  1.0000
  H   H4        1.0  0.5121806477814882  0.41106185240879234  0.588078100209795  1.0000
  H   H5        1.0  0.40363608643928683  0.5345597109951723  0.6457588124924383  1.0000
  H   H6        1.0  0.2752623521041122  0.5007681761230749  0.7211419946810838  1.0000
  H   H7        1.0  0.2090946947198774  0.3698029600814634  0.34820790032216054  1.0000
  H   H8        1.0  0.3376036710911431  0.400806499333092  0.2724593602206753  1.0000
  C   C15       1.0  0.9026420920789435  0.021424985079627756  0.6105811251401487  1.0000
  C   C16       1.0  0.880872811161353  0.0310704143867524  0.47812148489349804  1.0000
  C   C17       1.0  0.869911060960097  0.9188202502367014  0.4109713448761836  1.0000
  C   C18       1.0  0.8810103342713718  0.795785964078177  0.4780595156694989  1.0000
  C   C19       1.0  0.9027782555339433  0.7841492710241695  0.6105196413666178  1.0000
  C   C20       1.0  0.9134725991178302  0.8975261715648367  0.6760385793805299  1.0000
  C   C21       1.0  0.8468807541513989  0.9300779529770038  0.2708367493478321  1.0000
  C   C22       1.0  0.7921904894212487  0.02239476657899364  0.22302780504382125  1.0000
  C   C23       1.0  0.770546577166693  0.032860624380626424  0.09113360570726492  1.0000
  C   C24       1.0  0.8031832362646157  0.9514379026611948  0.004948484972290279  1.0000
  C   C25       1.0  0.8576934668072252  0.8593230298703993  0.05185820293294441  1.0000
  C   C26       1.0  0.8793975677735771  0.848599904693154  0.18372531066025877  1.0000
  N   N3        1.0  0.7810123081275601  0.9622751684198263  0.8700443888302059  1.0000
  H   H9        1.0  0.9109052414230449  0.3452025472562139  0.6610699916530751  1.0000
  H   H10       1.0  0.8733869445697523  0.12613831227982897  0.4264081323120683  1.0000
  H   H11       1.0  0.8716384413804474  0.7089585207890319  0.42719597685482147  1.0000
  H   H12       1.0  0.9302660421873897  0.8893171354021915  0.7782252972188892  1.0000
  H   H13       1.0  0.9111055085427753  0.4522620366587978  0.6609799553019757  1.0000
  H   H14       1.0  0.7654488672990406  0.08534965338367062  0.28795346833630364  1.0000
  H   H15       1.0  0.7282005858474815  0.10422333260817496  0.05619212437825993  1.0000
  H   H16       1.0  0.8835061942562551  0.7960419208173072  0.9861987403667007  1.0000
  H   H17       1.0  0.9223198650707035  0.7777357507225032  0.21725478146535604  1.0000
  H   H18       1.0  0.8050216826678049  0.9019926167454317  0.8050514722698039  1.0000
  H   H19       1.0  0.7404249795382506  0.030661600719785076  0.8341639245175068  1.0000
  C   C27       1.0  0.902812583554584  0.40283704399401454  0.22916711333466622  1.0000
  C   C28       1.0  0.8321597311587771  0.46507953129746027  0.220340556416883  1.0000
  C   C29       1.0  0.7962314355542877  0.49658672765640754  0.09872197520553971  1.0000
  C   C30       1.0  0.8319089879917818  0.4650119172764602  0.9850515179810397  1.0000
  C   C31       1.0  0.9026077565455176  0.40273721259686757  0.9919336652948898  1.0000
  C   C32       1.0  0.9376240725469972  0.3720312703811852  0.11439432183491904  1.0000
  C   C33       1.0  0.7214897819932324  0.5624336882275056  0.0904294850384264  1.0000
  C   C34       1.0  0.7057276129829659  0.6640777483762874  0.16974349674821165  1.0000
  C   C35       1.0  0.635346810245579  0.7259437465731178  0.16174216525869411  1.0000
  C   C36       1.0  0.5799282468575181  0.6871473398243833  0.07472665797074374  1.0000
  C   C37       1.0  0.5949360177548769  0.5863057629129704  0.9955239768878767  1.0000
  C   C38       1.0  0.6652529110640224  0.5242191223951578  0.0031297285837945665  1.0000
  Br  Br1       1.0  0.4838323162080071  0.7718073961333425  0.06406628187915975  1.0000
  H   H20       1.0  0.9300040652014727  0.3789482684915455  0.5600344062644804  1.0000
  H   H21       1.0  0.8044421793634733  0.48759958428134853  0.30835050555559373  1.0000
  H   H22       1.0  0.8049336668074779  0.4906653247057169  0.8909407519408226  1.0000
  H   H23       1.0  0.9921214691702611  0.3240260023659949  0.12048647542235025  1.0000
  H   H24       1.0  0.03625787195202168  0.2859278662047957  0.7975844485731165  1.0000
  H   H25       1.0  0.74812270678381  0.6968171741377083  0.23667870656761836  1.0000
  H   H26       1.0  0.6240160458646341  0.8042446392369149  0.22299699426968012  1.0000
  H   H27       1.0  0.5520968999460794  0.5557275153179317  0.9282603065587844  1.0000
  H   H28       1.0  0.6753264769135078  0.44525496556555244  0.9420158381680168  1.0000
  Zn  Zn1       1.0  0.8203924351802611  0.4044928163273074  0.6066094638961237  1.0000
  Zn  Zn2       1.0  0.9850207248461883  0.40108095570127245  0.6144904091511367  1.0000
  C   C39       1.0  0.9026438830398273  0.39758245588321595  0.8477548194907834  1.0000
  C   C40       1.0  0.9027710749807393  0.40799291748318156  0.37334526695542447  1.0000
  C   C41       1.0  0.9027500449603044  0.6399788958855788  0.6053557500939617  1.0000
  C   C42       1.0  0.902664856586982  0.16559491834070728  0.615744403029949  1.0000
  O   O1        1.0  0.9652327212733499  0.4084228266842094  0.42472355050299604  1.0000
  O   O2        1.0  0.9651312992898093  0.39456204374312653  0.8023576172578903  1.0000
  O   O3        1.0  0.9652161838199106  0.5903002518439522  0.6066186132798599  1.0000
  O   O4        1.0  0.9651477805945713  0.21268462905054508  0.6204624544127053  1.0000
  O   O5        1.0  0.8402653232523245  0.5928891441437494  0.6006374159383434  1.0000
  O   O6        1.0  0.8401804390159496  0.3971524963487503  0.7963763505424595  1.0000
  O   O7        1.0  0.8402818614606508  0.4110132342374271  0.4187407223340447  1.0000
  O   O8        1.0  0.8401969207509958  0.21527502730231673  0.6144797236158639  1.0000
