data_image0
_chemical_formula_structural       NC12NC2H8C12SCH12C12NCOCH13Zn2C4O8
_chemical_formula_sum              "N3 C45 H33 S1 O9 Zn2"
_cell_length_a       17.80743265337812
_cell_length_b       10.299776766347529
_cell_length_c       10.299158637457994
_cell_angle_alpha    85.5824420436923
_cell_angle_beta     91.51607039334635
_cell_angle_gamma    89.41689066054833

_space_group_name_H-M_alt    "P 1"
_space_group_IT_number       1

loop_
  _space_group_symop_operation_xyz
  'x, y, z'

loop_
  _atom_site_type_symbol
  _atom_site_label
  _atom_site_symmetry_multiplicity
  _atom_site_fract_x
  _atom_site_fract_y
  _atom_site_fract_z
  _atom_site_occupancy
  N   N1        1.0  0.7074087593325489  0.40612594116925527  0.6013976257766411  1.0000
  C   C1        1.0  0.6565956437606699  0.4356575595539649  0.5327008066841039  1.0000
  C   C2        1.0  0.5933791120692267  0.47239275063335806  0.4472506115453707  1.0000
  C   C3        1.0  0.6051182217875861  0.5263633384508963  0.32063438045264614  1.0000
  C   C4        1.0  0.543808898349163  0.5615958900632607  0.2375800847559919  1.0000
  C   C5        1.0  0.4706062302523638  0.543121057354996  0.2804821357520071  1.0000
  C   C6        1.0  0.45789028626282174  0.4890318513966265  0.40756649911427667  1.0000
  C   C7        1.0  0.520056928120376  0.45380254717096946  0.4906042834523443  1.0000
  C   C8        1.0  0.3801191113396575  0.46944402303850175  0.4533287675679154  1.0000
  C   C9        1.0  0.3613058370628613  0.49668033119003363  0.5803724163005064  1.0000
  C   C10       1.0  0.2880732080632359  0.478247087566833  0.62331503113697  1.0000
  C   C11       1.0  0.23271078529996234  0.43232359603533443  0.5400519458308994  1.0000
  C   C12       1.0  0.1573414104944237  0.4133380826212596  0.5843954503601365  1.0000
  N   N2        1.0  0.0967497704988562  0.3980750066754115  0.620044577463724  1.0000
  C   C13       1.0  0.2508325035040064  0.40491859062047264  0.41355125361129863  1.0000
  C   C14       1.0  0.3240123192282656  0.4233665186002087  0.3703527556142565  1.0000
  H   H1        1.0  0.6615870986122738  0.5411734249109463  0.2861983540521049  1.0000
  H   H2        1.0  0.5530160606105058  0.6036541090277612  0.1398037658394069  1.0000
  H   H3        1.0  0.4239727104888231  0.5727305115025847  0.21489322469851002  1.0000
  H   H4        1.0  0.511548435777885  0.4103589778890946  0.5882561106335318  1.0000
  H   H5        1.0  0.40296371716301455  0.5338853064382723  0.6459459538224066  1.0000
  H   H6        1.0  0.27460860314020946  0.5001312423393873  0.7213233940441819  1.0000
  H   H7        1.0  0.20845742992212804  0.36898105376899704  0.3483907089053959  1.0000
  H   H8        1.0  0.3369487709711226  0.3999469446196866  0.2726476713081214  1.0000
  C   C15       1.0  0.9021536963592329  0.020733808045931168  0.6107230521100431  1.0000
  C   C16       1.0  0.9066428617008454  0.009127822028948573  0.7474526379054878  1.0000
  C   C17       1.0  0.9088452262176168  0.8861098531266952  0.8167365017557731  1.0000
  C   C18       1.0  0.9064992074435996  0.7738430215792933  0.7474609482036716  1.0000
  C   C19       1.0  0.9020120486738181  0.7834570183262645  0.6107307091241299  1.0000
  C   C20       1.0  0.8998639884895744  0.9073410213130795  0.5431271185154858  1.0000
  C   C21       1.0  0.9135859775273448  0.8748961067844196  0.9613805796888906  1.0000
  C   C22       1.0  0.870576237437464  0.7823514117372732  0.03336375528179503  1.0000
  C   C23       1.0  0.8750604024532161  0.7720319522313818  0.16948850949100402  1.0000
  C   C24       1.0  0.9223666640950539  0.8539831428865313  0.2354277826300093  1.0000
  C   C25       1.0  0.9655554302164465  0.9459508381085048  0.16482625298847975  1.0000
  C   C26       1.0  0.9611814267656023  0.9566179047149941  0.028696359748556777  1.0000
  S   S1        1.0  0.9282033093407542  0.8402796058265585  0.4100985382077359  1.0000
  C   C27       1.0  0.852707873312252  0.9579094991841851  0.42601160930838944  1.0000
  H   H9        1.0  0.9004726763456594  0.3526090863550222  0.5586242887827433  1.0000
  H   H10       1.0  0.9074009638653494  0.095962082664248  0.8004475448852009  1.0000
  H   H11       1.0  0.9092161818994359  0.6787918985698063  0.8003535351105653  1.0000
  H   H12       1.0  0.8964013019533439  0.915526047135125  0.4376460813952463  1.0000
  H   H13       1.0  0.900264729891972  0.45966739508884147  0.5586334363029333  1.0000
  H   H14       1.0  0.8327668066488892  0.7191523918379042  0.9844385623877359  1.0000
  H   H15       1.0  0.8414619999958943  0.7006842782142849  0.22360114191209124  1.0000
  H   H16       1.0  0.0025650056954975575  0.009222839303560493  0.2153020805366498  1.0000
  H   H17       1.0  0.9957277462671026  0.027577530068964018  0.9760421762554756  1.0000
  H   H18       1.0  0.8677561236416831  0.053910619840894736  0.37785441856635604  1.0000
  H   H19       1.0  0.843983257121697  0.9688068087557831  0.5308735652931381  1.0000
  H   H20       1.0  0.7998520309857088  0.9234549584467426  0.3813578560858767  1.0000
  C   C28       1.0  0.9021533193154255  0.40195599340634347  0.22935714857789447  1.0000
  C   C29       1.0  0.9038734365990673  0.5386223283941554  0.21812857111979844  1.0000
  C   C30       1.0  0.90468657088992  0.6080551268041048  0.09527507214259479  1.0000
  C   C31       1.0  0.9037295550370038  0.538985169806425  0.9828102083443904  1.0000
  C   C32       1.0  0.9020124024125413  0.4022348654581167  0.9920966200526364  1.0000
  C   C33       1.0  0.9012381425120969  0.33456105464759345  0.11575866008623614  1.0000
  C   C34       1.0  0.9065071442023338  0.7526313203596369  0.08437019671332768  1.0000
  C   C35       1.0  0.9526048033323827  0.8195113287427362  0.16914664038336547  1.0000
  C   C36       1.0  0.9543241814057329  0.9555650252321795  0.15875401344870532  1.0000
  C   C37       1.0  0.9104564133163234  0.02745680032537301  0.06250481745020986  1.0000
  C   C38       1.0  0.8634640232714622  0.960955677918351  0.9794686081576804  1.0000
  C   C39       1.0  0.8617754831894799  0.8249292529229311  0.9896017257025576  1.0000
  N   N3        1.0  0.9101435056252447  0.16750785540411117  0.051257100129474376  1.0000
  C   C40       1.0  0.9744944024810381  0.24516429346216162  0.0775721500380091  1.0000
  O   O1        1.0  0.03927617371274428  0.194412538049757  0.0891899763429731  1.0000
  C   C41       1.0  0.9656553195036112  0.38916079356360944  0.08175409343361495  1.0000
  H   H21       1.0  0.9015152256002029  0.3493859266399577  0.5611530403437868  1.0000
  H   H22       1.0  0.9035352192648716  0.5914460454844328  0.30506422605905503  1.0000
  H   H23       1.0  0.9053484122565408  0.5919647711579299  0.8879171346938506  1.0000
  H   H24       1.0  0.8999139475997778  0.22914706429905718  0.1237047502473585  1.0000
  H   H25       1.0  0.8992274476949748  0.14410101153086585  0.8023538630823772  1.0000
  H   H26       1.0  0.9877756746486029  0.7665575299511365  0.24302264996393297  1.0000
  H   H27       1.0  0.9889815973361775  0.004187458176130754  0.2274463282046959  1.0000
  H   H28       1.0  0.828314379989427  0.014784036391931377  0.9061629223728254  1.0000
  H   H29       1.0  0.8246568661299984  0.7763109339389211  0.9244757763683018  1.0000
  H   H30       1.0  0.8614358173413619  0.21596957496153157  0.013978481008767085  1.0000
  H   H31       1.0  0.9128259040715094  0.4119676820519129  0.13064211946938342  1.0000
  H   H32       1.0  0.9636268199719291  0.4358696176676067  0.9809390282695225  1.0000
  H   H33       1.0  0.013576618545767083  0.42893709815198067  0.1367047442415359  1.0000
  Zn  Zn1       1.0  0.8197641675258787  0.40379915086216833  0.6067862201507024  1.0000
  Zn  Zn2       1.0  0.9843943598221809  0.40039120746029644  0.6146665760570571  1.0000
  C   C42       1.0  0.902038321462883  0.39700852024742717  0.847922370342473  1.0000
  C   C43       1.0  0.9021220033138433  0.4071834395166414  0.373530639401648  1.0000
  C   C44       1.0  0.9020358922568199  0.6392842903985312  0.6055538749475935  1.0000
  C   C45       1.0  0.9021243766201538  0.1649061102606313  0.615899201330673  1.0000
  O   O2        1.0  0.9645877944290053  0.4076388557171673  0.4249071339041397  1.0000
  O   O3        1.0  0.9645230372683138  0.39396557400609145  0.8025265097772498  1.0000
  O   O4        1.0  0.9645202331938014  0.5896063403263521  0.6068121946474014  1.0000
  O   O5        1.0  0.9645905423426496  0.211998099814374  0.6206213489701762  1.0000
  O   O6        1.0  0.8395679288252061  0.5921922596724656  0.6008314445415732  1.0000
  O   O7        1.0  0.8395707326192672  0.3965530536214854  0.7965456904412662  1.0000
  O   O8        1.0  0.8396354901268044  0.4102262895050075  0.41892475316611066  1.0000
  O   O9        1.0  0.8396382380211127  0.21458552434912215  0.6146390655999499  1.0000
