data_image0
_chemical_formula_structural       NC8NC6H8C12NCOCH13C16H10Zn2C4O8
_chemical_formula_sum              "N3 C48 H31 O9 Zn2"
_cell_length_a       17.457602349358154
_cell_length_b       10.299155265289647
_cell_length_c       10.299151387937775
_cell_angle_alpha    85.56903598390942
_cell_angle_beta     92.86396087313608
_cell_angle_gamma    91.66712233072684

_space_group_name_H-M_alt    "P 1"
_space_group_IT_number       1

loop_
  _space_group_symop_operation_xyz
  'x, y, z'

loop_
  _atom_site_type_symbol
  _atom_site_label
  _atom_site_symmetry_multiplicity
  _atom_site_fract_x
  _atom_site_fract_y
  _atom_site_fract_z
  _atom_site_occupancy
  N   N1        1.0  0.7222588220316593  0.4523202477075885  0.6260527988827553  1.0000
  C   C1        1.0  0.6611924452298549  0.4063877025591107  0.6154515701127534  1.0000
  C   C2        1.0  0.585223287058284  0.349253335264855  0.6022731816527116  1.0000
  C   C3        1.0  0.5266768976236063  0.38945015888040935  0.677157972838738  1.0000
  C   C4        1.0  0.45214527462299126  0.3344344466561413  0.6645933534424742  1.0000
  C   C5        1.0  0.3900069690434645  0.37687647603584784  0.7438992277115262  1.0000
  C   C6        1.0  0.3154626617101571  0.3953216950572409  0.6881300818827751  1.0000
  C   C7        1.0  0.2569162981597173  0.4353346293441007  0.7631228843194731  1.0000
  C   C8        1.0  0.180933957855662  0.4543847728381307  0.7051380938765293  1.0000
  N   N2        1.0  0.1198570741741652  0.4696947081998226  0.6585184754166009  1.0000
  C   C9        1.0  0.2724219652890378  0.4571457217629462  0.8943932719856524  1.0000
  C   C10       1.0  0.3461814360023631  0.43908968106813595  0.9505498921960349  1.0000
  C   C11       1.0  0.4047161007823463  0.39925701094335064  0.8760147529005444  1.0000
  C   C12       1.0  0.4374490062520993  0.23854382774613136  0.5757112410883496  1.0000
  C   C13       1.0  0.49598356826527923  0.19862587466039838  0.5012263641799566  1.0000
  C   C14       1.0  0.5697303362015094  0.25375420848402364  0.5143408962196947  1.0000
  H   H1        1.0  0.5389962709427003  0.4646779294279555  0.7437647920385064  1.0000
  H   H2        1.0  0.3031329264404974  0.3803061306866784  0.5861106440219559  1.0000
  H   H3        1.0  0.2275471912072967  0.4880559213463971  0.9532191941216914  1.0000
  H   H4        1.0  0.3579971538441972  0.4556628353016148  0.05219558024182125  1.0000
  H   H5        1.0  0.46119970427911766  0.38428438362926  0.9221257777615053  1.0000
  H   H6        1.0  0.3809757792118426  0.19320096980970436  0.5650737098663214  1.0000
  H   H7        1.0  0.4841778937142224  0.12451410998998558  0.43342087605110113  1.0000
  H   H8        1.0  0.6146052899518851  0.22197448210157078  0.45602637125144296  1.0000
  C   C15       1.0  0.9211472884618384  0.07961393098969483  0.6424116383675287  1.0000
  C   C16       1.0  0.9080577867605273  0.08869502878263114  0.5064175981176782  1.0000
  C   C17       1.0  0.9013468453515994  0.9761583661688595  0.43734196499196054  1.0000
  C   C18       1.0  0.9078743838707957  0.8534271375677419  0.506094837551329  1.0000
  C   C19       1.0  0.9209759663603654  0.8423913622969694  0.6421714548399893  1.0000
  C   C20       1.0  0.9275351735993553  0.9559983313062412  0.7094923894614447  1.0000
  C   C21       1.0  0.8875006801528947  0.9867387818109481  0.29347676893138486  1.0000
  C   C22       1.0  0.9264178560936946  0.08252194510102173  0.21523691112118915  1.0000
  C   C23       1.0  0.9133940150816381  0.092348211840247  0.079850691477648  1.0000
  C   C24       1.0  0.8616696383743347  0.005726188228181162  0.019876588215497204  1.0000
  C   C25       1.0  0.8218153502964428  0.9117183364076824  0.09797176715490163  1.0000
  C   C26       1.0  0.8348671379866264  0.9016372584663285  0.23332293329385734  1.0000
  N   N3        1.0  0.8461772786808518  0.015242262853126132  0.8810504739282732  1.0000
  C   C27       1.0  0.902206723867501  0.054592952745189605  0.7874077738138205  1.0000
  O   O1        1.0  0.9725847122137682  0.06021238319780653  0.8210128750414412  1.0000
  C   C28       1.0  0.8777479750077244  0.07992261162974956  0.6468706807855074  1.0000
  H   H9        1.0  0.926205884905094  0.40359817788450947  0.6947170135602874  1.0000
  H   H10       1.0  0.9019939691089912  0.18345708790037252  0.4541128083999626  1.0000
  H   H11       1.0  0.9037535708189189  0.7664296390675209  0.45312989154735916  1.0000
  H   H12       1.0  0.9376339625481632  0.9482791384091084  0.8143872000930119  1.0000
  H   H13       1.0  0.9461639241583484  0.6142986263672865  0.898915646095193  1.0000
  H   H14       1.0  0.967379908523621  0.14937426277422317  0.25867397636517686  1.0000
  H   H15       1.0  0.9428328406937807  0.16906951106175194  0.022674053024893448  1.0000
  H   H16       1.0  0.7807797733477574  0.845566553919133  0.0536616621382211  1.0000
  H   H17       1.0  0.8029630187817208  0.828424868216741  0.29113121714526935  1.0000
  H   H18       1.0  0.7921452403932558  0.9840017374957776  0.8455650646857986  1.0000
  H   H19       1.0  0.8223686260054651  0.13094673638585919  0.6378950681416944  1.0000
  H   H20       1.0  0.8706540377357408  0.9859872211280558  0.6010673484391251  1.0000
  H   H21       1.0  0.9214289931627307  0.1419033675394823  0.59504212738358  1.0000
  C   C29       1.0  0.9211061152307954  0.46083581239909677  0.2609242588714731  1.0000
  C   C30       1.0  0.847071225346144  0.5115576204695926  0.24995451296996052  1.0000
  C   C31       1.0  0.8094882090322099  0.5374465779740216  0.12723287883481826  1.0000
  C   C32       1.0  0.8469376797728385  0.511929406740131  0.014631162187308533  1.0000
  C   C33       1.0  0.9210171026091247  0.461169397383995  0.023658867149784824  1.0000
  C   C34       1.0  0.9576460220889556  0.4359370683654291  0.1471947337712496  1.0000
  C   C35       1.0  0.7311682617719318  0.5911044190616048  0.11667362368270995  1.0000
  C   C36       1.0  0.7116592218667959  0.69007157414624  0.01974624572515915  1.0000
  C   C37       1.0  0.6379318520671505  0.7405345668873045  0.009935126528975768  1.0000
  C   C38       1.0  0.5827463254273364  0.6927966507668986  0.09667042795604397  1.0000
  C   C39       1.0  0.6015599171763201  0.5943574856263256  0.19337876104926166  1.0000
  C   C40       1.0  0.6752652963963954  0.543805932648249  0.2034376755424978  1.0000
  C   C41       1.0  0.5068545591783642  0.7447949073574727  0.08644272720980184  1.0000
  C   C42       1.0  0.4432962758391122  0.7883426578949908  0.07787708705584007  1.0000
  C   C43       1.0  0.3688701869456623  0.8393366877843091  0.06784681002927995  1.0000
  C   C44       1.0  0.305322174696394  0.8828776386652621  0.05928266054151421  1.0000
  H   H22       1.0  0.9495668054660901  0.44126275062866327  0.592622824672401  1.0000
  H   H23       1.0  0.8188771545241919  0.5327216089362705  0.3369495550056383  1.0000
  H   H24       1.0  0.8178223535389868  0.5300375437399125  0.9198751250555315  1.0000
  H   H25       1.0  0.014750107755384878  0.3968104396318253  0.15494043176023076  1.0000
  H   H26       1.0  0.060645551611863135  0.36459573232754927  0.8334485659453779  1.0000
  H   H27       1.0  0.7537095331393997  0.7296138864244992  0.9526222503706889  1.0000
  H   H28       1.0  0.6240401213175581  0.8169823980472641  0.9349255229900142  1.0000
  H   H29       1.0  0.5592116521532398  0.5564434709252395  0.26080934877280115  1.0000
  H   H30       1.0  0.6882505575439078  0.46655679747829737  0.27798047037176277  1.0000
  H   H31       1.0  0.24952177317063934  0.9211101260670238  0.05176263759812416  1.0000
  Zn  Zn1       1.0  0.8369970889447265  0.4573306620478548  0.6354291913665213  1.0000
  Zn  Zn2       1.0  0.005118794162546569  0.4646736499987698  0.6491527187679385  1.0000
  C   C45       1.0  0.9210333862746959  0.4559322921474471  0.879487167481134  1.0000
  C   C46       1.0  0.921084332333378  0.466073738866166  0.40509501946375415  1.0000
  C   C47       1.0  0.9210049835928038  0.698207726031334  0.6370413935203134  1.0000
  C   C48       1.0  0.9211126779895284  0.22379674210297518  0.6475408584713434  1.0000
  O   O2        1.0  0.9848783340233673  0.47061259438715153  0.4586880526468051  1.0000
  O   O3        1.0  0.9848398690372943  0.4569656146263572  0.8363096005190016  1.0000
  O   O4        1.0  0.984816073282704  0.6526060545042751  0.6405328520689166  1.0000
  O   O5        1.0  0.984902072418683  0.2749721612518017  0.6544646990368006  1.0000
  O   O6        1.0  0.8572137533169037  0.6470321482904329  0.6301172064076614  1.0000
  O   O7        1.0  0.8572375487255489  0.451393268787428  0.8258938851209816  1.0000
  O   O8        1.0  0.8572760139550097  0.46504020260856516  0.448270775873147  1.0000
  O   O9        1.0  0.8572997523379133  0.2693997602262568  0.6440475196332351  1.0000
