data_image0
_chemical_formula_structural       NC8NC6H8C12OCH12C13NH9Zn2C4O8
_chemical_formula_sum              "N3 C44 H29 O9 Zn2"
_cell_length_a       17.457602349358154
_cell_length_b       10.29979075500242
_cell_length_c       10.298528502251457
_cell_angle_alpha    85.53676387981383
_cell_angle_beta     92.8736263554175
_cell_angle_gamma    91.67079993281202

_space_group_name_H-M_alt    "P 1"
_space_group_IT_number       1

loop_
  _space_group_symop_operation_xyz
  'x, y, z'

loop_
  _atom_site_type_symbol
  _atom_site_label
  _atom_site_symmetry_multiplicity
  _atom_site_fract_x
  _atom_site_fract_y
  _atom_site_fract_z
  _atom_site_occupancy
  N   N1        1.0  0.7222014814265699  0.453268013644164  0.6261864067536618  1.0000
  C   C1        1.0  0.6611321541495672  0.4073471299626157  0.6155740542717827  1.0000
  C   C2        1.0  0.5851593266786658  0.35022726174959606  0.6023818303481343  1.0000
  C   C3        1.0  0.5266213014006772  0.3903633453535371  0.6772847285084385  1.0000
  C   C4        1.0  0.4520861561898963  0.3353614982053339  0.6647068026576839  1.0000
  C   C5        1.0  0.3899567029576487  0.3777392113144562  0.7440318256905547  1.0000
  C   C6        1.0  0.3154082902079466  0.3962259832897117  0.6882594867342162  1.0000
  C   C7        1.0  0.2568702922618029  0.436178108363352  0.7632703708114505  1.0000
  C   C8        1.0  0.180883677824529  0.45527146539547614  0.7052822331780548  1.0000
  N   N2        1.0  0.11980335747336922  0.4706161448094621  0.658659922239367  1.0000
  C   C9        1.0  0.2723884859044641  0.4578864284619095  0.8945621499005854  1.0000
  C   C10       1.0  0.3461521132657398  0.43978850673816416  0.950722095471876  1.0000
  C   C11       1.0  0.4046784606887716  0.40001627958763053  0.8761689712854772  1.0000
  C   C12       1.0  0.4373778454212966  0.23954663954264888  0.5757929498011403  1.0000
  C   C13       1.0  0.49590409076383857  0.19968909720663386  0.5012900762743757  1.0000
  C   C14       1.0  0.5696544343186144  0.2548031338071395  0.5144180089013461  1.0000
  H   H1        1.0  0.5389498469723811  0.46553408600137614  0.7439160501650424  1.0000
  H   H2        1.0  0.3030689046561496  0.3812901432134106  0.5862238357915006  1.0000
  H   H3        1.0  0.227520253049703  0.4887489643133751  0.9534021542313325  1.0000
  H   H4        1.0  0.3579775168193197  0.45628210601937913  0.05238428023813779  1.0000
  H   H5        1.0  0.4611654708376062  0.38500927429934295  0.922282695475223  1.0000
  H   H6        1.0  0.3809016905902048  0.19421542615649456  0.5651444156740528  1.0000
  H   H7        1.0  0.48408918730500167  0.12563520078767443  0.43346017012275406  1.0000
  H   H8        1.0  0.6145228537454444  0.22307074342436972  0.45608928203147925  1.0000
  C   C15       1.0  0.9210750299966276  0.08057746171240354  0.6424680509851914  1.0000
  C   C16       1.0  0.8988632592592218  0.06839647393454418  0.7721087219004559  1.0000
  C   C17       1.0  0.8875475053519186  0.9450853447052983  0.8377605079436106  1.0000
  C   C18       1.0  0.8987254287106023  0.8331081898194498  0.7720316713516242  1.0000
  C   C19       1.0  0.9209371654179196  0.8432969616687102  0.6423900650236676  1.0000
  C   C20       1.0  0.9319893786849642  0.9674671386121871  0.5783349771695789  1.0000
  C   C21       1.0  0.8640533841451313  0.9332528565877453  0.9749146976344178  1.0000
  C   C22       1.0  0.8080737803756358  0.839928446854557  0.015413937185048132  1.0000
  C   C23       1.0  0.7860308285360609  0.8290687585480747  0.14436928514921477  1.0000
  C   C24       1.0  0.819471117107229  0.9108426943340729  0.234459746024833  1.0000
  C   C25       1.0  0.8756549113246543  0.004784446369274331  0.195849127154908  1.0000
  C   C26       1.0  0.8974600394265491  0.01527275381979365  0.06634758864152757  1.0000
  O   O1        1.0  0.911115111025853  0.0890023483897242  0.28262437721219535  1.0000
  C   C27       1.0  0.8946632693314305  0.08921439181323798  0.4166340092983364  1.0000
  H   H9        1.0  0.9295722407229813  0.41267187559852947  0.5930934271100674  1.0000
  H   H10       1.0  0.8892944617644735  0.15498750721738985  0.8217623785503467  1.0000
  H   H11       1.0  0.8910757875457938  0.7378561631617025  0.8227813046699075  1.0000
  H   H12       1.0  0.9491254118085795  0.9760958853274884  0.4783227250768065  1.0000
  H   H13       1.0  0.9293626773245155  0.5197262247889177  0.5929719453769462  1.0000
  H   H14       1.0  0.7806349251342626  0.776525615885741  0.946954965211398  1.0000
  H   H15       1.0  0.7427005885928312  0.7571962360465587  0.17451343570205857  1.0000
  H   H16       1.0  0.8012868881508006  0.900264213049613  0.333653965183924  1.0000
  H   H17       1.0  0.9414092543217166  0.08674553861461587  0.03776704185301594  1.0000
  H   H18       1.0  0.9079145554138398  0.9932456317008951  0.46834530371634553  1.0000
  H   H19       1.0  0.9308653654298941  0.16541804910566915  0.4618104402452563  1.0000
  H   H20       1.0  0.8334177773455984  0.11144769762991413  0.4260692004276222  1.0000
  C   C28       1.0  0.9210169688616567  0.4620641742306981  0.26101308327811923  1.0000
  C   C29       1.0  0.8412545540834918  0.4784458641705318  0.2520067807189401  1.0000
  C   C30       1.0  0.8008462352726745  0.4866067136369867  0.1302973846960327  1.0000
  C   C31       1.0  0.8412317000684955  0.47818000864178756  0.01674523368964831  1.0000
  C   C32       1.0  0.9209952045937072  0.461810245848032  0.023845047271270126  1.0000
  C   C33       1.0  0.9603770887755037  0.4538543910067241  0.1464040798078443  1.0000
  C   C34       1.0  0.7165213209425163  0.5039197318802804  0.12178358373873333  1.0000
  C   C35       1.0  0.6826321884140529  0.5903717922537273  0.1999241034832977  1.0000
  C   C36       1.0  0.6032572415592851  0.6066214988045293  0.19179059603159887  1.0000
  C   C37       1.0  0.5567152400840595  0.5367325027047993  0.1056462293370124  1.0000
  C   C38       1.0  0.5898471242323489  0.45048373563157496  0.02754784911507846  1.0000
  C   C39       1.0  0.6692138987403704  0.4341393082487208  0.03544408711913727  1.0000
  C   C40       1.0  0.4749986402031522  0.5535122866483042  0.0973934340206466  1.0000
  N   N3        1.0  0.4093040041476558  0.5670022244369162  0.09075877809850263  1.0000
  H   H21       1.0  0.07167324551935694  0.430298093676011  0.4854136888839051  1.0000
  H   H22       1.0  0.8102695556066648  0.483101733345366  0.3399912271540213  1.0000
  H   H23       1.0  0.8105346825741235  0.4861878196414633  0.9225333210718549  1.0000
  H   H24       1.0  0.021851522791339617  0.4412334186523903  0.1526105317305575  1.0000
  H   H25       1.0  0.07179294595385777  0.4316931137609863  0.8298791227807887  1.0000
  H   H26       1.0  0.7176172693403445  0.6466663214262629  0.2660796902349303  1.0000
  H   H27       1.0  0.5782340225834538  0.6739197316529821  0.25244792861592913  1.0000
  H   H28       1.0  0.554331519428249  0.3956162144776998  0.9607770771764552  1.0000
  H   H29       1.0  0.6934840530214392  0.36567803441441615  0.9752721280086245  1.0000
  Zn  Zn1       1.0  0.8369407946283492  0.458270824397653  0.6355650616064392  1.0000
  Zn  Zn2       1.0  0.005064031643194689  0.4656026828128923  0.6492919023147734  1.0000
  C   C41       1.0  0.9209985399213817  0.4566845727753337  0.8796538850697764  1.0000
  C   C42       1.0  0.9210081219508113  0.4671906530581602  0.4052033560628514  1.0000
  C   C43       1.0  0.92095940443915  0.6991283142712725  0.6372287093545081  1.0000
  C   C44       1.0  0.921047200344433  0.22474534875175967  0.6476285965007291  1.0000
  O   O2        1.0  0.9848070461365023  0.47168788256227256  0.4588041938935632  1.0000
  O   O3        1.0  0.9848012627108425  0.4577510745733586  0.8364710279271439  1.0000
  O   O4        1.0  0.9847688001954442  0.6535274239932998  0.6407109129763426  1.0000
  O   O5        1.0  0.9848394512839275  0.27591153996299944  0.6545642067726849  1.0000
  O   O6        1.0  0.8571653176154068  0.6479619647469586  0.6302927524573987  1.0000
  O   O7        1.0  0.8571977798472051  0.4521871756368918  0.8260527979944612  1.0000
  O   O8        1.0  0.8572035633766292  0.46612393889231063  0.44838440237622024  1.0000
  O   O9        1.0  0.8572359685198178  0.27034758697178196  0.6441445126358931  1.0000
