data_image0
_chemical_formula_structural       NC12NC2H8C12NCOCH13C12NH11Zn2C4O8
_chemical_formula_sum              "N4 C44 H32 O9 Zn2"
_cell_length_a       17.80743265337812
_cell_length_b       10.299155265289647
_cell_length_c       10.299774167527174
_cell_angle_alpha    85.56091470143106
_cell_angle_beta     91.52767882299842
_cell_angle_gamma    89.41399588169462

_space_group_name_H-M_alt    "P 1"
_space_group_IT_number       1

loop_
  _space_group_symop_operation_xyz
  'x, y, z'

loop_
  _atom_site_type_symbol
  _atom_site_label
  _atom_site_symmetry_multiplicity
  _atom_site_fract_x
  _atom_site_fract_y
  _atom_site_fract_z
  _atom_site_occupancy
  N   N1        1.0  0.7071960055678614  0.4063354817877427  0.6010208924559228  1.0000
  C   C1        1.0  0.6563737943289435  0.4358740145003719  0.5323181042462632  1.0000
  C   C2        1.0  0.5931459487187308  0.4726178062678972  0.446860483777743  1.0000
  C   C3        1.0  0.6048683098104443  0.5266010987253806  0.3202333966403801  1.0000
  C   C4        1.0  0.5435480058711258  0.5618419694919197  0.23717203366947492  1.0000
  C   C5        1.0  0.4703510192306543  0.5433628159662012  0.28007782258843106  1.0000
  C   C6        1.0  0.4576518830192856  0.48926086530999346  0.40717305647393665  1.0000
  C   C7        1.0  0.5198295033234972  0.45402324326302756  0.4902179078724789  1.0000
  C   C8        1.0  0.37988676426055834  0.46966843821329607  0.4529392744177252  1.0000
  C   C9        1.0  0.3610875068559148  0.4968989528853234  0.5799680096797188  1.0000
  C   C10       1.0  0.2878605626612047  0.4784613894052916  0.6229143472480259  1.0000
  C   C11       1.0  0.2324899151365875  0.43253929623783605  0.5396699372558802  1.0000
  C   C12       1.0  0.1571264089067996  0.41354932623529783  0.5840172704037767  1.0000
  N   N2        1.0  0.0965394868434186  0.39828266749640995  0.6196694754626542  1.0000
  C   C13       1.0  0.2505976861406555  0.4051400351829735  0.41318418516684674  1.0000
  C   C14       1.0  0.3237717864456903  0.4235923006302018  0.3699819724259339  1.0000
  H   H1        1.0  0.6613326269743481  0.5414146517329808  0.2857943759716317  1.0000
  H   H2        1.0  0.5527422213673773  0.6039100318381481  0.13938721071368798  1.0000
  H   H3        1.0  0.42370876685889625  0.5729789924352946  0.2144827641671312  1.0000
  H   H4        1.0  0.5113339905568867  0.41056972018978777  0.5878786844995358  1.0000
  H   H5        1.0  0.402751828772713  0.5341029155542636  0.6455265103753249  1.0000
  H   H6        1.0  0.2744067412199312  0.5003411493292214  0.7209109284217905  1.0000
  H   H7        1.0  0.2082161759204435  0.36920359280487003  0.3480382550113692  1.0000
  H   H8        1.0  0.3366975429969548  0.4001769709234848  0.2722891417050559  1.0000
  C   C15       1.0  0.9019552430447806  0.020909823904301073  0.6104680548672634  1.0000
  C   C16       1.0  0.8891311347536215  0.03084734040396575  0.4749352659589965  1.0000
  C   C17       1.0  0.8825562901817929  0.9187496678601735  0.406096084169034  1.0000
  C   C18       1.0  0.8889515250740979  0.7955912222469282  0.47461889345175257  1.0000
  C   C19       1.0  0.9017874671865275  0.783698243996347  0.6102338357204162  1.0000
  C   C20       1.0  0.9082136456335224  0.8968761761061391  0.6773236742726076  1.0000
  C   C21       1.0  0.8689908595026621  0.9302360105160368  0.2627188034205663  1.0000
  C   C22       1.0  0.9070962133685893  0.02354199801625989  0.1831303603770118  1.0000
  C   C23       1.0  0.894336430969218  0.03422039806805088  0.048203081817949966  1.0000
  C   C24       1.0  0.8436833029281775  0.9509142363743687  0.9900291106715269  1.0000
  C   C25       1.0  0.8046602896183215  0.8594435003402758  0.06950544411036885  1.0000
  C   C26       1.0  0.8174474367179368  0.8485085071847498  0.20439669973911  1.0000
  N   N3        1.0  0.8285060993757172  0.9614407747868576  0.85174787510651  1.0000
  C   C27       1.0  0.8833676525664758  0.9972223296823407  0.7561627061816534  1.0000
  O   O1        1.0  0.9522857983932891  0.9983369551428688  0.7873207515646214  1.0000
  C   C28       1.0  0.8594101698858669  0.024136011425740955  0.6164821335238422  1.0000
  H   H9        1.0  0.9069112631420511  0.3445631333806416  0.6625951857543899  1.0000
  H   H10       1.0  0.8831907673068555  0.1260046110562203  0.4228436495825454  1.0000
  H   H11       1.0  0.8849137837959961  0.7088647933991331  0.42179963714203583  1.0000
  H   H12       1.0  0.9181076774561188  0.888496244455211  0.7818626223720688  1.0000
  H   H13       1.0  0.9264644985084066  0.5539582210473012  0.8660906806514224  1.0000
  H   H14       1.0  0.9472097210866838  0.08776896833241032  0.2251420397909898  1.0000
  H   H15       1.0  0.9231612499926168  0.10906755478813412  0.9900062137522556  1.0000
  H   H16       1.0  0.7644747429629691  0.7959218913924923  0.026623320954792806  1.0000
  H   H17       1.0  0.7862085467331907  0.7773278007438874  0.2633108465060354  1.0000
  H   H18       1.0  0.7755943845396174  0.9336601578075067  0.818141627337186  1.0000
  H   H19       1.0  0.8051803723850147  0.07870239646805954  0.6094312463429485  1.0000
  H   H20       1.0  0.8524613803793756  0.9306607678070002  0.5709274617237474  1.0000
  H   H21       1.0  0.902181688769578  0.08333120827436158  0.5631382153959015  1.0000
  C   C29       1.0  0.9018969282693049  0.40218895848886027  0.22900012107885326  1.0000
  C   C30       1.0  0.8283307458900602  0.3544049415801749  0.22831187594188007  1.0000
  C   C31       1.0  0.791027849489463  0.3303087729398899  0.11081402193615997  1.0000
  C   C32       1.0  0.8282790825491559  0.3546373286215774  0.993004621777724  1.0000
  C   C33       1.0  0.9018457432992343  0.4024191089710152  0.9917017461257882  1.0000
  C   C34       1.0  0.9382425920050218  0.4259278562237523  0.11019903579950574  1.0000
  C   C35       1.0  0.7131990920702688  0.27975661927155193  0.11113924694390742  1.0000
  C   C36       1.0  0.6921071718303045  0.1817315751301054  0.20545693283614197  1.0000
  C   C37       1.0  0.6188512438392126  0.13420748877300515  0.20562914599754323  1.0000
  C   C38       1.0  0.5655284544858445  0.18383970070246436  0.11175613317283184  1.0000
  C   C39       1.0  0.5861247089358528  0.28148480660162867  0.017574186558492633  1.0000
  C   C40       1.0  0.6593580560391016  0.3291106294840087  0.017134581701881313  1.0000
  N   N4        1.0  0.49060465447545526  0.13517397077095405  0.11206900850526114  1.0000
  H   H22       1.0  0.9299418004097751  0.42034292201961154  0.5567206030889846  1.0000
  H   H23       1.0  0.7994917565947013  0.3374969580305105  0.31922143715280016  1.0000
  H   H24       1.0  0.8001482726992999  0.3345420519280984  0.9023329448050443  1.0000
  H   H25       1.0  0.9949956779639711  0.46279013502368627  0.10996200619872254  1.0000
  H   H26       1.0  0.9298666873211864  0.4206814509357282  0.6637471278724933  1.0000
  H   H27       1.0  0.7325280111855106  0.14062433121383222  0.27805474585100476  1.0000
  H   H28       1.0  0.6037130381020469  0.05846821413467462  0.27874496334292953  1.0000
  H   H29       1.0  0.545390612609531  0.3209330938226742  0.9446918100405348  1.0000
  H   H30       1.0  0.6736178206417898  0.40573463301442647  0.9443084502115329  1.0000
  H   H31       1.0  0.4504637346307653  0.1715633075678269  0.042471278626840414  1.0000
  H   H32       1.0  0.4747219436399855  0.06239558745560303  0.18190115769156123  1.0000
  Zn  Zn1       1.0  0.8195521275810816  0.40400814823712894  0.6064099583221465  1.0000
  Zn  Zn2       1.0  0.9841833639561723  0.40059940994293153  0.6142910053980299  1.0000
  C   C41       1.0  0.9018548900321435  0.39720152404280507  0.8475363463600385  1.0000
  C   C42       1.0  0.9018823989040416  0.40740763570203997  0.37316483037817605  1.0000
  C   C43       1.0  0.9018156398555081  0.6395134868697674  0.6051030083780802  1.0000
  C   C44       1.0  0.9019215932421673  0.16509411363270643  0.6155982353853402  1.0000
  O   O2        1.0  0.9643542201842528  0.407859806839008  0.424538641812521  1.0000
  O   O3        1.0  0.9643343680937416  0.3941612195003221  0.8021436937738005  1.0000
  O   O4        1.0  0.9643018307733766  0.5898312117818489  0.6063770173644203  1.0000
  O   O5        1.0  0.964386701331618  0.2121898249822347  0.6203052181597302  1.0000
  O   O6        1.0  0.839348734025075  0.5924177343624728  0.6003957428642004  1.0000
  O   O7        1.0  0.839381271003389  0.3967493024879638  0.7961623495521293  1.0000
  O   O8        1.0  0.8394011232585765  0.410447844094985  0.41855573628048814  1.0000
  O   O9        1.0  0.8394336043983808  0.21477785297810525  0.6143224099936231  1.0000
