data_image0
_chemical_formula_structural       NC12NC2H8C12NH11C12SCH12Zn2C4O8
_chemical_formula_sum              "N3 C43 H31 S1 Zn2 O8"
_cell_length_a       19.240039667572717
_cell_length_b       10.299770795358612
_cell_length_c       10.299780138516091
_cell_angle_alpha    85.57228714023374
_cell_angle_beta     89.99202709574732
_cell_angle_gamma    90.01598423534

_space_group_name_H-M_alt    "P 1"
_space_group_IT_number       1

loop_
  _space_group_symop_operation_xyz
  'x, y, z'

loop_
  _atom_site_type_symbol
  _atom_site_label
  _atom_site_symmetry_multiplicity
  _atom_site_fract_x
  _atom_site_fract_y
  _atom_site_fract_z
  _atom_site_occupancy
  N   N1        1.0  0.6547960348434926  0.4208666534230543  0.5674425594978585  1.0000
  C   C1        1.0  0.594647666044854  0.4208667373810062  0.5674424775603251  1.0000
  C   C2        1.0  0.5198296289314286  0.4208668546277021  0.5674423402558377  1.0000
  C   C3        1.0  0.48333858901965987  0.35643086692793613  0.6708529566739603  1.0000
  C   C4        1.0  0.4106678179168323  0.356320010287829  0.6709395005784187  1.0000
  C   C5        1.0  0.3734973940248711  0.42086694712843187  0.5674421125796791  1.0000
  C   C6        1.0  0.4107026485335681  0.48541407100995704  0.46394491910363156  1.0000
  C   C7        1.0  0.48337331395017213  0.48530297890537444  0.46403158551486534  1.0000
  C   C8        1.0  0.2962923035805989  0.42086686844047816  0.567442017172255  1.0000
  C   C9        1.0  0.2590844621884316  0.30761809607203006  0.6093163109233826  1.0000
  C   C10       1.0  0.18641379656826457  0.3077249703491225  0.6092249844377136  1.0000
  C   C11       1.0  0.1499600166335756  0.4208667392850083  0.5674420780860141  1.0000
  C   C12       1.0  0.0751419794431248  0.420866625612452  0.5674423267411519  1.0000
  N   N2        1.0  0.0149936625694133  0.4208665848477253  0.5674425351531387  1.0000
  C   C13       1.0  0.1864537475707615  0.5340085840334643  0.525659118842287  1.0000
  C   C14       1.0  0.2591244665916143  0.5341156383853487  0.5255676297606782  1.0000
  H   H1        1.0  0.511039990360296  0.306543314572989  0.751593008007233  1.0000
  H   H2        1.0  0.3835610826835741  0.30723085577609743  0.752794970634207  1.0000
  H   H3        1.0  0.3836228529865237  0.5345032525597417  0.38208939820039123  1.0000
  H   H4        1.0  0.5111016840371131  0.5351904310756979  0.3832918099694871  1.0000
  H   H5        1.0  0.2861621014324373  0.21847164992792067  0.6404867971667676  1.0000
  H   H6        1.0  0.158683376049043  0.21947799358406783  0.641428348203082  1.0000
  H   H7        1.0  0.1587543446374456  0.6222555362658058  0.4934557696278765  1.0000
  H   H8        1.0  0.28623330617997633  0.6232621636933202  0.4943970987439723  1.0000
  C   C15       1.0  0.8348352013303818  0.03949810264912612  0.5674821212170524  1.0000
  C   C16       1.0  0.8146721585923895  0.048636574868442084  0.4360776174329073  1.0000
  C   C17       1.0  0.8045191379493101  0.93613094325003  0.3694588257727087  1.0000
  C   C18       1.0  0.8147993771356581  0.8133549422334215  0.43600906764141656  1.0000
  C   C19       1.0  0.8349611620748958  0.802225178355133  0.5674141219484186  1.0000
  C   C20       1.0  0.8448665058765388  0.9158513173106271  0.6324146729402063  1.0000
  C   C21       1.0  0.7831881132919581  0.946852321624515  0.23044048762734182  1.0000
  C   C22       1.0  0.7325830793779361  0.038017570538140255  0.1852553630389977  1.0000
  C   C23       1.0  0.7125361204376577  0.04797930626323588  0.0544102423430588  1.0000
  C   C24       1.0  0.7427147999642104  0.9671946546440688  0.9666702007950834  1.0000
  C   C25       1.0  0.793153117827537  0.8762272379968964  0.010964806558189766  1.0000
  C   C26       1.0  0.8132557555621484  0.8660094680991635  0.14177995557425227  1.0000
  N   N3        1.0  0.72217974529872  0.977515609627679  0.8328407086286287  1.0000
  H   H9        1.0  0.842488694120679  0.3634681847580523  0.6175704608181938  1.0000
  H   H10       1.0  0.8077375538039774  0.14352750393899427  0.38472768102083643  1.0000
  H   H11       1.0  0.8061200654432105  0.7263118878220456  0.3855991925477438  1.0000
  H   H12       1.0  0.8604208517121926  0.9080333638119206  0.7337874281329451  1.0000
  H   H13       1.0  0.8426739553192883  0.47053177746731445  0.6174708415397061  1.0000
  H   H14       1.0  0.7078544638680664  0.100447201556495  0.251455626285056  1.0000
  H   H15       1.0  0.6733536363108584  0.11845126157837638  0.0215001554797718  1.0000
  H   H16       1.0  0.8170222385601372  0.8134518593140656  0.9440753012803138  1.0000
  H   H17       1.0  0.8529711613226593  0.7960473812910626  0.17325056435133201  1.0000
  H   H18       1.0  0.7443806122406941  0.9177017773601582  0.7667040547514512  1.0000
  H   H19       1.0  0.6846241221422142  0.045047259027278796  0.7989074995258059  1.0000
  C   C27       1.0  0.8349261018043919  0.4207503323707378  0.18609603649165662  1.0000
  C   C28       1.0  0.7688325522752197  0.36273886875313366  0.1895956333024893  1.0000
  C   C29       1.0  0.7353149478213558  0.33345826465205675  0.07422198001576219  1.0000
  C   C30       1.0  0.7687756885321316  0.3629643074440303  0.954291716734895  1.0000
  C   C31       1.0  0.8348702738921737  0.4209729475823225  0.9488002818783587  1.0000
  C   C32       1.0  0.867575338727695  0.4495419077235261  0.06522547004315404  1.0000
  C   C33       1.0  0.6653925644651187  0.27210202626006863  0.07898706787295495  1.0000
  C   C34       1.0  0.6139254426965065  0.3137629599574132  0.9880268901904015  1.0000
  C   C35       1.0  0.5481297256725284  0.25598436963971327  0.9927483018346868  1.0000
  C   C36       1.0  0.5328415723684343  0.1561746920716005  0.08831992536895261  1.0000
  C   C37       1.0  0.5836900007535083  0.11371482659924514  0.17887452387157765  1.0000
  C   C38       1.0  0.6495286877268104  0.17131998728249975  0.17451553559040311  1.0000
  S   S1        1.0  0.44844510909456853  0.08190361593937956  0.09392793996515247  1.0000
  C   C39       1.0  0.41282187697405176  0.1961187260880477  0.20264672947233242  1.0000
  H   H20       1.0  0.8601208972208413  0.44280783378398647  0.5122195435727304  1.0000
  H   H21       1.0  0.7428546368451067  0.3418165815368921  0.28214684812770163  1.0000
  H   H22       1.0  0.7435682243260004  0.3389629395166651  0.8652216499150929  1.0000
  H   H23       1.0  0.9185638602347459  0.4942944989472404  0.06175730807468449  1.0000
  H   H24       1.0  0.8600399503236849  0.44313529722870704  0.619249945669337  1.0000
  H   H25       1.0  0.6242733762720548  0.39213067177097516  0.914341651774611  1.0000
  H   H26       1.0  0.5089745481006073  0.28931760804686535  0.9224140348868706  1.0000
  H   H27       1.0  0.5722799030380763  0.03604308878478801  0.2526845650266145  1.0000
  H   H28       1.0  0.6883095840597281  0.13593576318820788  0.24474917019603937  1.0000
  H   H29       1.0  0.4422106065339739  0.19008862500031798  0.295661372080978  1.0000
  H   H30       1.0  0.3576621516072219  0.17099001368963962  0.22342132452191943  1.0000
  H   H31       1.0  0.41552507775612596  0.296840605350432  0.15604646291402635  1.0000
  Zn  Zn1       1.0  0.7587412975588902  0.42086316862059925  0.5674500408772447  1.0000
  Zn  Zn2       1.0  0.9110484160996828  0.42085947927414424  0.5674456531502885  1.0000
  C   C40       1.0  0.8348784147059706  0.41575718926767546  0.8046332865021111  1.0000
  C   C41       1.0  0.8349129624028906  0.4259670972418905  0.33026253479235756  1.0000
  C   C42       1.0  0.8349341582910643  0.6580520081379526  0.5622520704214999  1.0000
  C   C43       1.0  0.8348571665832678  0.183670718092094  0.5726438202490522  1.0000
  O   O1        1.0  0.8927083094950216  0.4277108253650048  0.37864446398454654  1.0000
  O   O2        1.0  0.8926806463050344  0.4140096811853575  0.7562476533844109  1.0000
  O   O3        1.0  0.8927248806877379  0.6096658120723004  0.560523106414144  1.0000
  O   O4        1.0  0.892664023148878  0.2320547037411147  0.5743689135851056  1.0000
  O   O5        1.0  0.7771256385347509  0.6096679441562989  0.5605267804370944  1.0000
  O   O6        1.0  0.7770814044116329  0.41401337355154566  0.7562512580259435  1.0000
  O   O7        1.0  0.7771090677546715  0.427714472019572  0.3786465072982299  1.0000
  O   O8        1.0  0.7770647813970238  0.23205834113530033  0.574371054263163  1.0000
