data_image0
_chemical_formula_structural       NC12NC2H8C12OCH12C12NCOCH13Zn2C4O8
_chemical_formula_sum              "N3 C45 H33 O10 Zn2"
_cell_length_a       17.80743265337812
_cell_length_b       10.29979075500242
_cell_length_c       10.299158637457994
_cell_angle_alpha    85.5763692806703
_cell_angle_beta     91.51607039334635
_cell_angle_gamma    89.41792083348325

_space_group_name_H-M_alt    "P 1"
_space_group_IT_number       1

loop_
  _space_group_symop_operation_xyz
  'x, y, z'

loop_
  _atom_site_type_symbol
  _atom_site_label
  _atom_site_symmetry_multiplicity
  _atom_site_fract_x
  _atom_site_fract_y
  _atom_site_fract_z
  _atom_site_occupancy
  N   N1        1.0  0.7074210368948768  0.4061352922969219  0.6012487183745447  1.0000
  C   C1        1.0  0.6566081791777708  0.4356671070750877  0.5325487719116602  1.0000
  C   C2        1.0  0.5933919682389608  0.4724025424536942  0.44709468655107076  1.0000
  C   C3        1.0  0.605131549200497  0.5263734891906173  0.32047274002433945  1.0000
  C   C4        1.0  0.5438225333944386  0.5616062751092257  0.23741471323392282  1.0000
  C   C5        1.0  0.47061970398498365  0.543131319538197  0.28031872069717934  1.0000
  C   C6        1.0  0.4579032877165525  0.4890417538716001  0.4074088120550039  1.0000
  C   C7        1.0  0.5200696219700964  0.4538122153612947  0.49045032714294035  1.0000
  C   C8        1.0  0.3801319417626317  0.4694537952489817  0.4531731548410678  1.0000
  C   C9        1.0  0.3613189052991501  0.49669028452952  0.580213919274486  1.0000
  C   C10       1.0  0.2880861153500033  0.4782569183201344  0.6231584861739472  1.0000
  C   C11       1.0  0.2327232916066232  0.4323331213846746  0.5399002641220267  1.0000
  C   C12       1.0  0.1573537510294296  0.413347481711668  0.584245779199108  1.0000
  N   N2        1.0  0.09676197776460041  0.3980843042621294  0.6198965226479467  1.0000
  C   C13       1.0  0.25084477052437565  0.4049279337189233  0.413402474066479  1.0000
  C   C14       1.0  0.32402474732637254  0.4233759843824989  0.37020202245138  1.0000
  H   H1        1.0  0.6616005553391774  0.5411836741418508  0.2860351452497041  1.0000
  H   H2        1.0  0.5530300628863329  0.6036647737725522  0.1396339403918816  1.0000
  H   H3        1.0  0.4239864427558375  0.5727409705968718  0.2147266740306013  1.0000
  H   H4        1.0  0.5115607503008939  0.41036835716762976  0.5881067549568664  1.0000
  H   H5        1.0  0.4029771102538482  0.5338955072011671  0.645783516824832  1.0000
  H   H6        1.0  0.2746217015080643  0.5001412186283904  0.7211645315699471  1.0000
  H   H7        1.0  0.20846938315456712  0.3689901578728563  0.3482457351116077  1.0000
  H   H8        1.0  0.3369609945816577  0.3999562546553117  0.2724994182558933  1.0000
  C   C15       1.0  0.9021626088773662  0.020740596208977502  0.6106149573689266  1.0000
  C   C16       1.0  0.88039171889439  0.010070076187538302  0.7410119101255979  1.0000
  C   C17       1.0  0.8693006327283028  0.8875281784650394  0.8070490309836671  1.0000
  C   C18       1.0  0.8802567623491384  0.7747905509485677  0.7409396603885043  1.0000
  C   C19       1.0  0.9020276191552895  0.7834688565656426  0.6105417735165815  1.0000
  C   C20       1.0  0.9128603865154792  0.9068877643297217  0.5461103169019526  1.0000
  C   C21       1.0  0.8462728410667057  0.8772933820127129  0.9450031613314192  1.0000
  C   C22       1.0  0.7914492518332776  0.7875763802939764  0.9874434564471544  1.0000
  C   C23       1.0  0.7698437828307559  0.7782158885142477  0.11714930148122649  1.0000
  C   C24       1.0  0.8025755899802778  0.8579144874797311  0.20606625889186025  1.0000
  C   C25       1.0  0.8575988337263645  0.9482370915932261  0.1655072551220268  1.0000
  C   C26       1.0  0.8789715028149319  0.9572410279298889  0.03526355380341284  1.0000
  O   O1        1.0  0.892309130215947  0.0302481994217616  0.25103918947801074  1.0000
  C   C27       1.0  0.8761778847231269  0.03160547813551706  0.38560433722251464  1.0000
  H   H9        1.0  0.9104911242383853  0.35225732723420333  0.5609509876269563  1.0000
  H   H10       1.0  0.871013823516568  0.09730750131333221  0.7909921299191034  1.0000
  H   H11       1.0  0.872758001974391  0.680062973409216  0.7919490073871176  1.0000
  H   H12       1.0  0.9296562864966246  0.9143512112700525  0.44551460478991944  1.0000
  H   H13       1.0  0.9102859312752701  0.45932499077383376  0.5608368057810684  1.0000
  H   H14       1.0  0.7645908723112133  0.7258802367828265  0.9199467141374407  1.0000
  H   H15       1.0  0.7274085287181823  0.7091347919530463  0.14879604660110646  1.0000
  H   H16       1.0  0.7847533872324666  0.8485677552272798  0.30588047644789007  1.0000
  H   H17       1.0  0.9220126342890164  0.025883900184832775  0.005158703787050634  1.0000
  H   H18       1.0  0.8891459125500325  0.9348254831460631  0.4368486516767883  1.0000
  H   H19       1.0  0.9116211949726156  0.10552593035780689  0.4295167520500047  1.0000
  H   H20       1.0  0.816202618968844  0.05776124209264988  0.3971674422329613  1.0000
  C   C28       1.0  0.9021655604679325  0.4019653168027002  0.2292086827693074  1.0000
  C   C29       1.0  0.9038868710511194  0.5386325606595608  0.21796563247609657  1.0000
  C   C30       1.0  0.9047006115931513  0.608065820816885  0.09510478063146555  1.0000
  C   C31       1.0  0.9037429926571989  0.5389954044848262  0.9826472312761276  1.0000
  C   C32       1.0  0.9020246460000144  0.4022441907090504  0.9919481247117634  1.0000
  C   C33       1.0  0.9012497952069581  0.33456992984890777  0.11561733133767405  1.0000
  C   C34       1.0  0.9065224472698922  0.7526429758442199  0.08418459472057194  1.0000
  C   C35       1.0  0.9526206903614821  0.8195234289979321  0.16895395586122208  1.0000
  C   C36       1.0  0.954341256385136  0.9555780302822074  0.15854692096928247  1.0000
  C   C37       1.0  0.9104741160174145  0.027470283475653723  0.062290111700064044  1.0000
  C   C38       1.0  0.8634811453192481  0.9609687188177161  0.9792609448132565  1.0000
  C   C39       1.0  0.861791417525083  0.8249413892088262  0.9894084674273875  1.0000
  N   N3        1.0  0.9101624311795014  0.1675222699327681  0.05102756310556944  1.0000
  C   C40       1.0  0.9745140060910293  0.24517922442767937  0.07733438927104652  1.0000
  O   O2        1.0  0.0392953341847333  0.1944271315020183  0.08895759013872095  1.0000
  C   C41       1.0  0.9656761804163471  0.3891766821458065  0.08150108357401198  1.0000
  H   H21       1.0  0.9015270077381562  0.34939490043078414  0.5610101416553563  1.0000
  H   H22       1.0  0.9035491149462207  0.5914566290422139  0.3048956934338676  1.0000
  H   H23       1.0  0.9053623124671331  0.5919753581653802  0.8877485471361073  1.0000
  H   H24       1.0  0.8999246798743558  0.22915523846808616  0.12357458474028671  1.0000
  H   H25       1.0  0.8992374373915354  0.14410862012004633  0.8022327038715455  1.0000
  H   H26       1.0  0.9877910993125998  0.7665692780488773  0.24283557319880367  1.0000
  H   H27       1.0  0.9889990968614433  0.004200786578829163  0.22723408665579004  1.0000
  H   H28       1.0  0.8283319720385172  0.014797435264815029  0.9059495586563484  1.0000
  H   H29       1.0  0.8246723759556595  0.7763227468995046  0.9242876667269497  1.0000
  H   H30       1.0  0.861455166038215  0.2159843117740703  0.01374381193477392  1.0000
  H   H31       1.0  0.9128469641221651  0.411983722306247  0.1303866943819436  1.0000
  H   H32       1.0  0.963648088721888  0.435885816876445  0.9806810719897952  1.0000
  H   H33       1.0  0.01359782676456156  0.4289532512576404  0.1364475221090431  1.0000
  Zn  Zn1       1.0  0.8197764247718806  0.40380848651603385  0.6066375591534907  1.0000
  Zn  Zn2       1.0  0.9844065873117888  0.4004005204503924  0.6145182759578156  1.0000
  C   C42       1.0  0.9020505194166207  0.3970178107417144  0.8477744284665953  1.0000
  C   C43       1.0  0.9021342901096983  0.4071927976769649  0.3733816200114808  1.0000
  C   C44       1.0  0.9020502056369087  0.6392951920939149  0.6053802762976908  1.0000
  C   C45       1.0  0.9021345479760444  0.1649138572094908  0.6157758388796393  1.0000
  O   O3        1.0  0.9646000852013183  0.40764821690613573  0.4247580662858297  1.0000
  O   O4        1.0  0.9645352086526233  0.39397484426394236  0.8023788901464903  1.0000
  O   O5        1.0  0.9645341128117991  0.5896169116495833  0.6066438568452437  1.0000
  O   O6        1.0  0.9646011248813654  0.21200615993803096  0.6204929995221613  1.0000
  O   O7        1.0  0.8395818310221104  0.5922028481927779  0.6006628328930121  1.0000
  O   O8        1.0  0.8395829265961064  0.39656234108679356  0.7963977967988727  1.0000
  O   O9        1.0  0.8396478034912469  0.41023566790112764  0.4187754115410196  1.0000
  O   O10       1.0  0.8396488431518774  0.21459360167986996  0.6145104421461334  1.0000
