data_image0
_chemical_formula_structural       NC9NC5H8C12NH11C12OCH12Zn2C4O8
_chemical_formula_sum              "N3 C43 H31 O9 Zn2"
_cell_length_a       17.807436237873137
_cell_length_b       10.299770795358612
_cell_length_c       10.299794127170987
_cell_angle_alpha    85.57261220462476
_cell_angle_beta     89.38603407784058
_cell_angle_gamma    88.40764042794568

_space_group_name_H-M_alt    "P 1"
_space_group_IT_number       1

loop_
  _space_group_symop_operation_xyz
  'x, y, z'

loop_
  _atom_site_type_symbol
  _atom_site_label
  _atom_site_symmetry_multiplicity
  _atom_site_fract_x
  _atom_site_fract_y
  _atom_site_fract_z
  _atom_site_occupancy
  N   N1        1.0  0.7077553996902537  0.38731532079450215  0.5570657883558818  1.0000
  C   C1        1.0  0.6471623335668685  0.3521227410780665  0.5460455611286947  1.0000
  C   C2        1.0  0.5717912190528294  0.3083470475154164  0.5323375950166502  1.0000
  C   C3        1.0  0.5536941065875327  0.23690187781969785  0.42734583707201246  1.0000
  C   C4        1.0  0.4805126293525837  0.19428753333054383  0.41395367078024536  1.0000
  C   C5        1.0  0.4243794809344012  0.2227408235278283  0.5055208466403573  1.0000
  C   C6        1.0  0.3466064504881897  0.17756768999804384  0.49137050237333546  1.0000
  C   C7        1.0  0.2844429384580143  0.2593305825151424  0.5173008266632602  1.0000
  C   C8        1.0  0.2111191192399188  0.21651320621868164  0.5039223594200262  1.0000
  C   C9        1.0  0.1479059730212081  0.30096752794887305  0.5302163252287018  1.0000
  N   N2        1.0  0.0970955907611138  0.368862960054561  0.5513559478160486  1.0000
  C   C10       1.0  0.1993752228950508  0.09167495285841554  0.4645882427746659  1.0000
  C   C11       1.0  0.2606813631951304  0.009898205729236276  0.43864953041568544  1.0000
  C   C12       1.0  0.3338856936385862  0.05232098576452393  0.4518255040794872  1.0000
  C   C13       1.0  0.4431680713444991  0.2946804186294938  0.6107317795828828  1.0000
  C   C14       1.0  0.5164023963989475  0.33710432503321064  0.6239683192508909  1.0000
  H   H1        1.0  0.59608982422976  0.21439579642146955  0.3556382509475158  1.0000
  H   H2        1.0  0.4675960624199959  0.1405814531688323  0.331041718674991  1.0000
  H   H3        1.0  0.292955847224027  0.3568028663721845  0.5461677029011354  1.0000
  H   H4        1.0  0.1429048391708206  0.05763617032662394  0.4539969310246239  1.0000
  H   H5        1.0  0.2514703364443393  0.9132456587038703  0.4085822201532938  1.0000
  H   H6        1.0  0.380516080858673  0.9865710897620579  0.4327839403211926  1.0000
  H   H7        1.0  0.4014890511498365  0.31664783788630224  0.6837338570617546  1.0000
  H   H8        1.0  0.5298476003180957  0.39203067040978956  0.7058385783459507  1.0000
  C   C15       1.0  0.9023610032154314  0.996723683914352  0.5542514264128524  1.0000
  C   C16       1.0  0.8805649546700283  0.006894403685888895  0.4231668019384647  1.0000
  C   C17       1.0  0.8695896346548158  0.8949085539561287  0.35670908513854727  1.0000
  C   C18       1.0  0.8807024652163202  0.7716062535220118  0.4230962356553494  1.0000
  C   C19       1.0  0.9024971542052033  0.7594443065290993  0.5541814305897246  1.0000
  C   C20       1.0  0.9132047379672966  0.8725633433980383  0.6190248360320347  1.0000
  C   C21       1.0  0.8465310092526072  0.9067219747406512  0.21802915591349792  1.0000
  C   C22       1.0  0.7918310961927351  0.00047939940650065793  0.1736462960288241  1.0000
  C   C23       1.0  0.7701605305664675  0.011467438766355142  0.04311921340742053  1.0000
  C   C24       1.0  0.8027797602965111  0.9291363401896762  0.9549009634203971  1.0000
  C   C25       1.0  0.8572994574608657  0.8355852838214769  0.998395948979566  1.0000
  C   C26       1.0  0.8790302063063202  0.824338357810722  0.12889217737813174  1.0000
  N   N3        1.0  0.7805815705525803  0.9405085878840189  0.8213972523981701  1.0000
  H   H9        1.0  0.9106343554292605  0.3203019463084835  0.6042183457288748  1.0000
  H   H10       1.0  0.8730686374919044  0.10214031869185503  0.3719268927351107  1.0000
  H   H11       1.0  0.8713202940313302  0.6850075680657742  0.37282404244070855  1.0000
  H   H12       1.0  0.9300188310706851  0.8639490847356379  0.7201508272012285  1.0000
  H   H13       1.0  0.910834604294769  0.4273560479086392  0.6041157899468093  1.0000
  H   H14       1.0  0.7651026046979625  0.06417617058928293  0.2402384178443535  1.0000
  H   H15       1.0  0.7278074883597391  0.08394647544171074  0.010830300225800782  1.0000
  H   H16       1.0  0.8830989062191021  0.7715867918526449  0.9311282109398564  1.0000
  H   H17       1.0  0.9219592689260826  0.7523418816833518  0.15973316763038592  1.0000
  H   H18       1.0  0.804577801628254  0.8795571078396932  0.754908808891134  1.0000
  H   H19       1.0  0.7399870007950666  0.009963972238666186  0.7880594305280333  1.0000
  C   C27       1.0  0.9024544006141688  0.3779693144942762  0.1728646587818683  1.0000
  C   C28       1.0  0.8288299037932206  0.33233614732646344  0.17675540902149023  1.0000
  C   C29       1.0  0.7915031483275876  0.3093170275751076  0.0615803086486888  1.0000
  C   C30       1.0  0.8287788699936051  0.33256503206741095  0.9414512456348687  1.0000
  C   C31       1.0  0.9024037875477408  0.37819868672150503  0.9355682273449148  1.0000
  C   C32       1.0  0.9388300463820535  0.40064238218585446  0.05180068163148288  1.0000
  C   C33       1.0  0.7136147508728851  0.2610325247678822  0.06675116799550351  1.0000
  C   C34       1.0  0.659842155647766  0.3122479463808465  0.9763871052047168  1.0000
  C   C35       1.0  0.5866391454717355  0.2667874472580758  0.9815162755472082  1.0000
  C   C36       1.0  0.5661447274436104  0.16982516472026266  0.07651225943464546  1.0000
  C   C37       1.0  0.6191759206879996  0.11724028871333125  0.16774990259713474  1.0000
  C   C38       1.0  0.692481166322787  0.16333548649668472  0.16216780023173238  1.0000
  O   O1        1.0  0.6014752974248533  0.019506631563444232  0.2648399276221225  1.0000
  C   C39       1.0  0.5294535756069046  0.9636466526801238  0.2819386387817524  1.0000
  H   H20       1.0  0.9305184735146954  0.3952987244085222  0.498839533241211  1.0000
  H   H21       1.0  0.7999649255514443  0.31627539395960613  0.26945730055433614  1.0000
  H   H22       1.0  0.800613561233163  0.3133055147160373  0.8525346064926591  1.0000
  H   H23       1.0  0.9956285669736182  0.4358455971552182  0.04803073545273584  1.0000
  H   H24       1.0  0.9304429233644109  0.3956490729701436  0.6058693874215284  1.0000
  H   H25       1.0  0.674143204239503  0.38863601922020496  0.9028518034441855  1.0000
  H   H26       1.0  0.5455714286946318  0.3071290720875459  0.9117772506976523  1.0000
  H   H27       1.0  0.50906505243121  0.1364963016479508  0.07818101715514425  1.0000
  H   H28       1.0  0.7332174125146665  0.12125955737181116  0.23173807587465434  1.0000
  H   H29       1.0  0.513960664437322  0.9159253359550757  0.19330963314110217  1.0000
  H   H30       1.0  0.5313707027059263  0.8890802081191074  0.36558904980852436  1.0000
  H   H31       1.0  0.4866787162119379  0.03993201552581871  0.30283639151725206  1.0000
  Zn  Zn1       1.0  0.8201105663120982  0.3819869050831266  0.5554255624883844  1.0000
  Zn  Zn2       1.0  0.9847404033434971  0.374180792902709  0.5530068507870154  1.0000
  C   C40       1.0  0.9024107333580963  0.3729817646446363  0.7914014353459873  1.0000
  C   C41       1.0  0.9024420343342519  0.3831874867410707  0.3170310788276105  1.0000
  C   C42       1.0  0.9024678998780702  0.6152724933764273  0.549019817377975  1.0000
  C   C43       1.0  0.9023848113544913  0.14089520040599646  0.5594127669995728  1.0000
  O   O2        1.0  0.9649140482641481  0.381970708437424  0.36449675840561735  1.0000
  O   O3        1.0  0.9648889563098312  0.36827290459886086  0.7420996358124168  1.0000
  O   O4        1.0  0.9649342766994372  0.563925772574601  0.5463747766630047  1.0000
  O   O5        1.0  0.9648686717056539  0.186317852386235  0.5602215210092241  1.0000
  O   O6        1.0  0.8399822417698586  0.5698498482648555  0.5482108930847327  1.0000
  O   O7        1.0  0.8399369216599567  0.37419854055765356  0.7439356828487509  1.0000
  O   O8        1.0  0.8399620137598219  0.3878962986688028  0.366331244114779  1.0000
  O   O9        1.0  0.839916637190133  0.19224343335831762  0.5620561040827483  1.0000
