data_image0
_chemical_formula_structural       NC11NC3H8C12ClH9C12BrH9Zn2C4O8
_chemical_formula_sum              "N2 C42 H26 Cl1 Br1 Zn2 O8"
_cell_length_a       17.807433833752565
_cell_length_b       10.299768534541528
_cell_length_c       10.299148005577397
_cell_angle_alpha    85.55407396339785
_cell_angle_beta     88.49799670841169
_cell_angle_gamma    90.7030232555817

_space_group_name_H-M_alt    "P 1"
_space_group_IT_number       1

loop_
  _space_group_symop_operation_xyz
  'x, y, z'

loop_
  _atom_site_type_symbol
  _atom_site_label
  _atom_site_symmetry_multiplicity
  _atom_site_fract_x
  _atom_site_fract_y
  _atom_site_fract_z
  _atom_site_occupancy
  N   N1        1.0  0.7080718810977618  0.43867896622881175  0.5346085040228523  1.0000
  C   C1        1.0  0.6572281676090983  0.4039428213350813  0.6011737205706189  1.0000
  C   C2        1.0  0.5939734652058375  0.3607339207727629  0.6839723552629136  1.0000
  C   C3        1.0  0.6056559862619048  0.2971663375628255  0.8066960722340273  1.0000
  C   C4        1.0  0.5443095995165576  0.25563753164074243  0.8872106919089049  1.0000
  C   C5        1.0  0.4711261146617088  0.27736294953677887  0.8456424183997393  1.0000
  C   C6        1.0  0.45846695196190534  0.34108514993258066  0.7224584823781921  1.0000
  C   C7        1.0  0.3807162381978871  0.3641410815122077  0.6781094354844353  1.0000
  C   C8        1.0  0.3619641432332745  0.3472877974832569  0.5485213551547219  1.0000
  C   C9        1.0  0.28875072042749617  0.368974494083393  0.5069090066590711  1.0000
  C   C10       1.0  0.23334659721301904  0.4078331189604625  0.5940644263435975  1.0000
  C   C11       1.0  0.157996939224469  0.43017847336624526  0.5510907237326133  1.0000
  N   N2        1.0  0.09742118649957031  0.44814247824129105  0.5165429944500837  1.0000
  C   C12       1.0  0.2514073097792877  0.4248970554983995  0.7231213480915182  1.0000
  C   C13       1.0  0.3245678961179774  0.4031753920816923  0.7649891393812407  1.0000
  C   C14       1.0  0.520670645357  0.38260938857462445  0.6419602793386028  1.0000
  H   H1        1.0  0.6621096213536991  0.2797471527368145  0.8400630459138054  1.0000
  H   H2        1.0  0.5534731812245411  0.20617188912818696  0.9819509028883779  1.0000
  H   H3        1.0  0.4244634708686449  0.24279798417653242  0.9090841797403486  1.0000
  H   H4        1.0  0.4036549685346277  0.315656214178327  0.47980017331404956  1.0000
  H   H5        1.0  0.2753333840771265  0.3551084118922174  0.40686850548036446  1.0000
  H   H6        1.0  0.20899961101264  0.4553056976090346  0.7913277013886557  1.0000
  H   H7        1.0  0.3374571363662738  0.4185868963691093  0.8648469152375602  1.0000
  H   H8        1.0  0.5122057319519401  0.43343733759709324  0.5474544322246977  1.0000
  C   C15       1.0  0.902679266787676  0.0620436917191971  0.5255767246189447  1.0000
  C   C16       1.0  0.9076640059847527  0.07175036934671808  0.38886993265486147  1.0000
  C   C17       1.0  0.9102620360241164  0.9595312072605725  0.319603552052214  1.0000
  C   C18       1.0  0.9078074888105446  0.8364661371327623  0.3888787658443702  1.0000
  C   C19       1.0  0.9028209822676039  0.8247678875196963  0.5255855777594927  1.0000
  C   C20       1.0  0.9002853492341711  0.9381145822198745  0.5931689723905649  1.0000
  C   C21       1.0  0.915536473450634  0.9708537550901579  0.1749791162408627  1.0000
  C   C22       1.0  0.8728164479427903  0.0633662973754161  0.10249390659831548  1.0000
  C   C23       1.0  0.877847834463885  0.07382923293108301  0.966374156920434  1.0000
  C   C24       1.0  0.9255271511758107  0.9923002543614196  0.901051022702573  1.0000
  C   C25       1.0  0.968235271500068  0.900099886626583  0.9720254913891373  1.0000
  C   C26       1.0  0.9633372961223993  0.8892479403887115  0.10815369484307036  1.0000
  Cl  Cl1       1.0  0.9317560652133547  0.005671571551159937  0.7302687911171195  1.0000
  H   H9        1.0  0.9007412890152059  0.3857977835774786  0.5776672771950058  1.0000
  H   H10       1.0  0.910574657432808  0.16684114279785978  0.33599974935347676  1.0000
  H   H11       1.0  0.9087576030609964  0.7496631333763168  0.33588598466269826  1.0000
  H   H12       1.0  0.8964390915473875  0.929858120046222  0.6986320046943368  1.0000
  H   H13       1.0  0.9009508012639321  0.4928572872645504  0.5776807859660689  1.0000
  H   H14       1.0  0.8348185234847272  0.12641185269267297  0.15100270573348862  1.0000
  H   H15       1.0  0.8445068093737639  0.14514091555775388  0.9118066959061677  1.0000
  H   H16       1.0  0.005395805644373919  0.8369876080257428  0.9218659872470956  1.0000
  H   H17       1.0  0.9976320533944779  0.8182529652298771  0.1611825261139379  1.0000
  C   C27       1.0  0.9028525314111203  0.44346034038880533  0.14418822905649598  1.0000
  C   C28       1.0  0.8321978009766141  0.5025223143185167  0.14203076046747865  1.0000
  C   C29       1.0  0.7962685493075209  0.5324121613649553  0.023803519551634844  1.0000
  C   C30       1.0  0.8319470490511373  0.5024434151596162  0.9067653588049307  1.0000
  C   C31       1.0  0.9026476969238182  0.44335129075192614  0.9069740845540637  1.0000
  C   C32       1.0  0.9376649447326634  0.41422164413345786  0.026129484454623153  1.0000
  C   C33       1.0  0.7215249090398344  0.5948945468052149  0.022566069499412533  1.0000
  C   C34       1.0  0.7057629578254023  0.6958283465703716  0.10337747930740937  1.0000
  C   C35       1.0  0.6353802832879346  0.754526079104769  0.10201954182117956  1.0000
  C   C36       1.0  0.5799596110503861  0.7132356551526222  0.020225567874917694  1.0000
  C   C37       1.0  0.5949671450996002  0.6130703774757067  0.9395967131363938  1.0000
  C   C38       1.0  0.6652859065005298  0.5541491279085873  0.9405650731890112  1.0000
  Br  Br1       1.0  0.483861126077307  0.793569850805639  0.018635912246986797  1.0000
  H   H18       1.0  0.9300447363187422  0.42079561785032293  0.4724888614895093  1.0000
  H   H19       1.0  0.8044794986427636  0.5237946475444968  0.23265682729923176  1.0000
  H   H20       1.0  0.8049710245378323  0.5268824845107161  0.8152010625680854  1.0000
  H   H21       1.0  0.9921637899983439  0.3686696344104925  0.02707750157923794  1.0000
  H   H22       1.0  0.036301371670680815  0.33255833907002086  0.7000094217624206  1.0000
  H   H23       1.0  0.7481596870971984  0.7304756659249796  0.1663185599399304  1.0000
  H   H24       1.0  0.6240497134436076  0.8323163529574893  0.1643513584108256  1.0000
  H   H25       1.0  0.552126392860345  0.5805642337627024  0.8763692774803999  1.0000
  H   H26       1.0  0.6753592315465446  0.4756390100774155  0.8784926720039703  1.0000
  Zn  Zn1       1.0  0.820429677372195  0.44140645567996417  0.5294026731465511  1.0000
  Zn  Zn2       1.0  0.985063370648823  0.44540436773486536  0.52175941188307  1.0000
  C   C39       1.0  0.9026837872064266  0.4381982017320454  0.7627912700303177  1.0000
  C   C40       1.0  0.9028110588796141  0.4486143039334667  0.2883708590287297  1.0000
  C   C41       1.0  0.902791711456132  0.6805974600873688  0.5204086232719811  1.0000
  C   C42       1.0  0.9027030781434535  0.20621348390883631  0.5307535776199652  1.0000
  O   O1        1.0  0.965274767869319  0.45185554225601554  0.3338592888895957  1.0000
  O   O2        1.0  0.9651732419676945  0.43799030648936443  0.7115014078424742  1.0000
  O   O3        1.0  0.9652595495732782  0.6337307525228271  0.5157757448051761  1.0000
  O   O4        1.0  0.9651884041132824  0.2561151041624372  0.5295848571543262  1.0000
  O   O5        1.0  0.8403045877263382  0.6306957178895161  0.5215772304767337  1.0000
  O   O6        1.0  0.8402182804258123  0.43495683216248415  0.7173028242825712  1.0000
  O   O7        1.0  0.8403198067882853  0.44882202289785034  0.3396591438277743  1.0000
  O   O8        1.0  0.8402334430013041  0.2530815755015112  0.535384809466511  1.0000
