data_image0
_chemical_formula_structural       NC10NC5H10C12NCOCH13C15H12Zn2C4O8
_chemical_formula_sum              "N3 C48 H35 O9 Zn2"
_cell_length_a       19.4436361288709
_cell_length_b       10.299155265289647
_cell_length_c       10.299157797200024
_cell_angle_alpha    85.52785804654131
_cell_angle_beta     89.72702837822627
_cell_angle_gamma    89.39615277754326

_space_group_name_H-M_alt    "P 1"
_space_group_IT_number       1

loop_
  _space_group_symop_operation_xyz
  'x, y, z'

loop_
  _atom_site_type_symbol
  _atom_site_label
  _atom_site_symmetry_multiplicity
  _atom_site_fract_x
  _atom_site_fract_y
  _atom_site_fract_z
  _atom_site_occupancy
  N   N1        1.0  0.6470584801217772  0.4098368162000101  0.5616306743217456  1.0000
  C   C1        1.0  0.588224384494867  0.41973269379821887  0.5760128891780802  1.0000
  C   C2        1.0  0.5148974093755516  0.43207415456557374  0.5940030147091651  1.0000
  C   C3        1.0  0.4726947641918031  0.4001193409869901  0.49933202142279143  1.0000
  C   C4        1.0  0.3967893740428946  0.4105558992994631  0.5046576448776119  1.0000
  C   C5        1.0  0.3570837467808879  0.3857558764328721  0.6117432043592448  1.0000
  C   C6        1.0  0.2809589383277454  0.3896788724003819  0.5987819910929844  1.0000
  C   C7        1.0  0.24040914387556203  0.44730040836930773  0.6925430439476321  1.0000
  C   C8        1.0  0.16874218686377754  0.45094338357837005  0.6819975307851547  1.0000
  C   C9        1.0  0.1366304264865482  0.39656864752627485  0.5779776143232105  1.0000
  C   C10       1.0  0.0628341708180691  0.400272943469409  0.5672767933736302  1.0000
  N   N2        1.0  0.0035069865580102  0.4032510029603531  0.5586740427684032  1.0000
  C   C11       1.0  0.1764555776010954  0.3382397887530353  0.484600008018792  1.0000
  C   C12       1.0  0.2481389077946881  0.3345427038542903  0.49489374280722176  1.0000
  C   C13       1.0  0.38525976426604375  0.34523052122842346  0.7428566103215917  1.0000
  C   C14       1.0  0.4439270361536122  0.38833337305106785  0.7900905178840014  1.0000
  C   C15       1.0  0.4880945155782964  0.486233724675986  0.7156925059668284  1.0000
  H   H1        1.0  0.4947757703220488  0.37104254315682494  0.4090274359591666  1.0000
  H   H2        1.0  0.3720615478804926  0.43309600211041954  0.4114876189012111  1.0000
  H   H3        1.0  0.2642921682302312  0.49055648303195265  0.7733847889491485  1.0000
  H   H4        1.0  0.1384074206022285  0.49622705962285063  0.7549107876821195  1.0000
  H   H5        1.0  0.152100719321009  0.2951792287617703  0.4040927143522124  1.0000
  H   H6        1.0  0.2778087049197666  0.28701514621867275  0.4226774583263859  1.0000
  H   H7        1.0  0.3543245989233509  0.2809785317978495  0.8071245289185605  1.0000
  H   H8        1.0  0.4591100165445918  0.3542176071973857  0.8880400003946676  1.0000
  H   H9        1.0  0.4579601187741116  0.5769665256921968  0.6904149195168869  1.0000
  H   H10       1.0  0.5313911061638917  0.5117919446486183  0.778774531305612  1.0000
  C   C16       1.0  0.8253628667405234  0.02514491209256442  0.5602704303331705  1.0000
  C   C17       1.0  0.813585738384208  0.03511289629943093  0.42543541686673136  1.0000
  C   C18       1.0  0.8075478494958693  0.923030466151018  0.3569540469083181  1.0000
  C   C19       1.0  0.8134212203474752  0.7998562811255998  0.42512897951880646  1.0000
  C   C20       1.0  0.8252092047817325  0.7879328321125939  0.5600454980478671  1.0000
  C   C21       1.0  0.8311105166705027  0.9010959790634191  0.6267855955872608  1.0000
  C   C22       1.0  0.7950899188120086  0.9345490434564091  0.21431487685940387  1.0000
  C   C23       1.0  0.8299537852342053  0.028046148369879065  0.132603565928185  1.0000
  C   C24       1.0  0.8182357109936125  0.03875490670459847  0.9983705551310433  1.0000
  C   C25       1.0  0.7718470964276332  0.955290446230015  0.9430016629803979  1.0000
  C   C26       1.0  0.7361430836342748  0.8636251749823122  0.024651779309855737  1.0000
  C   C27       1.0  0.7478862004751546  0.8526599484512066  0.15884724484506285  1.0000
  N   N3        1.0  0.7579149686979338  0.9658401254113488  0.8055485083156282  1.0000
  C   C28       1.0  0.8081147854058562  0.001885742638877197  0.7069089258971446  1.0000
  O   O1        1.0  0.8712176899269576  0.003243773767093394  0.7342454820338782  1.0000
  C   C29       1.0  0.7861439448307375  0.02879005396966261  0.5685435616575538  1.0000
  H   H11       1.0  0.8299142018041151  0.3487865935748822  0.6121278723272665  1.0000
  H   H12       1.0  0.808133244203629  0.1302780378036894  0.373668120457862  1.0000
  H   H13       1.0  0.8097103810745286  0.7131453700640479  0.37252838017163503  1.0000
  H   H14       1.0  0.8401967771896345  0.8926925568226192  0.7307861945179064  1.0000
  H   H15       1.0  0.8478702273159343  0.5581370685937214  0.8145591279051096  1.0000
  H   H16       1.0  0.8666890176596181  0.09240084911737734  0.17239341500591476  1.0000
  H   H17       1.0  0.8446090480971385  0.11374546180350076  0.938568048416164  1.0000
  H   H18       1.0  0.699341664121717  0.7999760704605579  0.9839953950189186  1.0000
  H   H19       1.0  0.7193029786133529  0.7813262613966913  0.2195010753888189  1.0000
  H   H20       1.0  0.7094652686127264  0.9378782899079501  0.7748752041517695  1.0000
  H   H21       1.0  0.7364947273768627  0.0831547100269272  0.5645014924207765  1.0000
  H   H22       1.0  0.7797700103873396  0.9353150361047327  0.5233698443228976  1.0000
  H   H23       1.0  0.825286780798029  0.08817875439858947  0.5128205157260393  1.0000
  C   C30       1.0  0.8252062583291363  0.4066465872142826  0.17876657514874394  1.0000
  C   C31       1.0  0.7535711078122025  0.3899894230075953  0.17954125005952615  1.0000
  C   C32       1.0  0.7173972620411528  0.38143203559467853  0.06279052180803579  1.0000
  C   C33       1.0  0.7537755062780991  0.3897768991600741  0.944272321934851  1.0000
  C   C34       1.0  0.8253657652205822  0.40643109779018105  0.941549337278194  1.0000
  C   C35       1.0  0.8606631012270722  0.41476292960379424  0.05933025162892247  1.0000
  C   C36       1.0  0.641662864571983  0.36382703921350923  0.06465582353374533  1.0000
  C   C37       1.0  0.6107325218413177  0.27741301398679186  0.9838311287314441  1.0000
  C   C38       1.0  0.539463262071535  0.2609390309345101  0.9856186874832429  1.0000
  C   C39       1.0  0.497855102961627  0.32989336971929917  0.06877367332947104  1.0000
  C   C40       1.0  0.5284171897148003  0.4171598089531998  0.14862445658863055  1.0000
  C   C41       1.0  0.5996857551637531  0.4336380035027394  0.146984853078179  1.0000
  C   C42       1.0  0.42107748409087353  0.31449551645465235  0.06835253845898515  1.0000
  C   C43       1.0  0.3901262734157002  0.40884179100543094  0.9711705528662322  1.0000
  C   C44       1.0  0.3646889835364294  0.4864224124773775  0.891259978410734  1.0000
  H   H24       1.0  0.9604687291688959  0.43729033273679985  0.384658858346032  1.0000
  H   H25       1.0  0.7259081495975966  0.3818750278208134  0.2713109935127973  1.0000
  H   H26       1.0  0.7260128888924469  0.3850514241836043  0.8538718494453557  1.0000
  H   H27       1.0  0.9158828353815952  0.42760503550645157  0.057945666078338176  1.0000
  H   H28       1.0  0.8529046108966225  0.4127953685339796  0.6130296105357615  1.0000
  H   H29       1.0  0.6417411720013169  0.2214703725995697  0.92021825117037  1.0000
  H   H30       1.0  0.5167054380289205  0.19419881109051285  0.922268237255659  1.0000
  H   H31       1.0  0.4970069444608017  0.47280066869045845  0.21189575761859847  1.0000
  H   H32       1.0  0.6218821708166333  0.5024959806245215  0.20869809414781404  1.0000
  H   H33       1.0  0.4073708041236672  0.21450110705754954  0.045050701629151035  1.0000
  H   H34       1.0  0.3991805831654344  0.3303461716299796  0.16575090094844458  1.0000
  H   H35       1.0  0.3423764954074552  0.5545351785204797  0.8211056278408195  1.0000
  Zn  Zn1       1.0  0.7499218229053595  0.40793281899563616  0.560784967927952  1.0000
  Zn  Zn2       1.0  0.9006436396610146  0.40514438862934155  0.5595304340997331  1.0000
  C   C45       1.0  0.8253351419349169  0.40129779298764956  0.7973686260576847  1.0000
  C   C46       1.0  0.8252319662054972  0.4117810229003176  0.3229468892612928  1.0000
  C   C47       1.0  0.8252336084745433  0.6437511781205769  0.554912580553744  1.0000
  C   C48       1.0  0.8253334485639235  0.1693260782739261  0.5654030048961383  1.0000
  O   O2        1.0  0.8824387391106852  0.4124403254408129  0.3708590324018852  1.0000
  O   O3        1.0  0.882522740601043  0.398521156625008  0.7485039471902424  1.0000
  O   O4        1.0  0.8824399802718264  0.5943053452449027  0.5527189810488657  1.0000
  O   O5        1.0  0.882521447986517  0.21665614709088055  0.5666439015882017  1.0000
  O   O6        1.0  0.7680439631458966  0.5964210614870677  0.5536715008607629  1.0000
  O   O7        1.0  0.7681267231430998  0.4006384333136068  0.7494563972925139  1.0000
  O   O8        1.0  0.7680427213810284  0.4145575573101141  0.37180992102438815  1.0000
  O   O9        1.0  0.7681254302762843  0.21877336964318905  0.5675948875870442  1.0000
