data_image0
_chemical_formula_structural       NC10NC5H10C12OCH12C12BrH9Zn2C4O8
_chemical_formula_sum              "N2 C44 H31 O9 Br1 Zn2"
_cell_length_a       19.4436361288709
_cell_length_b       10.29979075500242
_cell_length_c       10.299148005577397
_cell_angle_alpha    85.5479051999474
_cell_angle_beta     89.67790826124899
_cell_angle_gamma    89.4004616021446

_space_group_name_H-M_alt    "P 1"
_space_group_IT_number       1

loop_
  _space_group_symop_operation_xyz
  'x, y, z'

loop_
  _atom_site_type_symbol
  _atom_site_label
  _atom_site_symmetry_multiplicity
  _atom_site_fract_x
  _atom_site_fract_y
  _atom_site_fract_z
  _atom_site_occupancy
  N   N1        1.0  0.6477682318487943  0.4095093176044753  0.5619340839982918  1.0000
  C   C1        1.0  0.5889279824694429  0.41940658145107057  0.5763182746493325  1.0000
  C   C2        1.0  0.51559330842247  0.4317497791233418  0.5943108639192085  1.0000
  C   C3        1.0  0.4734324746697258  0.39978322867913874  0.4996337937900741  1.0000
  C   C4        1.0  0.397525072014187  0.4102197672899073  0.5049615628671136  1.0000
  C   C5        1.0  0.35776975498289765  0.3854378172016233  0.6120412710102816  1.0000
  C   C6        1.0  0.2816509969948197  0.3893585531987247  0.5990809583297148  1.0000
  C   C7        1.0  0.24106081388756792  0.4469896688986643  0.6928534528348271  1.0000
  C   C8        1.0  0.1693987973924063  0.4506307698405294  0.6823087666043035  1.0000
  C   C9        1.0  0.1373322202135634  0.3962446541247051  0.5782781509022916  1.0000
  C   C10       1.0  0.0635409781240159  0.39994704759397237  0.5675781706645096  1.0000
  N   N2        1.0  0.00421782445104  0.402923577618032  0.5589760959465089  1.0000
  C   C11       1.0  0.17719755774567472  0.3379063290164037  0.48488895285122635  1.0000
  C   C12       1.0  0.24887605983404573  0.3342110847405204  0.49518185099271417  1.0000
  C   C13       1.0  0.3858845339477216  0.3449353896621974  0.7431453912053456  1.0000
  C   C14       1.0  0.44453201249821933  0.3880419596619604  0.7903880014891989  1.0000
  C   C15       1.0  0.4887371847856415  0.4859234058405135  0.7160108984081592  1.0000
  H   H1        1.0  0.4955534189994982  0.37069512478987043  0.4093237049491616  1.0000
  H   H2        1.0  0.37284051638691046  0.4327440700622538  0.4117968288861542  1.0000
  H   H3        1.0  0.2649087621621302  0.4902545090599615  0.7737037212678486  1.0000
  H   H4        1.0  0.1390326415468882  0.49592185822910917  0.7552310201300743  1.0000
  H   H5        1.0  0.1528776310828996  0.2948370384869885  0.4043731744730643  1.0000
  H   H6        1.0  0.27857684128310267  0.2866763962934007  0.42295609698982495  1.0000
  H   H7        1.0  0.35491760663730093  0.28069813231492735  0.8073994902658383  1.0000
  H   H8        1.0  0.4596690931189404  0.3539436244401035  0.888329745015134  1.0000
  H   H9        1.0  0.4586178534237617  0.5766452602194747  0.6907524154395484  1.0000
  H   H10       1.0  0.5320060828706002  0.5114891106782511  0.7790978636020862  1.0000
  C   C16       1.0  0.8260581169747558  0.024847486667778362  0.5604935267567737  1.0000
  C   C17       1.0  0.8061163468632491  0.014029734948026062  0.6921039061985641  1.0000
  C   C18       1.0  0.7959571280691943  0.8914130259373061  0.758759186225396  1.0000
  C   C19       1.0  0.8059927964314553  0.7787497345004148  0.6920391429578412  1.0000
  C   C20       1.0  0.8259345362403837  0.7875752721542291  0.5604278312043194  1.0000
  C   C21       1.0  0.8358571348590708  0.9110672152099412  0.49539261548440594  1.0000
  C   C22       1.0  0.774864054879788  0.8810224832555169  0.8979967993482036  1.0000
  C   C23       1.0  0.7246684842377634  0.791076771075324  0.9434812361781035  1.0000
  C   C24       1.0  0.7048782139979423  0.7815700174189739  0.07439130003133665  1.0000
  C   C25       1.0  0.7348381564636712  0.8613484027954721  0.16149538898350557  1.0000
  C   C26       1.0  0.785216371414011  0.9518995388613448  0.11788123945928042  1.0000
  C   C27       1.0  0.8047935489506977  0.9610491226323811  0.986446216876381  1.0000
  O   O1        1.0  0.816987928037939  0.03399960765901766  0.20149037284728077  1.0000
  C   C28       1.0  0.8022090688791105  0.03522894215803829  0.3369561433876247  1.0000
  H   H11       1.0  0.8336868805253689  0.3564204324205489  0.5103653660657348  1.0000
  H   H12       1.0  0.7975268263714191  0.10120681405731857  0.7426065649693381  1.0000
  H   H13       1.0  0.7991235904408439  0.6839684162628847  0.7434666878858709  1.0000
  H   H14       1.0  0.8512418972953496  0.9186442473608957  0.3938607638671594  1.0000
  H   H15       1.0  0.8334990301743868  0.46348737558673114  0.5102625667936198  1.0000
  H   H16       1.0  0.7000841643682956  0.7293124431350373  0.877472279549707  1.0000
  H   H17       1.0  0.6660252901403315  0.7123124893389009  0.10839426209227121  1.0000
  H   H18       1.0  0.7185138490125307  0.851884586804963  0.26230266918601153  1.0000
  H   H19       1.0  0.8442010499425415  0.02986995494330391  0.9539515888921144  1.0000
  H   H20       1.0  0.8140776827960247  0.9384726008281791  0.3874828618792886  1.0000
  H   H21       1.0  0.8346549076126598  0.10926180814710706  0.3789034022908637  1.0000
  H   H22       1.0  0.7472993811000334  0.06115182532724295  0.3518480384307885  1.0000
  C   C29       1.0  0.8260900559249702  0.4062617026967468  0.17907172566963148  1.0000
  C   C30       1.0  0.7613854065706962  0.468236862687041  0.17416631802867855  1.0000
  C   C31       1.0  0.7284819303166046  0.4996081175404816  0.054541713859485697  1.0000
  C   C32       1.0  0.7611558671659838  0.4681682987925213  0.9388911942755382  1.0000
  C   C33       1.0  0.8259025643563762  0.40616109519044796  0.9418496440564987  1.0000
  C   C34       1.0  0.8579708404928197  0.3755876438387915  0.0623669373281861  1.0000
  C   C35       1.0  0.6600327116807193  0.5651722801200032  0.05039729658134484  1.0000
  C   C36       1.0  0.645568980759569  0.6667570491328452  0.1305864746617278  1.0000
  C   C37       1.0  0.581113521972594  0.7283567488213647  0.12649119341671744  1.0000
  C   C38       1.0  0.5303891196911037  0.6893503091252056  0.04255096636161482  1.0000
  C   C39       1.0  0.5441619197469809  0.5885651695001248  0.9625149877106751  1.0000
  C   C40       1.0  0.6085589397313161  0.5267445845807681  0.9662182348452033  1.0000
  Br  Br1       1.0  0.44238342198250663  0.7736467698370482  0.03722380014309956  1.0000
  H   H23       1.0  0.8509922886078853  0.3824758111392368  0.508429923997163  1.0000
  H   H24       1.0  0.7360019895077002  0.49065203398797275  0.2637145500048781  1.0000
  H   H25       1.0  0.7364509602068665  0.49371964790478695  0.8462775347601306  1.0000
  H   H26       1.0  0.9078801464522069  0.3277885761889623  0.06543455024100475  1.0000
  H   H27       1.0  0.9483004880300461  0.289857440865984  0.7400830089698154  1.0000
  H   H28       1.0  0.6843720542782615  0.6996571618197607  0.19516911446756113  1.0000
  H   H29       1.0  0.5707144470321499  0.8066150403040335  0.18837516588892678  1.0000
  H   H30       1.0  0.5049516280802807  0.5578245619518785  0.8976285379593305  1.0000
  H   H31       1.0  0.6178072350066991  0.4478182650864928  0.9045449662281126  1.0000
  Zn  Zn1       1.0  0.7506318845218248  0.40760534294391726  0.5610879853758093  1.0000
  Zn  Zn2       1.0  0.901354162386754  0.4048169431869355  0.5598328772237182  1.0000
  C   C41       1.0  0.8259373169124876  0.4010064548668266  0.7976687708156811  1.0000
  C   C42       1.0  0.8260503755818059  0.411417439417489  0.32325220541022337  1.0000
  C   C43       1.0  0.8259556103632868  0.6434042574749583  0.5552648726494998  1.0000
  C   C44       1.0  0.8260320309358598  0.16901807744919362  0.565656173381254  1.0000
  O   O2        1.0  0.8832353783682895  0.41208390284211394  0.3711641850011007  1.0000
  O   O3        1.0  0.8831470358000284  0.3982226808726852  0.7488038193972166  1.0000
  O   O4        1.0  0.883161036600281  0.5939619861040448  0.5530609628849423  1.0000
  O   O5        1.0  0.8832213261591622  0.21634460786531284  0.5669069445610686  1.0000
  O   O6        1.0  0.7687646693153019  0.5960776792184987  0.554013918459934  1.0000
  O   O7        1.0  0.7687506682760812  0.40033993430026094  0.7497567055888343  1.0000
  O   O8        1.0  0.7688390112812105  0.4142011112188517  0.37211550971340857  1.0000
  O   O9        1.0  0.7688249590468428  0.21846180694045048  0.5678583666471586  1.0000
