data_image0
_chemical_formula_structural       NC9NC5H8C13OH12C12OCH12Zn2C4O8
_chemical_formula_sum              "N2 C44 H32 O10 Zn2"
_cell_length_a       17.807436237873137
_cell_length_b       10.299150109392551
_cell_length_c       10.299794127170987
_cell_angle_alpha    85.5569512017134
_cell_angle_beta     89.38603407784058
_cell_angle_gamma    88.37145022261349

_space_group_name_H-M_alt    "P 1"
_space_group_IT_number       1

loop_
  _space_group_symop_operation_xyz
  'x, y, z'

loop_
  _atom_site_type_symbol
  _atom_site_label
  _atom_site_symmetry_multiplicity
  _atom_site_fract_x
  _atom_site_fract_y
  _atom_site_fract_z
  _atom_site_occupancy
  N   N1        1.0  0.7072501945674434  0.3874523119649931  0.556692945722389  1.0000
  C   C1        1.0  0.6466699441834155  0.3522562571390311  0.5456821765426292  1.0000
  C   C2        1.0  0.5713147710377955  0.3084762409228281  0.5319859752000111  1.0000
  C   C3        1.0  0.5532436760648377  0.23702401633679293  0.42701341822924  1.0000
  C   C4        1.0  0.4800777172811149  0.19440546387210245  0.4136327045929622  1.0000
  C   C5        1.0  0.423934207305071  0.22286156370427634  0.5051922335976771  1.0000
  C   C6        1.0  0.3461776271193954  0.17768396953000543  0.4910540296637256  1.0000
  C   C7        1.0  0.2839843402921453  0.25945493576630896  0.5169623800795708  1.0000
  C   C8        1.0  0.2106761134613939  0.21663333144583063  0.503595420056864  1.0000
  C   C9        1.0  0.1474322123340175  0.3010959926618  0.5298666886666752  1.0000
  N   N2        1.0  0.0965971052549862  0.3689981291371254  0.5509880642763316  1.0000
  C   C10       1.0  0.1989776782486672  0.09178275086752463  0.4642948538397631  1.0000
  C   C11       1.0  0.2603135983911209  0.00999792865105964  0.4383781190783058  1.0000
  C   C12       1.0  0.3335024801435139  0.05242489774575243  0.451542691569792  1.0000
  C   C13       1.0  0.4426966001727404  0.2948082625185515  0.6103838326889228  1.0000
  C   C14       1.0  0.5159154761259472  0.33723635809289787  0.6236089708819026  1.0000
  H   H1        1.0  0.5956475895277601  0.2145157125638908  0.35531188064074093  1.0000
  H   H2        1.0  0.46718070796921884  0.14069408047566623  0.33073518606027963  1.0000
  H   H3        1.0  0.2924617535248798  0.35693684457454666  0.545803060525861  1.0000
  H   H4        1.0  0.1425196900966992  0.05774060715850737  0.45371269005279014  1.0000
  H   H5        1.0  0.2511377686580215  0.9133358376198357  0.4083367843022556  1.0000
  H   H6        1.0  0.3801568108635295  0.986668509235723  0.43251879817382277  1.0000
  H   H7        1.0  0.4010095803167339  0.31677785095956135  0.6833800063978843  1.0000
  H   H8        1.0  0.5293406780522929  0.3921681271999229  0.7054644684566707  1.0000
  C   C15       1.0  0.9019980360488529  0.9968221059111892  0.5539835557437944  1.0000
  C   C16       1.0  0.9006050921971923  0.9851230327499795  0.6908078986892021  1.0000
  C   C17       1.0  0.8998334888528664  0.8620597765187614  0.7599180210133252  1.0000
  C   C18       1.0  0.9004602700094085  0.7498744484211257  0.6904466437370897  1.0000
  C   C19       1.0  0.9018564407068157  0.7596179871332693  0.553708648190177  1.0000
  C   C20       1.0  0.9026192308624884  0.8835527480152382  0.48627616017538067  1.0000
  C   C21       1.0  0.8983533678725013  0.8506655184431113  0.9045726400920051  1.0000
  C   C22       1.0  0.8521530350762199  0.7599945004460834  0.9732676146465649  1.0000
  C   C23       1.0  0.8507353528551654  0.7493551040083181  0.10938783132519392  1.0000
  C   C24       1.0  0.8959851260976659  0.8282066498675417  0.17926660456086818  1.0000
  C   C25       1.0  0.9414666594925512  0.9198655554754896  0.11122470177689026  1.0000
  C   C26       1.0  0.9429017807753781  0.9306799222906805  0.9751039408763651  1.0000
  C   C27       1.0  0.8928820846898778  0.819203007726587  0.3253910856309865  1.0000
  O   O1        1.0  0.8367282396680501  0.905051476771644  0.3664525282494653  1.0000
  H   H9        1.0  0.904139198274137  0.22622062479023364  0.29572834825778727  1.0000
  H   H10       1.0  0.8990755530832399  0.07198272238304915  0.7438362542776056  1.0000
  H   H11       1.0  0.9008853890469521  0.6547454672237063  0.7432713050617812  1.0000
  H   H12       1.0  0.9036940132699853  0.8917845403009873  0.3808060838334  1.0000
  H   H13       1.0  0.9023428911793571  0.435892622549331  0.5011151603430495  1.0000
  H   H14       1.0  0.8162282027998728  0.6986752075577533  0.9216878920419633  1.0000
  H   H15       1.0  0.8141864365162204  0.6797707805177817  0.16029641746385315  1.0000
  H   H16       1.0  0.9760076097837506  0.9828036034110903  0.16357087016742833  1.0000
  H   H17       1.0  0.9794758149142228  0.0007086958413640154  0.9250015898969679  1.0000
  H   H18       1.0  0.9481405832392321  0.8444234004167008  0.36474943018249895  1.0000
  H   H19       1.0  0.8806706548694282  0.7177702329285718  0.3633807152402345  1.0000
  H   H20       1.0  0.8370000651765775  0.8953862093181116  0.46307042628146955  1.0000
  C   C28       1.0  0.901952598935543  0.37810538278853056  0.1724943278986235  1.0000
  C   C29       1.0  0.8283447199011049  0.33246770954997085  0.1763973421059004  1.0000
  C   C30       1.0  0.7910263470843527  0.30944631676370293  0.06122842814876117  1.0000
  C   C31       1.0  0.8282936027507601  0.3326966168922614  0.941093117206234  1.0000
  C   C32       1.0  0.9019019023408624  0.3783347776652388  0.9351978348176129  1.0000
  C   C33       1.0  0.9383199880729588  0.40078068934393096  0.05142425733447653  1.0000
  C   C34       1.0  0.7131555329272646  0.2611570460782191  0.06641226401282019  1.0000
  C   C35       1.0  0.6593642870803453  0.31237752498453863  0.9760344370168936  1.0000
  C   C36       1.0  0.5861778318119829  0.26691253684121685  0.9811758249222988  1.0000
  C   C37       1.0  0.5657187235949176  0.16994067971255222  0.07619786753786251  1.0000
  C   C38       1.0  0.6187690661619898  0.11735061118478085  0.16744964294798037  1.0000
  C   C39       1.0  0.6920575257570729  0.16345036066233432  0.16185515244364823  1.0000
  O   O2        1.0  0.6011040336138908  0.01960730327425697  0.26456593400893436  1.0000
  C   C40       1.0  0.5291026537809752  0.9637418084683659  0.28167965760396485  1.0000
  H   H21       1.0  0.9300103611534636  0.39543650390434126  0.4984645450585532  1.0000
  H   H22       1.0  0.7994855903476227  0.31640537025569726  0.2691035499852117  1.0000
  H   H23       1.0  0.8001353075413711  0.31343519774986284  0.8521816540820946  1.0000
  H   H24       1.0  0.9951056890522296  0.4359873804730048  0.04764485025006526  1.0000
  H   H25       1.0  0.9299346834201521  0.39578688706131326  0.6054943050822805  1.0000
  H   H26       1.0  0.6736375181707965  0.3887731408037465  0.9024786058714285  1.0000
  H   H27       1.0  0.5450954242178595  0.30725814522534245  0.9114259582133499  1.0000
  H   H28       1.0  0.5086511856303167  0.13660852556437963  0.07787558242973569  1.0000
  H   H29       1.0  0.7328090943306939  0.12137027672802825  0.23143673604229353  1.0000
  H   H30       1.0  0.513627120819011  0.9160157794771606  0.1930634771236328  1.0000
  H   H31       1.0  0.5310469350166358  0.8891680008051285  0.3653501084509163  1.0000
  H   H32       1.0  0.4863000142876219  0.040034704151758804  0.30255690855796313  1.0000
  Zn  Zn1       1.0  0.8196073015865959  0.38212337009644637  0.5550541518729164  1.0000
  Zn  Zn2       1.0  0.9842399812939199  0.37431648709743515  0.5526375380734299  1.0000
  C   C41       1.0  0.9019107479469739  0.37311734044069533  0.7910324448726642  1.0000
  C   C42       1.0  0.901938332404608  0.3833240703064482  0.3166593455544022  1.0000
  C   C43       1.0  0.901879681809577  0.6154319942960906  0.5485857109847048  1.0000
  C   C44       1.0  0.9019693426494354  0.1410078586939636  0.5591061500649199  1.0000
  O   O3        1.0  0.9644107894368207  0.3821071718513973  0.3641253521430172  1.0000
  O   O4        1.0  0.9643906856784582  0.3684080154160936  0.7417319108508016  1.0000
  O   O5        1.0  0.9643647570666927  0.5640802032357017  0.5459544697616865  1.0000
  O   O6        1.0  0.9644366618753554  0.18643499595751756  0.5599026966831218  1.0000
  O   O7        1.0  0.8394105648241068  0.5700048639018818  0.5477889940810652  1.0000
  O   O8        1.0  0.8394364931473886  0.37433423650488074  0.7435663653654625  1.0000
  O   O9        1.0  0.8394565970679516  0.38803334720825533  0.3659582453427952  1.0000
  O   O10       1.0  0.8394824694986637  0.19236116205416498  0.5617356872497508  1.0000
