data_image0
_chemical_formula_structural       NC11NC3H8C13OH12C12IH9Zn2C4O8
_chemical_formula_sum              "N2 C43 H29 O9 I1 Zn2"
_cell_length_a       17.807433833752565
_cell_length_b       10.299150109392551
_cell_length_c       10.29977335064465
_cell_angle_alpha    85.52407015278276
_cell_angle_beta     88.53399239926371
_cell_angle_gamma    90.66566965777596

_space_group_name_H-M_alt    "P 1"
_space_group_IT_number       1

loop_
  _space_group_symop_operation_xyz
  'x, y, z'

loop_
  _atom_site_type_symbol
  _atom_site_label
  _atom_site_symmetry_multiplicity
  _atom_site_fract_x
  _atom_site_fract_y
  _atom_site_fract_z
  _atom_site_occupancy
  N   N1        1.0  0.7070063247028631  0.438990065869463  0.5341791642698046  1.0000
  C   C1        1.0  0.6561996403909406  0.40424226576096833  0.600752670707374  1.0000
  C   C2        1.0  0.5929909981410163  0.36101886747193235  0.6835616175393666  1.0000
  C   C3        1.0  0.6047416123312818  0.29742983434248016  0.8063004446217812  1.0000
  C   C4        1.0  0.543439833808964  0.2558869701031925  0.8868249131848456  1.0000
  C   C5        1.0  0.47023321270469154  0.27761966909905755  0.8452514505515181  1.0000
  C   C6        1.0  0.4575057326365212  0.3413633930769546  0.7220523784331783  1.0000
  C   C7        1.0  0.37973038052326497  0.3644270829003209  0.6776978402708329  1.0000
  C   C8        1.0  0.3609375806116814  0.34758965585733526  0.5481245605598719  1.0000
  C   C9        1.0  0.28770101996742536  0.3692836362820764  0.5065070400561047  1.0000
  C   C10       1.0  0.2323140481854529  0.4081338227789302  0.5936424250299059  1.0000
  C   C11       1.0  0.1569405142821419  0.4304866951895163  0.5506633998224124  1.0000
  N   N2        1.0  0.0963455670720073  0.4484567439905329  0.5161113915720366  1.0000
  C   C12       1.0  0.2504151949374381  0.4251819899528273  0.7226845043742385  1.0000
  C   C13       1.0  0.3235990246832977  0.40345300593878175  0.7645574634706536  1.0000
  C   C14       1.0  0.5196648254550985  0.3829016874852509  0.6415443270850951  1.0000
  H   H1        1.0  0.6612138115755435  0.2800048065638632  0.8396715763488873  1.0000
  H   H2        1.0  0.552656127939769  0.20640473691962025  0.9815769327096457  1.0000
  H   H3        1.0  0.423606402479887  0.24304347742852594  0.9087016470534435  1.0000
  H   H4        1.0  0.4026152506818674  0.3159646458947385  0.4794195391832803  1.0000
  H   H5        1.0  0.2742525776981111  0.3554297262976842  0.40647827812139603  1.0000
  H   H6        1.0  0.2080209191328747  0.45558402821222943  0.7908751793807829  1.0000
  H   H7        1.0  0.3365187305089168  0.4188524873071544  0.86440294624702  1.0000
  H   H8        1.0  0.5111467784754845  0.4337463062299911  0.5470261568844386  1.0000
  C   C15       1.0  0.9017503554081193  0.06232552619051668  0.5252859267615864  1.0000
  C   C16       1.0  0.9003793920995731  0.050448328166098566  0.6621598822087844  1.0000
  C   C17       1.0  0.899618892330386  0.9272902231742796  0.7312972238570346  1.0000
  C   C18       1.0  0.90023451445122  0.8151895661593226  0.6618032115181114  1.0000
  C   C19       1.0  0.9016087184058639  0.8251114117315289  0.5250155044059233  1.0000
  C   C20       1.0  0.90236067435153  0.9491394300473674  0.45755614291016755  1.0000
  C   C21       1.0  0.8981620099398734  0.9157071114194675  0.8760045315946234  1.0000
  C   C22       1.0  0.8519735016163593  0.8216840796472774  0.9461691872282698  1.0000
  C   C23       1.0  0.8505776873751253  0.8108651871857568  0.08233977421312244  1.0000
  C   C24       1.0  0.8958378897486179  0.8929213420607173  0.15078450086669448  1.0000
  C   C25       1.0  0.9413077159306326  0.9878803474827238  0.0812957664122238  1.0000
  C   C26       1.0  0.942720968843997  0.9988754610760127  0.9451240814493505  1.0000
  C   C27       1.0  0.8927583509351991  0.8836116364691576  0.29701326028846087  1.0000
  O   O1        1.0  0.8366120685404409  0.965410192105065  0.3398593462333417  1.0000
  H   H9        1.0  0.9038500379369163  0.29202526259643835  0.26695257156551944  1.0000
  H   H10       1.0  0.8988583890358539  0.13716801902035036  0.7152388908229765  1.0000
  H   H11       1.0  0.9006681029674624  0.7200608586521791  0.7146164524704748  1.0000
  H   H12       1.0  0.9034185131948868  0.9575086033023508  0.3520477900520964  1.0000
  H   H13       1.0  0.9020867206941847  0.5014510040510819  0.4724045013678708  1.0000
  H   H14       1.0  0.8160410150337015  0.7578183446836658  0.8957281404603055  1.0000
  H   H15       1.0  0.8140375739925848  0.7386310625193654  0.1344108845724422  1.0000
  H   H16       1.0  0.9758564675106816  0.05326516989662533  0.13254723090434017  1.0000
  H   H17       1.0  0.9792863289687129  0.0715553757765588  0.8938584404141685  1.0000
  H   H18       1.0  0.9480222074556749  0.9127717533191196  0.33461855494565185  1.0000
  H   H19       1.0  0.8805532290522378  0.7812815333174334  0.3353921285545275  1.0000
  H   H20       1.0  0.8368993937477726  0.9557091625870926  0.43647241427898176  1.0000
  C   C28       1.0  0.9016437009656896  0.4438237075005995  0.1437831330094521  1.0000
  C   C29       1.0  0.9697315211287941  0.514488332001861  0.13426114826254265  1.0000
  C   C30       1.0  0.004268295445034598  0.5501876929406226  0.012304609794485888  1.0000
  C   C31       1.0  0.9698038251005263  0.5142759162238886  0.8989882573094539  1.0000
  C   C32       1.0  0.9017153754026077  0.44361328152401214  0.9065183123407716  1.0000
  C   C33       1.0  0.8680168717184532  0.40878180877752546  0.029366080771463077  1.0000
  C   C34       1.0  0.07629923440289255  0.624942642197402  0.0032851766412831385  1.0000
  C   C35       1.0  0.08809786369386119  0.7282569578817433  0.08251085083858656  1.0000
  C   C36       1.0  0.155932721742984  0.7985041288245283  0.07381814211452098  1.0000
  C   C37       1.0  0.2127228730484998  0.766522658260931  0.9862054847308079  1.0000
  C   C38       1.0  0.20164874998709825  0.6641122278802392  0.9070886075601372  1.0000
  C   C39       1.0  0.13389014573044866  0.5936409208315041  0.9153719180485744  1.0000
  I   I1        1.0  0.31499329428772294  0.8726565237686232  0.973403602086929  1.0000
  H   H21       1.0  0.875677302209875  0.4169617557871541  0.47486092085573506  1.0000
  H   H22       1.0  0.9965909375843507  0.5403904392076428  0.22198239729017866  1.0000
  H   H23       1.0  0.9956711082424181  0.543094862897167  0.8046648118368291  1.0000
  H   H24       1.0  0.8154897963120191  0.3542683938893787  0.03594351822133235  1.0000
  H   H25       1.0  0.8757822662782474  0.41665214117671434  0.5819363235683856  1.0000
  H   H26       1.0  0.04453042024818843  0.7557778521527099  0.1499129789433431  1.0000
  H   H27       1.0  0.16423228896178865  0.8779892903505668  0.13499006139499392  1.0000
  H   H28       1.0  0.24558474193033342  0.6388367040808831  0.8393774235739606  1.0000
  H   H29       1.0  0.12689620050889228  0.513646574728361  0.8543005160029322  1.0000
  Zn  Zn1       1.0  0.8193612210073751  0.44171846771538825  0.5289726810791067  1.0000
  Zn  Zn2       1.0  0.983990658973682  0.4457177188234298  0.5213284645044503  1.0000
  C   C40       1.0  0.9017011083904232  0.4384789405835636  0.7623469135512502  1.0000
  C   C41       1.0  0.9016525690466648  0.4489589283361606  0.28795427544268604  1.0000
  C   C42       1.0  0.9016311370207455  0.6809300150212374  0.5198916276881642  1.0000
  C   C43       1.0  0.901722484536075  0.20650629209331361  0.5304096337058408  1.0000
  O   O2        1.0  0.9641315600424597  0.45219438413972557  0.33343848951995314  1.0000
  O   O3        1.0  0.9641720516919662  0.4382778441406552  0.711060542471619  1.0000
  O   O4        1.0  0.9641147068463831  0.6340601321295982  0.5152762223536309  1.0000
  O   O5        1.0  0.9641888487002925  0.25641210410390314  0.5292227148687751  1.0000
  O   O6        1.0  0.8391629751008164  0.6310240810715821  0.5210784333165459  1.0000
  O   O7        1.0  0.8392203196467187  0.4352433535244806  0.71686268363623  1.0000
  O   O8        1.0  0.8391798279088639  0.44915984869612235  0.3392390693031049  1.0000
  O   O9        1.0  0.8392371165744985  0.253377559343847  0.5350233920228578  1.0000
