data_image0
_chemical_formula_structural       NC12NC2H8C13OH12C13NH9Zn2C4O8
_chemical_formula_sum              "N3 C44 H29 O9 Zn2"
_cell_length_a       19.240039667572717
_cell_length_b       10.299150109392551
_cell_length_c       10.298528502251457
_cell_angle_alpha    85.52101086159662
_cell_angle_beta     89.99709375093414
_cell_angle_gamma    89.97992514300192

_space_group_name_H-M_alt    "P 1"
_space_group_IT_number       1

loop_
  _space_group_symop_operation_xyz
  'x, y, z'

loop_
  _atom_site_type_symbol
  _atom_site_label
  _atom_site_symmetry_multiplicity
  _atom_site_fract_x
  _atom_site_fract_y
  _atom_site_fract_z
  _atom_site_occupancy
  N   N1        1.0  0.6542493539594229  0.42187596753944256  0.5668094696340462  1.0000
  C   C1        1.0  0.59410098512861  0.4218760515553437  0.5668093876595655  1.0000
  C   C2        1.0  0.5192829479691677  0.42187616889723145  0.5668092502995901  1.0000
  C   C3        1.0  0.4828185242886219  0.3573704364965318  0.670255114026792  1.0000
  C   C4        1.0  0.4101477946410361  0.3572595168385744  0.6703417030361427  1.0000
  C   C5        1.0  0.3729507130206418  0.4218762615474849  0.5668090225593614  1.0000
  C   C6        1.0  0.41012930974712125  0.4864931931912937  0.4632765365870737  1.0000
  C   C7        1.0  0.4828000167041102  0.4863820379732433  0.463363248188579  1.0000
  C   C8        1.0  0.2957456225983524  0.42187618291259876  0.5668089271572858  1.0000
  C   C9        1.0  0.2585779225847871  0.3085920516636016  0.6087213862596863  1.0000
  C   C10       1.0  0.1859072166241056  0.30869899161559267  0.60863001494763  1.0000
  C   C11       1.0  0.149413335697733  0.4218760537085984  0.5668089881168084  1.0000
  C   C12       1.0  0.0745952985573791  0.4218759398717076  0.5668092368453876  1.0000
  N   N2        1.0  0.014446981707291699  0.4218758989736944  0.5668094453039862  1.0000
  C   C13       1.0  0.1858669656151837  0.5350531916533465  0.5249879083641835  1.0000
  C   C14       1.0  0.25853764422713765  0.5351603117962229  0.5248963743791757  1.0000
  H   H1        1.0  0.5105405645713732  0.30742846395188317  0.7510225697048933  1.0000
  H   H2        1.0  0.3830614822964957  0.3081153117988822  0.7522245482266892  1.0000
  H   H3        1.0  0.3830290912998367  0.5356374253029543  0.38139364053301783  1.0000
  H   H4        1.0  0.5105077478957762  0.5363239101531168  0.38259606837272897  1.0000
  H   H5        1.0  0.2856870750310572  0.21941888927436914  0.6399216105867158  1.0000
  H   H6        1.0  0.1582080552851215  0.22042472799003932  0.6408630458447018  1.0000
  H   H7        1.0  0.1581363035105859  0.6233274307351098  0.4927548920272695  1.0000
  H   H8        1.0  0.2856149705844399  0.6243335533837011  0.4936961052495108  1.0000
  C   C15       1.0  0.834417007848295  0.04047625042939651  0.5669535841744773  1.0000
  C   C16       1.0  0.8331332298479689  0.02862506967378886  0.7037810252439236  1.0000
  C   C17       1.0  0.8324218591546726  0.9054817600960547  0.7728917155348833  1.0000
  C   C18       1.0  0.8329992371045022  0.793369849780294  0.7034175858904625  1.0000
  C   C19       1.0  0.8342860034482175  0.8032655946667511  0.5666765543455043  1.0000
  C   C20       1.0  0.8349892806126773  0.9272789355823982  0.49924365748655153  1.0000
  C   C21       1.0  0.8310577100065561  0.8939263359546553  0.9175495007034735  1.0000
  C   C22       1.0  0.7883186854133618  0.8010227321134287  0.9855792277437259  1.0000
  C   C23       1.0  0.7870119960003097  0.7902304988494251  0.12170205901920561  1.0000
  C   C24       1.0  0.8288765695307015  0.8711823859995566  0.19225596150988578  1.0000
  C   C25       1.0  0.87095063202141  0.9650394037623505  0.12486888467566948  1.0000
  C   C26       1.0  0.8722734548751528  0.9760074341550622  0.9887457646488957  1.0000
  C   C27       1.0  0.8260110547763939  0.8619397453015655  0.33836007784171496  1.0000
  O   O1        1.0  0.7740627168798879  0.9451013364265927  0.37860565884269304  1.0000
  H   H9        1.0  0.8363886558562769  0.27013874548525885  0.3086853773328837  1.0000
  H   H10       1.0  0.8317200936962865  0.11537890824617203  0.7567960780624137  1.0000
  H   H11       1.0  0.8333944134066126  0.6982277737754429  0.756257554361051  1.0000
  H   H12       1.0  0.8359798353229764  0.9356280282856196  0.3937712082404248  1.0000
  H   H13       1.0  0.8347341588764491  0.4795963772208773  0.5140811578488418  1.0000
  H   H14       1.0  0.7550815798684694  0.7380334768652097  0.9334641744716254  1.0000
  H   H15       1.0  0.7532011855083229  0.7188821467549537  0.17208377986722612  1.0000
  H   H16       1.0  0.9029074893354594  0.02958135184275501  0.17773023506887964  1.0000
  H   H17       1.0  0.9061075314463201  0.04780091926895502  0.9391707855937044  1.0000
  H   H18       1.0  0.8771339465231892  0.889753981846266  0.3785349819626709  1.0000
  H   H19       1.0  0.8147152072955224  0.7599043852709714  0.3761772806496536  1.0000
  H   H20       1.0  0.7743176384640272  0.9353881524505974  0.4752441427870375  1.0000
  C   C28       1.0  0.8343613633821051  0.42199743047529203  0.18539813703935315  1.0000
  C   C29       1.0  0.7621024031360781  0.44186097289779647  0.18290083939076496  1.0000
  C   C30       1.0  0.7254953994157353  0.4517857469201909  0.06448899883777104  1.0000
  C   C31       1.0  0.7620817012165529  0.44159609236322406  0.9476412319836673  1.0000
  C   C32       1.0  0.834341648597332  0.42174443053344013  0.9482319483745361  1.0000
  C   C33       1.0  0.8700187770680748  0.4120694573916355  0.06757718915374289  1.0000
  C   C34       1.0  0.6491031456752347  0.4727797830328433  0.06285652674803499  1.0000
  C   C35       1.0  0.6184014160133706  0.5607178530325285  0.14374064093422456  1.0000
  C   C36       1.0  0.5464934740097003  0.5804324936207121  0.14208453356115291  1.0000
  C   C37       1.0  0.5043304319778252  0.5125685355277609  0.05976013596486163  1.0000
  C   C38       1.0  0.5343461491716892  0.42486681883664223  0.9789799433139232  1.0000
  C   C39       1.0  0.6062466883917406  0.4050578060926793  0.9803994747316276  1.0000
  C   C40       1.0  0.4303011218499617  0.5329154773263123  0.05817581756297008  1.0000
  N   N3        1.0  0.37078654839172354  0.5492731695029252  0.05690216738271303  1.0000
  H   H21       1.0  0.9708450250272257  0.38365471310498234  0.3975046776214153  1.0000
  H   H22       1.0  0.734032256414407  0.4478692809501925  0.27341428498655884  1.0000
  H   H23       1.0  0.7342724171386379  0.45094405660500314  0.8559338770252114  1.0000
  H   H24       1.0  0.9257101536776084  0.3967649544567775  0.0687670239432665  1.0000
  H   H25       1.0  0.9709534536028289  0.385044626765332  0.7419599518227655  1.0000
  H   H26       1.0  0.6500948540674056  0.6154904994285599  0.20702376435043734  1.0000
  H   H27       1.0  0.52382375708563  0.6488282632444387  0.2047667392147685  1.0000
  H   H28       1.0  0.5021720844571506  0.3715444496432396  0.9151245645244539  1.0000
  H   H29       1.0  0.6282341938637336  0.3355317585588842  0.9182644597773622  1.0000
  Zn  Zn1       1.0  0.7581946182039003  0.42187247778731707  0.5668169532408167  1.0000
  Zn  Zn2       1.0  0.9105017377794389  0.42186879087562157  0.5668125657791778  1.0000
  C   C41       1.0  0.8343447110746728  0.4166181828550739  0.8040419275563815  1.0000
  C   C42       1.0  0.8343533078129344  0.4271247244771339  0.32958771830298783  1.0000
  C   C43       1.0  0.834307321817459  0.6590839268531827  0.5615530774284005  1.0000
  C   C44       1.0  0.8343906453645793  0.18465742002883778  0.5720766382465743  1.0000
  O   O2        1.0  0.8921503633871641  0.4288384258201947  0.3779773960023458  1.0000
  O   O3        1.0  0.8921452352893614  0.4149007035537775  0.7556485463379379  1.0000
  O   O4        1.0  0.8921142637880171  0.6106948578010967  0.5598370837426916  1.0000
  O   O5        1.0  0.8921812829173269  0.23304428089740048  0.5737887612087895  1.0000
  O   O6        1.0  0.7765150210910674  0.6106969877682125  0.5598407578058695  1.0000
  O   O7        1.0  0.7765459923230352  0.4149043939737551  0.7556521505801757  1.0000
  O   O8        1.0  0.7765511205151975  0.42884207149840514  0.377979438663788  1.0000
  O   O9        1.0  0.7765820400415968  0.23304791725376006  0.5737909012536992  1.0000
