data_image0
_chemical_formula_structural       NC10NC3NH7C12ClH9C15H12Zn2C4O8
_chemical_formula_sum              "N3 C44 H28 Cl1 Zn2 O8"
_cell_length_a       19.210446455230148
_cell_length_b       10.299768534541528
_cell_length_c       10.299157797200024
_cell_angle_alpha    85.54593967103355
_cell_angle_beta     90.0131967510761
_cell_angle_gamma    89.96529235611058

_space_group_name_H-M_alt    "P 1"
_space_group_IT_number       1

loop_
  _space_group_symop_operation_xyz
  'x, y, z'

loop_
  _atom_site_type_symbol
  _atom_site_label
  _atom_site_symmetry_multiplicity
  _atom_site_fract_x
  _atom_site_fract_y
  _atom_site_fract_z
  _atom_site_occupancy
  N   N1        1.0  0.6554062873492775  0.4205840359646307  0.5673344842368451  1.0000
  C   C1        1.0  0.59517798778045  0.4227914244237545  0.5675657949001012  1.0000
  C   C2        1.0  0.5203738578367714  0.42552818196342135  0.5678523600901801  1.0000
  C   C3        1.0  0.484776740490717  0.541751105902962  0.5829728617551497  1.0000
  C   C4        1.0  0.412111261930524  0.5419026551764952  0.5829202717102009  1.0000
  C   C5        1.0  0.3752071856994217  0.4262371042807145  0.5679388960981038  1.0000
  C   C6        1.0  0.2978849038063643  0.4248807091401474  0.5677882038137003  1.0000
  C   C7        1.0  0.260124980510937  0.5284678868856543  0.5044299100757277  1.0000
  C   C8        1.0  0.1873464781726696  0.5270657251478978  0.5043207347542797  1.0000
  C   C9        1.0  0.1513264985934087  0.42233390433568485  0.5675188709576395  1.0000
  C   C10       1.0  0.0763968338704632  0.4210318976456495  0.5673819464126699  1.0000
  N   N2        1.0  0.0161588652435169  0.4199850400486176  0.5672718939533543  1.0000
  C   C11       1.0  0.1883627694864285  0.3188724234854845  0.6308521633531665  1.0000
  C   C12       1.0  0.2611431086514414  0.3200003089575525  0.6310115687490618  1.0000
  C   C13       1.0  0.4134143898052584  0.3118343017048082  0.5531066983111976  1.0000
  N   N3        1.0  0.48418458706056616  0.3142791630911346  0.5532724358375865  1.0000
  H   H1        1.0  0.5128882365308924  0.631178733509383  0.5950280128284966  1.0000
  H   H2        1.0  0.384853316653468  0.6319117065506692  0.5963702629412431  1.0000
  H   H3        1.0  0.2868471822031843  0.6097347354805132  0.45344195272988275  1.0000
  H   H4        1.0  0.1591952295140367  0.6075044832853636  0.45466318862474986  1.0000
  H   H5        1.0  0.1610005803236669  0.2374703237397795  0.6804101540989287  1.0000
  H   H6        1.0  0.2886498334279479  0.23968029390675638  0.6821069289636492  1.0000
  H   H7        1.0  0.3871380562680691  0.22096236590646146  0.5396103990791001  1.0000
  C   C14       1.0  0.8357202477676279  0.03891926459239459  0.5673010793482407  1.0000
  C   C15       1.0  0.840276041807771  0.048516617551742636  0.43082341457767015  1.0000
  C   C16       1.0  0.8426514207250058  0.9362401921747692  0.36167647411288595  1.0000
  C   C17       1.0  0.8404089933113227  0.8132286749068857  0.4308388823676439  1.0000
  C   C18       1.0  0.8358515617038687  0.8016397956467265  0.5673164853690231  1.0000
  C   C19       1.0  0.8335332234337338  0.9150423811166931  0.6347833082679968  1.0000
  C   C20       1.0  0.8474719965670974  0.9474470578031697  0.21729448195923284  1.0000
  C   C21       1.0  0.8078553675742619  0.0410743119623076  0.14283321563022722  1.0000
  C   C22       1.0  0.8124546540597267  0.05142663308246531  0.00694475592559507  1.0000
  C   C23       1.0  0.8566029905312535  0.9686744332393005  0.9438256179173736  1.0000
  C   C24       1.0  0.896207892999562  0.8753598772782992  0.016775577748725734  1.0000
  C   C25       1.0  0.8917322256852808  0.8646150954619007  0.1526786601208665  1.0000
  Cl  Cl1       1.0  0.8622959173219542  0.9819091320832039  0.7733297033943942  1.0000
  H   H8        1.0  0.8339485488803241  0.3627160112108694  0.6193025408036432  1.0000
  H   H9        1.0  0.8429486357913109  0.14353970310601483  0.37808729015280873  1.0000
  H   H10       1.0  0.8412649483181615  0.726408682539413  0.3778895054238589  1.0000
  H   H11       1.0  0.8300179330730687  0.9068702775558729  0.7400695443083372  1.0000
  H   H12       1.0  0.8341426836742402  0.4697700968749964  0.6193257373608816  1.0000
  H   H13       1.0  0.7726698154485817  0.1050952180757807  0.18958550954711795  1.0000
  H   H14       1.0  0.7815366104805169  0.12360801095421614  0.9508350930620941  1.0000
  H   H15       1.0  0.9306167812151067  0.8112941311121713  0.9683338422235921  1.0000
  H   H16       1.0  0.9235332642509801  0.7927259900392576  0.20729377759509204  1.0000
  C   C26       1.0  0.8357052122629249  0.4203859352325967  0.18591679420830198  1.0000
  C   C27       1.0  0.7631983159688422  0.40252712625136633  0.18610416976441013  1.0000
  C   C28       1.0  0.7265842068759626  0.39336295257320697  0.0690568247245662  1.0000
  C   C29       1.0  0.7634051040164606  0.4023180531567152  0.9508368350237295  1.0000
  C   C30       1.0  0.835866565249708  0.420173142892901  0.9487007840461641  1.0000
  C   C31       1.0  0.8715934899385602  0.4290970597922761  0.06677112225029425  1.0000
  C   C32       1.0  0.6499281808990057  0.3744875480910048  0.07030122119787774  1.0000
  C   C33       1.0  0.6185916475617389  0.28756140421726184  0.9891978506976256  1.0000
  C   C34       1.0  0.5464551315207236  0.2698919057046716  0.9904011409168305  1.0000
  C   C35       1.0  0.5043702013360745  0.33814161536031273  0.07323990933147995  1.0000
  C   C36       1.0  0.5353343500528125  0.42591391632379016  0.1533666462790928  1.0000
  C   C37       1.0  0.6074701649680984  0.4435876143156552  0.1523113069940112  1.0000
  C   C38       1.0  0.4266591799656004  0.3214556465793499  0.0721900923394625  1.0000
  C   C39       1.0  0.3953695020946363  0.41527411264143854  0.9747865181805087  1.0000
  C   C40       1.0  0.3696540583441031  0.4924209505034354  0.8946938442048182  1.0000
  H   H17       1.0  0.9726134213463529  0.4532987114642393  0.39291776796980993  1.0000
  H   H18       1.0  0.7351980878899627  0.39394884114226514  0.27764658622801  1.0000
  H   H19       1.0  0.7353052871191545  0.39712672697242035  0.86020929928767  1.0000
  H   H20       1.0  0.9274852073739233  0.44286544968357067  0.06583925521823852  1.0000
  H   H21       1.0  0.8637405231464286  0.42699936769872426  0.6204068215404503  1.0000
  H   H22       1.0  0.649953900708583  0.2321442770262201  0.9258191929210593  1.0000
  H   H23       1.0  0.5233972540364875  0.20277514897339288  0.9268446470529192  1.0000
  H   H24       1.0  0.5035655363330347  0.4810225429875452  0.2164003690436065  1.0000
  H   H25       1.0  0.6299606476268187  0.5128125201807721  0.21422670116424225  1.0000
  H   H26       1.0  0.4127492953460365  0.2212395293927858  0.048745217420330444  1.0000
  H   H27       1.0  0.4045036856852077  0.3369372147319818  0.16941556709336236  1.0000
  H   H28       1.0  0.3470976091641211  0.5601532150698683  0.8243797835965907  1.0000
  Zn  Zn1       1.0  0.7595116887956624  0.4204077125699701  0.567323921484246  1.0000
  Zn  Zn2       1.0  0.912053448285596  0.42015077802978684  0.5672930929129087  1.0000
  C   C41       1.0  0.8358336415825822  0.4150397594093753  0.8045181980182103  1.0000
  C   C42       1.0  0.8357331615590107  0.42552036695306783  0.33009894354966307  1.0000
  C   C43       1.0  0.8358220568453275  0.6574708646880347  0.5621381258294238  1.0000
  C   C44       1.0  0.8357446939904616  0.18308770145506537  0.572479084960184  1.0000
  O   O1        1.0  0.8936313433710849  0.4271403581356985  0.3784760905918867  1.0000
  O   O2        1.0  0.8937111253995546  0.4132237812469297  0.7561172789151436  1.0000
  O   O3        1.0  0.8937009904946713  0.608989965656958  0.5603936559285452  1.0000
  O   O4        1.0  0.8936414262047955  0.23137418313064106  0.574199616208628  1.0000
  O   O5        1.0  0.7779236588214457  0.6091843075582108  0.5604173981922154  1.0000
  O   O6        1.0  0.7779337939771155  0.41341968345662106  0.7561409519607694  1.0000
  O   O7        1.0  0.777854011656795  0.4273362155253322  0.37849820214133945  1.0000
  O   O8        1.0  0.7778640945066609  0.2315700312043989  0.5742218251316273  1.0000
