data_image0
_chemical_formula_structural       NC12NC2H8C16H10C12NH11Zn2C4O8
_chemical_formula_sum              "N3 C46 H29 Zn2 O8"
_cell_length_a       19.240039667572717
_cell_length_b       10.29914801576943
_cell_length_c       10.299774167527174
_cell_angle_alpha    85.55390253719857
_cell_angle_beta     89.99323073403258
_cell_angle_gamma    90.01219802926651

_space_group_name_H-M_alt    "P 1"
_space_group_IT_number       1

loop_
  _space_group_symop_operation_xyz
  'x, y, z'

loop_
  _atom_site_type_symbol
  _atom_site_label
  _atom_site_symmetry_multiplicity
  _atom_site_fract_x
  _atom_site_fract_y
  _atom_site_fract_z
  _atom_site_occupancy
  N   N1        1.0  0.6547296928414852  0.42097676628745573  0.566973413657416  1.0000
  C   C1        1.0  0.5945813240389569  0.4209768502519369  0.5669733316921615  1.0000
  C   C2        1.0  0.5197632869198425  0.4209769675075581  0.5669731943489627  1.0000
  C   C3        1.0  0.4832756879853244  0.3565363105288948  0.6704050834689341  1.0000
  C   C4        1.0  0.4106049217748269  0.356425445084938  0.6704916639782978  1.0000
  C   C5        1.0  0.37343105200745413  0.42097706001432234  0.5669729666422718  1.0000
  C   C6        1.0  0.41063286063631527  0.4855288620023557  0.46345446376715094  1.0000
  C   C7        1.0  0.4833035309549513  0.485417761074707  0.46354116686104496  1.0000
  C   C8        1.0  0.2962259615648906  0.4209769813187969  0.5669728712608428  1.0000
  C   C9        1.0  0.2590225946725846  0.3077188225419014  0.6088845633809215  1.0000
  C   C10       1.0  0.18635192424708188  0.3078257052400051  0.608793201605933  1.0000
  C   C11       1.0  0.1498936746231184  0.42097685215273284  0.5669729322172521  1.0000
  C   C12       1.0  0.0750756374394827  0.4209767384724983  0.5669731809099123  1.0000
  N   N2        1.0  0.0149273205695563  0.42097669770602364  0.5669733893353461  1.0000
  C   C13       1.0  0.1863829358677548  0.5341280748841046  0.5251526099115102  1.0000
  C   C14       1.0  0.2590536500750771  0.5342351376711159  0.5250610854811222  1.0000
  H   H1        1.0  0.5109797610162241  0.3066451488467652  0.7511616044755316  1.0000
  H   H2        1.0  0.38350084255210815  0.3073327593196977  0.7523633399423546  1.0000
  H   H3        1.0  0.38355040907720345  0.5346215748075458  0.38158273694671707  1.0000
  H   H4        1.0  0.5110292293582722  0.5353088225659235  0.38278492167540845  1.0000
  H   H5        1.0  0.28610373597199407  0.21856497254870755  0.6400844887716579  1.0000
  H   H6        1.0  0.1586249856021491  0.2195714106956137  0.6410257073800161  1.0000
  H   H7        1.0  0.1586800510611809  0.6223823448937953  0.492920118696486  1.0000
  H   H8        1.0  0.2861589876047333  0.623389066834602  0.493861115290924  1.0000
  C   C15       1.0  0.8347823418197611  0.03957541726613134  0.5671389263238471  1.0000
  C   C16       1.0  0.8189213693938792  0.049135413967809294  0.43367107965081586  1.0000
  C   C17       1.0  0.8109306042908895  0.9368527268168958  0.36583545200111045  1.0000
  C   C18       1.0  0.819014173579985  0.8138834812082275  0.4332665079153837  1.0000
  C   C19       1.0  0.834881335962092  0.8023680670023728  0.5668191035890451  1.0000
  C   C20       1.0  0.8426689651234994  0.9157299741057839  0.6329329846000256  1.0000
  C   C21       1.0  0.7941517798607786  0.9480116560464255  0.22464256648451264  1.0000
  C   C22       1.0  0.8270401747348182  0.867001772334974  0.1394287833906971  1.0000
  C   C23       1.0  0.8112242422738758  0.8776293487162267  0.006543482136555312  1.0000
  C   C24       1.0  0.7623575417320055  0.969166593297379  0.957067791631836  1.0000
  C   C25       1.0  0.7293424949299111  0.05015641909408819  0.040997692837628996  1.0000
  C   C26       1.0  0.7451088718752579  0.03977011451283685  0.1739039397159896  1.0000
  C   C27       1.0  0.7461006739078118  0.9799839851828958  0.8202499256690001  1.0000
  C   C28       1.0  0.7324857223262923  0.989043447605821  0.705666942221244  1.0000
  C   C29       1.0  0.7165427748163714  0.9996519558030668  0.5714914370268214  1.0000
  C   C30       1.0  0.702930108265309  0.008710046429570184  0.45692696049212245  1.0000
  H   H9        1.0  0.8408474066377941  0.36337283694344946  0.6184904706659287  1.0000
  H   H10       1.0  0.8136814397882927  0.14417564206310307  0.38176338357128436  1.0000
  H   H11       1.0  0.811980256632182  0.7269752700567125  0.38185337095683525  1.0000
  H   H12       1.0  0.8549009073557724  0.9076402127883575  0.7358810162815776  1.0000
  H   H13       1.0  0.864399351161891  0.5733268147787204  0.8190708564056561  1.0000
  H   H14       1.0  0.8656470428519284  0.7966075187139817  0.17527682408847345  1.0000
  H   H15       1.0  0.8372310449427907  0.8146877606213232  0.9423715722646588  1.0000
  H   H16       1.0  0.6912885250291553  0.1211146260977305  0.0037798223052030178  1.0000
  H   H17       1.0  0.7182919079267092  0.10232166202082804  0.23727309925452755  1.0000
  H   H18       1.0  0.6909770911350355  0.01666381516472537  0.35632968997527614  1.0000
  C   C31       1.0  0.8348554749360474  0.4208572182150585  0.1856269584090544  1.0000
  C   C32       1.0  0.7667799436225895  0.37155113977335663  0.18846840923364017  1.0000
  C   C33       1.0  0.7322612131801209  0.3466831871133409  0.07276032700312096  1.0000
  C   C34       1.0  0.7667322248435973  0.37178246061732056  0.95316360120755  1.0000
  C   C35       1.0  0.8348081979754024  0.4210863123712476  0.9483310069547306  1.0000
  C   C36       1.0  0.8684885044372183  0.44534809780855533  0.06508199677105009  1.0000
  C   C37       1.0  0.6602412465660529  0.2945207805601111  0.07681976570456817  1.0000
  C   C38       1.0  0.6406954268800618  0.19605849466563363  0.17215979573097773  1.0000
  C   C39       1.0  0.5729070134218147  0.14701876643596767  0.17584681171478356  1.0000
  C   C40       1.0  0.5235920856391579  0.19554860223445814  0.08452187002616629  1.0000
  C   C41       1.0  0.542679214487843  0.2936206941260213  0.9893413683799235  1.0000
  C   C42       1.0  0.6104467711929239  0.34276169287165414  0.9853880298326971  1.0000
  N   N3        1.0  0.4542602632439701  0.145332722082669  0.08842957962572529  1.0000
  H   H19       1.0  0.8608071824145728  0.4395914208338976  0.5120018587079138  1.0000
  H   H20       1.0  0.7400939755607082  0.3540465049913375  0.28076143741774895  1.0000
  H   H21       1.0  0.7407003652145513  0.3511051476609819  0.8638418607962755  1.0000
  H   H22       1.0  0.9210057933728812  0.4833845803727719  0.062121961533233794  1.0000
  H   H23       1.0  0.8607378045268255  0.4399283996172967  0.6190319398386981  1.0000
  H   H24       1.0  0.6780769831916814  0.15578686122992003  0.2428264952617989  1.0000
  H   H25       1.0  0.55887668864303  0.0709656176242126  0.24969705262802222  1.0000
  H   H26       1.0  0.5050072961825974  0.3322268748940249  0.9184053141328228  1.0000
  H   H27       1.0  0.6236647028220531  0.4196814106814186  0.911869443530871  1.0000
  H   H28       1.0  0.4171361013900349  0.1808921900824929  0.02075013449691543  1.0000
  H   H29       1.0  0.4395421479670027  0.07222509599806393  0.15903145059986667  1.0000
  Zn  Zn1       1.0  0.7586749557642193  0.4209732812484117  0.5669808961871192  1.0000
  Zn  Zn2       1.0  0.9109820743860881  0.4209695915476497  0.5669765096789461  1.0000
  C   C43       1.0  0.8348149210004985  0.4158688636329173  0.8041658098656661  1.0000
  C   C44       1.0  0.8348437725436006  0.42607564791996544  0.32979172272615553  1.0000
  C   C45       1.0  0.8348593729941335  0.6581824757070966  0.5617045920377675  1.0000
  C   C46       1.0  0.8347992683713754  0.18376047543266472  0.5722530104454302  1.0000
  O   O1        1.0  0.8926396021401645  0.42781993415477637  0.37817307231129793  1.0000
  O   O2        1.0  0.8926166701870996  0.4141207970825713  0.7557807576036675  1.0000
  O   O3        1.0  0.8926517864820709  0.6097921037307641  0.5599916082104661  1.0000
  O   O4        1.0  0.892604433880331  0.23214863676961106  0.5739621243317403  1.0000
  O   O5        1.0  0.7770525442950323  0.6097942360291213  0.5599952815289904  1.0000
  O   O6        1.0  0.7770174282037076  0.41412448979672  0.7557843610254809  1.0000
  O   O7        1.0  0.7770403602938798  0.4278235811402018  0.37817511442047835  1.0000
  O   O8        1.0  0.7770051920239645  0.23215227449467957  0.5739642638083458  1.0000
