data_image0
_chemical_formula_structural       NC10NC3NCH9C12NH11C12ClH9Zn2C4O8
_chemical_formula_sum              "N4 C42 H29 Cl1 Zn2 O8"
_cell_length_a       19.437513618241372
_cell_length_b       10.299770795358612
_cell_length_c       10.299771906710086
_cell_angle_alpha    85.53968522419491
_cell_angle_beta     90.35636607497939
_cell_angle_gamma    89.53989505547142

_space_group_name_H-M_alt    "P 1"
_space_group_IT_number       1

loop_
  _space_group_symop_operation_xyz
  'x, y, z'

loop_
  _atom_site_type_symbol
  _atom_site_label
  _atom_site_symmetry_multiplicity
  _atom_site_fract_x
  _atom_site_fract_y
  _atom_site_fract_z
  _atom_site_occupancy
  N   N1        1.0  0.6479530669732738  0.41088199161204453  0.575628356635278  1.0000
  C   C1        1.0  0.5890221538411224  0.4278928595842435  0.5726523805011074  1.0000
  C   C2        1.0  0.5155847116767905  0.44914637319453465  0.568958414250039  1.0000
  C   C3        1.0  0.47380417761049565  0.34796167827426383  0.5572988358663193  1.0000
  C   C4        1.0  0.3979149579646746  0.35802883922091233  0.5500774951560197  1.0000
  C   C5        1.0  0.35836234958829044  0.438853432998465  0.6158203867248662  1.0000
  C   C6        1.0  0.2821776288692791  0.4302482313198299  0.6073762398799107  1.0000
  C   C7        1.0  0.2490224195509594  0.3089034077676829  0.6120193166034607  1.0000
  C   C8        1.0  0.17728576545809113  0.30253424186773836  0.6048512231480077  1.0000
  C   C9        1.0  0.1377336635198939  0.41703709268471445  0.5934022844218614  1.0000
  C   C10       1.0  0.0638824586432395  0.4103298101348807  0.5860660982726804  1.0000
  N   N2        1.0  0.0045111881084203  0.4049377448614391  0.5801682630170761  1.0000
  C   C11       1.0  0.17017232281845143  0.5380710848232448  0.5895044849480615  1.0000
  C   C12       1.0  0.24189343178879094  0.5446942168177888  0.5967346006512528  1.0000
  C   C13       1.0  0.3870733471654529  0.5311051063778984  0.7057408023068972  1.0000
  N   N3        1.0  0.44406634998530825  0.5943241521879739  0.6853367190872659  1.0000
  C   C14       1.0  0.4878902631091475  0.5851038428915938  0.5722288536902203  1.0000
  H   H1        1.0  0.496170507589892  0.25291104492774785  0.5451773523396761  1.0000
  H   H2        1.0  0.3731811726321632  0.28853855083814395  0.49175903440659363  1.0000
  H   H3        1.0  0.2784590675345913  0.21898877174924603  0.6230399548557692  1.0000
  H   H4        1.0  0.1526768228371813  0.20830782394056735  0.6087381567948886  1.0000
  H   H5        1.0  0.1400505942179122  0.6273299863507711  0.5807959984637285  1.0000
  H   H6        1.0  0.2660209202379176  0.6393334344824131  0.5928322082604707  1.0000
  H   H7        1.0  0.3570849759632855  0.5514599339327579  0.7901077155039853  1.0000
  H   H8        1.0  0.530655516524315  0.6554132701648643  0.5779924527723561  1.0000
  H   H9        1.0  0.45821566031286715  0.6132449904747272  0.48158313136507824  1.0000
  C   C15       1.0  0.8261730829306209  0.026542275519845893  0.5779371691432935  1.0000
  C   C16       1.0  0.806192972163821  0.03608882709068428  0.44627234580400454  1.0000
  C   C17       1.0  0.7961319948722867  0.9237889405309193  0.37952245006590446  1.0000
  C   C18       1.0  0.8063188944111771  0.8008051342981998  0.44620539627571687  1.0000
  C   C19       1.0  0.8262977601754503  0.7892673115099241  0.5778707543102144  1.0000
  C   C20       1.0  0.8361133070576209  0.9026927204869292  0.6429992114984793  1.0000
  C   C21       1.0  0.7749944985484263  0.9349420381525788  0.24022871277556135  1.0000
  C   C22       1.0  0.7248936370859048  0.026968314059446108  0.1944036271416707  1.0000
  C   C23       1.0  0.7050285257243691  0.03733589274177751  0.06329967634411537  1.0000
  C   C24       1.0  0.7348883846260175  0.9561035106373212  0.9759358859305318  1.0000
  C   C25       1.0  0.7848240736146687  0.864278328801453  0.02086830953184271  1.0000
  C   C26       1.0  0.8047442964350879  0.8536538142754809  0.1519429890262367  1.0000
  N   N4        1.0  0.7145396369738104  0.9668400744288277  0.8418412712383252  1.0000
  H   H10       1.0  0.8337571715645767  0.3503573384978915  0.6281243307733455  1.0000
  H   H11       1.0  0.7993203080253771  0.13112363492525358  0.3948325890290083  1.0000
  H   H12       1.0  0.7977193010873392  0.7139342121926144  0.3956837544072802  1.0000
  H   H13       1.0  0.8515265345229612  0.8945599608957805  0.7445727847836208  1.0000
  H   H14       1.0  0.833940545073062  0.4574179309978295  0.6280270418777063  1.0000
  H   H15       1.0  0.700425363981258  0.08976808312902596  0.26029531980398435  1.0000
  H   H16       1.0  0.6662367410163039  0.10847333426663908  0.029894177847432646  1.0000
  H   H17       1.0  0.8084414273731861  0.8011473912400169  0.9542765091786296  1.0000
  H   H18       1.0  0.8440633901602652  0.7830182718270617  0.18391565877950655  1.0000
  H   H19       1.0  0.7365057125272065  0.9066977824638361  0.7759813306985697  1.0000
  H   H20       1.0  0.6773581131118764  0.03501094889761447  0.8074331076539343  1.0000
  C   C27       1.0  0.8262026953470568  0.40801165189543487  0.19653429164133973  1.0000
  C   C28       1.0  0.8886178856841795  0.4758541154596012  0.1909951761984312  1.0000
  C   C29       1.0  0.9202777026901509  0.510121724481327  0.07105856106066577  1.0000
  C   C30       1.0  0.8886842180834367  0.4756378472297058  0.9557262636833928  1.0000
  C   C31       1.0  0.8262681435754374  0.4077979582981879  0.9592737116797085  1.0000
  C   C32       1.0  0.7953772259607359  0.37436392838364907  0.08015016924061036  1.0000
  C   C33       1.0  0.9863082263162836  0.5818919904490494  0.06625239219833756  1.0000
  C   C34       1.0  0.9971987307629994  0.6847156540869677  0.146183982498316  1.0000
  C   C35       1.0  0.05937919095214372  0.7521664118546827  0.1414733374728181  1.0000
  C   C36       1.0  0.1113747598710042  0.7178287355401314  0.05715029591587073  1.0000
  C   C37       1.0  0.10114120824298167  0.6158535872286999  0.9773557889901041  1.0000
  C   C38       1.0  0.03902238297329674  0.5482014799082464  0.9816916054097722  1.0000
  Cl  Cl1       1.0  0.18934831558393506  0.8025791297322442  0.05147583726519023  1.0000
  H   H21       1.0  0.8024012403652531  0.3822178840680235  0.5260936741845601  1.0000
  H   H22       1.0  0.9132374496519294  0.5006432101701594  0.28028720935035634  1.0000
  H   H23       1.0  0.9123979906911416  0.5033836236755014  0.8629161303504786  1.0000
  H   H24       1.0  0.7472263617289265  0.32202771751394144  0.08365513391764767  1.0000
  H   H25       1.0  0.8024978522882008  0.381901701482791  0.6331757475690951  1.0000
  H   H26       1.0  0.9573185764454872  0.7140336678405583  0.21104758567458348  1.0000
  H   H27       1.0  0.0669995536515251  0.8313133994066009  0.20319692010899182  1.0000
  H   H28       1.0  0.1413356849821077  0.5886774822847805  0.912152421592654  1.0000
  H   H29       1.0  0.032543874007134654  0.4684951776998152  0.9202021448125315  1.0000
  Zn  Zn1       1.0  0.7508480442362171  0.4091631190955429  0.5769459848229801  1.0000
  Zn  Zn2       1.0  0.9016162162267833  0.40664594487868366  0.5788613056520515  1.0000
  C   C39       1.0  0.8262533983108823  0.4026646914044745  0.8151000335091383  1.0000
  C   C40       1.0  0.8262125088146706  0.413145983660097  0.34070740520526765  1.0000
  C   C41       1.0  0.826270212143209  0.6450975463083255  0.5727081196250923  1.0000
  C   C42       1.0  0.8261956432865858  0.17071156929896847  0.5830993878102859  1.0000
  O   O1        1.0  0.883431536913364  0.4139081920856087  0.3898200739208244  1.0000
  O   O2        1.0  0.8834639240227595  0.3999910263776876  0.7674406752237892  1.0000
  O   O3        1.0  0.8834767302254093  0.5957586351933573  0.5717074798834338  1.0000
  O   O4        1.0  0.8834186792569123  0.21814059344635295  0.5855531712319351  1.0000
  O   O5        1.0  0.76904552975631  0.5976684713882774  0.57025411858266  1.0000
  O   O6        1.0  0.7690327237996404  0.4019024228902892  0.7659872445416069  1.0000
  O   O7        1.0  0.7690003365946076  0.4158195437791652  0.388365081839285  1.0000
  O   O8        1.0  0.76898747894218  0.22005193582389904  0.5840982765192042  1.0000
