data_image0
_chemical_formula_structural       NC10NC5H10C12SCH12C12NH11Zn2C4O8
_chemical_formula_sum              "N3 C44 H33 S1 Zn2 O8"
_cell_length_a       19.4436361288709
_cell_length_b       10.299776766347529
_cell_length_c       10.299774167527174
_cell_angle_alpha    85.57893362728709
_cell_angle_beta     89.69810155224394
_cell_angle_gamma    89.39962546058797

_space_group_name_H-M_alt    "P 1"
_space_group_IT_number       1

loop_
  _space_group_symop_operation_xyz
  'x, y, z'

loop_
  _atom_site_type_symbol
  _atom_site_label
  _atom_site_symmetry_multiplicity
  _atom_site_fract_x
  _atom_site_fract_y
  _atom_site_fract_z
  _atom_site_occupancy
  N   N1        1.0  0.647491836740673  0.4088767571089542  0.562222344001313  1.0000
  C   C1        1.0  0.5886541604486072  0.41878018758638635  0.5766062039456814  1.0000
  C   C2        1.0  0.5153227052645087  0.4311310990888906  0.5945983756250326  1.0000
  C   C3        1.0  0.47314467055922643  0.3991237377892185  0.4999270115313079  1.0000
  C   C4        1.0  0.3972381669052  0.40956251516750286  0.5052553783623241  1.0000
  C   C5        1.0  0.357502790552725  0.3848271297827215  0.6123221507884429  1.0000
  C   C6        1.0  0.2813816117055559  0.3887422236925029  0.5993635017747352  1.0000
  C   C7        1.0  0.2408082579063404  0.4464135865933716  0.693133107368676  1.0000
  C   C8        1.0  0.1691442681662543  0.45005009403842555  0.682589822710638  1.0000
  C   C9        1.0  0.137058944431794  0.3956192644467551  0.5785634277929521  1.0000
  C   C10       1.0  0.0632656999756742  0.3993169967184267  0.5678648705847607  1.0000
  N   N2        1.0  0.0039409365323201  0.40228977944830846  0.5592639398936456  1.0000
  C   C11       1.0  0.1769075289714746  0.33724086295555633  0.4851770065548313  1.0000
  C   C12       1.0  0.24858795831343744  0.3335501034359054  0.49546852158253474  1.0000
  C   C13       1.0  0.385642065192333  0.3443817821786179  0.7434093521761787  1.0000
  C   C14       1.0  0.444297910025838  0.3875085345910212  0.7906520039614262  1.0000
  C   C15       1.0  0.4884885876851305  0.48535709747369293  0.7162924671880979  1.0000
  H   H1        1.0  0.4952491961235527  0.36999669605338315  0.40962251488685375  1.0000
  H   H2        1.0  0.3725362541989437  0.43204629786414306  0.4121020015214434  1.0000
  H   H3        1.0  0.2646707676250447  0.4897131707083282  0.7739802015780568  1.0000
  H   H4        1.0  0.1387911958599919  0.49537247752186286  0.7555098801169864  1.0000
  H   H5        1.0  0.1525731009753443  0.2941369721028282  0.404664391029264  1.0000
  H   H6        1.0  0.2782758025497542  0.2859844367047557  0.42324465803881717  1.0000
  H   H7        1.0  0.3546874975183779  0.2801727966353431  0.8076504375779032  1.0000
  H   H8        1.0  0.459453320876203  0.3534528668082826  0.8885806996594594  1.0000
  H   H9        1.0  0.4583638751092408  0.5760674001380546  0.691046064424645  1.0000
  H   H10       1.0  0.5317689133789172  0.5109499676174487  0.7793760839468236  1.0000
  C   C16       1.0  0.8257845267611015  0.0242168752768972  0.5607410061794835  1.0000
  C   C17       1.0  0.8299091498869599  0.012619103968895429  0.6972138399603192  1.0000
  C   C18       1.0  0.8319329091586511  0.889605025215486  0.7663716190213321  1.0000
  C   C19       1.0  0.8297776333213691  0.7773337624075307  0.6972301210543648  1.0000
  C   C20       1.0  0.8256548471694162  0.7869395520379013  0.5607565226829108  1.0000
  C   C21       1.0  0.8236809852846002  0.9108197625785922  0.49327590952615896  1.0000
  C   C22       1.0  0.83628871536281  0.8783999379785692  0.9107445417157285  1.0000
  C   C23       1.0  0.7969204578733203  0.785688824424117  0.9851102653252588  1.0000
  C   C24       1.0  0.8010404379720677  0.7753775992000996  0.12097857883211749  1.0000
  C   C25       1.0  0.8443570790407708  0.8575026224223311  0.18428917483507512  1.0000
  C   C26       1.0  0.883889386187224  0.9496373221479354  0.11129508584332315  1.0000
  C   C27       1.0  0.8798702599722946  0.9602965693468789  0.9754155208153796  1.0000
  S   S1        1.0  0.8497194261389184  0.8438099625789082  0.35862628450734835  1.0000
  C   C28       1.0  0.7806040238412375  0.9611547496089847  0.3787276470033242  1.0000
  H   H11       1.0  0.824239916979399  0.35608913454018576  0.5087384369196712  1.0000
  H   H12       1.0  0.8306089121465713  0.09945285374526214  0.7501637147020361  1.0000
  H   H13       1.0  0.8322707592539602  0.6822895064509319  0.7499689851777804  1.0000
  H   H14       1.0  0.8204994841742005  0.9189984530332838  0.38799291716493745  1.0000
  H   H15       1.0  0.8240495401082725  0.46314666017168077  0.5087591227119175  1.0000
  H   H16       1.0  0.762300129856393  0.7223506294999943  0.9382858257891382  1.0000
  H   H17       1.0  0.7702864651254048  0.703900056679289  0.1769525316880166  1.0000
  H   H18       1.0  0.9177776026498342  0.013045390017175418  0.159714456592993  1.0000
  H   H19       1.0  0.911492221114608  0.031389537734003436  0.9208473361025988  1.0000
  H   H20       1.0  0.7943757172463862  0.05721555483217666  0.329738135788609  1.0000
  H   H21       1.0  0.7726278139221499  0.9720125718958279  0.4840678566480757  1.0000
  H   H22       1.0  0.732208957968771  0.9265041416952737  0.33700932155289653  1.0000
  C   C29       1.0  0.8257430963503432  0.405463265092892  0.17939646591674618  1.0000
  C   C30       1.0  0.7583907395392998  0.3574064880974013  0.18277529113245783  1.0000
  C   C31       1.0  0.7242386658655213  0.33317200075473075  0.06733975154266503  1.0000
  C   C32       1.0  0.7583434483236726  0.35763866090091456  0.9474709769614535  1.0000
  C   C33       1.0  0.8256962430196931  0.4056932033281031  0.9421010037075761  1.0000
  C   C34       1.0  0.8590187990654219  0.42933690985249795  0.05858606971207436  1.0000
  C   C35       1.0  0.6529837757921618  0.28233128267404095  0.07196770145459341  1.0000
  C   C36       1.0  0.6336707566373775  0.1842352297936769  0.16742486932494605  1.0000
  C   C37       1.0  0.5666024501648915  0.13643952869211295  0.1716470189842738  1.0000
  C   C38       1.0  0.5177862550058937  0.18586684812286425  0.08074848677277346  1.0000
  C   C39       1.0  0.5366454733537815  0.2835811299357234  0.9854544425472191  1.0000
  C   C40       1.0  0.603693109901531  0.33147847390988416  0.980966186249876  1.0000
  N   N3        1.0  0.44919095281026533  0.1369233244792163  0.08520348771849573  1.0000
  H   H23       1.0  0.8514191343128242  0.4237212154300094  0.5055664812948657  1.0000
  H   H24       1.0  0.7319877154059728  0.34039142311582005  0.27527977656984537  1.0000
  H   H25       1.0  0.7325886723158175  0.3374392396148167  0.8583539234437496  1.0000
  H   H26       1.0  0.9109781908635586  0.4664096111917613  0.055211473243469866  1.0000
  H   H27       1.0  0.8513503778574095  0.42405943281015146  0.6125972807293811  1.0000
  H   H28       1.0  0.6706753053507287  0.14328359991698836  0.23776680730021393  1.0000
  H   H29       1.0  0.5527408379650036  0.06064974858701899  0.24557897462457068  1.0000
  H   H30       1.0  0.49935408151973015  0.3228727658209023  0.9148448006404077  1.0000
  H   H31       1.0  0.6167505248306452  0.40814960177940485  0.9073729392839232  1.0000
  H   H32       1.0  0.41244252632151834  0.17315850306436387  0.017844613549478527  1.0000
  H   H33       1.0  0.43464782874661817  0.06409138147440663  0.1558940203038055  1.0000
  Zn  Zn1       1.0  0.7503553486121091  0.4069724285609866  0.5613761242220869  1.0000
  Zn  Zn2       1.0  0.9010774173239325  0.4041835036045167  0.5601208401715221  1.0000
  C   C41       1.0  0.8257044533477838  0.400476097910192  0.7979334521082848  1.0000
  C   C42       1.0  0.8257299581820857  0.41068144244725135  0.3235636260718422  1.0000
  C   C43       1.0  0.8256761185901976  0.6427672424173194  0.5555786551555724  1.0000
  C   C44       1.0  0.8257582417698424  0.16838873862063952  0.5659184926568099  1.0000
  O   O1        1.0  0.8829237894377361  0.41136866224656576  0.3714710681328457  1.0000
  O   O2        1.0  0.8829051849626939  0.39767116877169184  0.7490729046485602  1.0000
  O   O3        1.0  0.8828815331450431  0.593324346825469  0.5533696978581188  1.0000
  O   O4        1.0  0.8829473898285549  0.21571549440526794  0.567174177981397  1.0000
  O   O5        1.0  0.7684853246734421  0.5954404387133703  0.5543227868337477  1.0000
  O   O6        1.0  0.7685089762268776  0.3997888209322118  0.7500259244134699  1.0000
  O   O7        1.0  0.7685275808512491  0.41348626867994165  0.3724225265638452  1.0000
  O   O8        1.0  0.7685511812348552  0.2178330915792992  0.5681257337758225  1.0000
