data_image0
_chemical_formula_structural       NC10NC5H10C13OH12C15H12Zn2C4O8
_chemical_formula_sum              "N2 C47 H34 O9 Zn2"
_cell_length_a       19.4436361288709
_cell_length_b       10.299150109392551
_cell_length_c       10.299157797200024
_cell_angle_alpha    85.5240492146119
_cell_angle_beta     89.72702837822627
_cell_angle_gamma    89.39953782186457

_space_group_name_H-M_alt    "P 1"
_space_group_IT_number       1

loop_
  _space_group_symop_operation_xyz
  'x, y, z'

loop_
  _atom_site_type_symbol
  _atom_site_label
  _atom_site_symmetry_multiplicity
  _atom_site_fract_x
  _atom_site_fract_y
  _atom_site_fract_z
  _atom_site_occupancy
  N   N1        1.0  0.6471027997070773  0.40984400188887893  0.5615363343744111  1.0000
  C   C1        1.0  0.5882690151666604  0.4197399299246256  0.5759178870430652  1.0000
  C   C2        1.0  0.5149424280131131  0.4320814535942228  0.5939071867390282  1.0000
  C   C3        1.0  0.4727387782988616  0.4001264771476072  0.4992383317252511  1.0000
  C   C4        1.0  0.3968337162332681  0.4105630886533713  0.5045632568124665  1.0000
  C   C5        1.0  0.3571273093585315  0.3857629393854507  0.6116504758002381  1.0000
  C   C6        1.0  0.2810026242285654  0.38968595534777695  0.598689000024708  1.0000
  C   C7        1.0  0.2404546411651536  0.44730778500347923  0.6924461971049811  1.0000
  C   C8        1.0  0.16878779867382182  0.45095077878014145  0.6819004401709654  1.0000
  C   C9        1.0  0.1366743289741199  0.39657576558963514  0.5778841622221291  1.0000
  C   C10       1.0  0.0628781897537702  0.4002800804129101  0.5671830933977022  1.0000
  N   N2        1.0  0.003551099111894701  0.40325815508249696  0.55858014351411  1.0000
  C   C11       1.0  0.1764976464645185  0.33824660952452  0.4845104590229503  1.0000
  C   C12       1.0  0.2481808604366679  0.3345495057823875  0.4948044412036956  1.0000
  C   C13       1.0  0.3853020528899104  0.3452373776304347  0.742766593537332  1.0000
  C   C14       1.0  0.44397067975735754  0.38834044914069077  0.7899976168504981  1.0000
  C   C15       1.0  0.48814123677438076  0.48624129974638386  0.7155930538815221  1.0000
  H   H1        1.0  0.49481887037181577  0.3710495311181463  0.40893569195033663  1.0000
  H   H2        1.0  0.3721065986408209  0.43310330634724425  0.41139172255362677  1.0000
  H   H3        1.0  0.2643390253164096  0.4905640801346849  0.7732850476042692  1.0000
  H   H4        1.0  0.1384544559484723  0.4962346856275084  0.7548106668877246  1.0000
  H   H5        1.0  0.1521414345340382  0.2951858300611976  0.40400604677563545  1.0000
  H   H6        1.0  0.27784916348695665  0.28702170590721554  0.4225913370535428  1.0000
  H   H7        1.0  0.3543648677237221  0.28098506071883644  0.8070388115888403  1.0000
  H   H8        1.0  0.4591525876862071  0.35422450940498496  0.8879493822349811  1.0000
  H   H9        1.0  0.45800969224364185  0.5769745632116319  0.6903093960000708  1.0000
  H   H10       1.0  0.5314386308073661  0.5117996499847421  0.7786733689790224  1.0000
  C   C16       1.0  0.8253950931633649  0.025150137074845702  0.560201832240182  1.0000
  C   C17       1.0  0.82415679133645  0.013329090803169574  0.6970306263214336  1.0000
  C   C18       1.0  0.8234690455534196  0.8902021527941949  0.7661425165684363  1.0000
  C   C19       1.0  0.824024108046654  0.7780763031143895  0.6966683110160024  1.0000
  C   C20       1.0  0.8252653873909468  0.7879418630858188  0.5599258961352778  1.0000
  C   C21       1.0  0.8259455176666783  0.9119390621048943  0.4924917531426858  1.0000
  C   C22       1.0  0.8221530469407357  0.878678713887273  0.9108017888327486  1.0000
  C   C23       1.0  0.7798748662064161  0.7865598554540874  0.9791777025809867  1.0000
  C   C24       1.0  0.7786137260848998  0.7757981412750518  0.11530212218625135  1.0000
  C   C25       1.0  0.8200590833533554  0.8559880189455376  0.18550771383918174  1.0000
  C   C26       1.0  0.8616793745119772  0.949072480644734  0.11777986440470078  1.0000
  C   C27       1.0  0.8629564800708209  0.9600096969573346  0.9816550236629642  1.0000
  C   C28       1.0  0.8172576865429245  0.8468048846168743  0.3316255416671462  1.0000
  O   O1        1.0  0.7658595328550654  0.9309182498615712  0.372294753378028  1.0000
  H   H11       1.0  0.8272856029484404  0.2547640078178388  0.30193477726732776  1.0000
  H   H12       1.0  0.8227708072720286  0.10011134821059509  0.7500537185810301  1.0000
  H   H13       1.0  0.8244275723272158  0.6829295745426056  0.7495014901480217  1.0000
  H   H14       1.0  0.8269010073646691  0.9202649082382782  0.3870182530284654  1.0000
  H   H15       1.0  0.8256965338648582  0.46426189078121655  0.5073303514754135  1.0000
  H   H16       1.0  0.7469714997736817  0.7241757643136969  0.9273389184363308  1.0000
  H   H17       1.0  0.7451666822758929  0.7050704333629907  0.1659579417139243  1.0000
  H   H18       1.0  0.8933159941792235  0.013032708795160497  0.1703754023766959  1.0000
  H   H19       1.0  0.8964267371192746  0.03118215177590966  0.9318057008451788  1.0000
  H   H20       1.0  0.8678578608069304  0.8736863550189337  0.37137819221149393  1.0000
  H   H21       1.0  0.8060882949860079  0.7449778972525216  0.3695329096974621  1.0000
  H   H22       1.0  0.7661344817736917  0.9212051102545059  0.4689246596306271  1.0000
  C   C29       1.0  0.8252504776264993  0.40665375664311854  0.17867244867720422  1.0000
  C   C30       1.0  0.7536148034754814  0.389996507537812  0.17944823821059774  1.0000
  C   C31       1.0  0.7174406886946735  0.3814390765094051  0.06269808258103726  1.0000
  C   C32       1.0  0.7538191952604852  0.38978398260709435  0.944179324307064  1.0000
  C   C33       1.0  0.8254099777438269  0.40643826612070555  0.9414552252262389  1.0000
  C   C34       1.0  0.8607075756695165  0.41477014040019156  0.05923558204820556  1.0000
  C   C35       1.0  0.6417057377953974  0.36383399039868336  0.06456456235403008  1.0000
  C   C36       1.0  0.6107726785561843  0.2774195247349649  0.9837456499901611  1.0000
  C   C37       1.0  0.5395029009107947  0.2609454577177057  0.9855343111069117  1.0000
  C   C38       1.0  0.4978969094472869  0.32990014795056233  0.0686846828385026  1.0000
  C   C39       1.0  0.5284617395054676  0.4171670319660672  0.1485296266195133  1.0000
  C   C40       1.0  0.5997308229624199  0.4336453105020499  0.14688892046229585  1.0000
  C   C41       1.0  0.421118806530108  0.31450221620578134  0.06826457832319632  1.0000
  C   C42       1.0  0.3901705617214199  0.4088489716228325  0.9710762795015149  1.0000
  C   C43       1.0  0.3647357106640974  0.4864299885094838  0.8911605136992882  1.0000
  H   H23       1.0  0.9605139117820685  0.43729765835138634  0.384562681332681  1.0000
  H   H24       1.0  0.725951590177007  0.3818820709933932  0.27121852464274854  1.0000
  H   H25       1.0  0.726056429324952  0.3850584835457147  0.8537791680251292  1.0000
  H   H26       1.0  0.9159277135280721  0.4276123117567916  0.057850137161576054  1.0000
  H   H27       1.0  0.8529490234868797  0.41280256930206627  0.6129350726153944  1.0000
  H   H28       1.0  0.6417795701050888  0.22147659821799492  0.9201365158593768  1.0000
  H   H29       1.0  0.5167429788247526  0.19420489771061344  0.9221883268350695  1.0000
  H   H30       1.0  0.4970532433757654  0.472808175294946  0.21179720441306338  1.0000
  H   H31       1.0  0.6219294032324783  0.5025036385807611  0.20859755386538303  1.0000
  H   H32       1.0  0.4074089831418292  0.2145072971548616  0.044969432670105336  1.0000
  H   H33       1.0  0.3992224038853607  0.33035295216909377  0.16566188015800543  1.0000
  H   H34       1.0  0.3424253637258696  0.5545431017113058  0.8210016053290041  1.0000
  Zn  Zn1       1.0  0.7499660826366642  0.4079399949801681  0.5606907553875584  1.0000
  Zn  Zn2       1.0  0.9006878117353108  0.4051515504017371  0.5594364081485756  1.0000
  C   C44       1.0  0.8253791930877549  0.4013049351546276  0.7972748575034296  1.0000
  C   C45       1.0  0.8252763469088172  0.41178821849846425  0.3228524192163784  1.0000
  C   C46       1.0  0.8252852813842826  0.6437595560295719  0.5548025881079568  1.0000
  C   C47       1.0  0.825370207461318  0.16933203812210706  0.5653247588471109  1.0000
  O   O2        1.0  0.8824831405398187  0.412447524399308  0.3707645182394059  1.0000
  O   O3        1.0  0.8825667044676289  0.3985282846399616  0.7484103644360218  1.0000
  O   O4        1.0  0.8824900988039367  0.5943134711372344  0.5526122972961243  1.0000
  O   O5        1.0  0.8825596947504488  0.21666234817205043  0.5665624884235558  1.0000
  O   O6        1.0  0.7680941481875952  0.59642919816283  0.5535646755337937  1.0000
  O   O7        1.0  0.7681707535683282  0.4006455721199451  0.7493626728596468  1.0000
  O   O8        1.0  0.7680871893673958  0.4145647670597652  0.3717152651862623  1.0000
  O   O9        1.0  0.7681637435971571  0.2187795815154676  0.5675133327473754  1.0000
