data_image0
_chemical_formula_structural       NC5NC4H6C10H6C6H6Zn2C4O8
_chemical_formula_sum              "N2 C29 H18 Zn2 O8"
_cell_length_a       13.854160002989762
_cell_length_b       9.275150299802176
_cell_length_c       10.68112160042829
_cell_angle_alpha    85.23622488855405
_cell_angle_beta     89.99987030852816
_cell_angle_gamma    89.48388968248379

_space_group_name_H-M_alt    "P 1"
_space_group_IT_number       1

loop_
  _space_group_symop_operation_xyz
  'x, y, z'

loop_
  _atom_site_type_symbol
  _atom_site_label
  _atom_site_symmetry_multiplicity
  _atom_site_fract_x
  _atom_site_fract_y
  _atom_site_fract_z
  _atom_site_occupancy
  N   N1        1.0  0.8993886399709902  0.5790662683136083  0.6108862470280585  1.0000
  C   C1        1.0  0.8269039374966676  0.6042896270117515  0.5594680792956435  1.0000
  C   C2        1.0  0.7367319452648622  0.6356681693695327  0.4955019112379943  1.0000
  C   C3        1.0  0.6493385031129814  0.6061715279204107  0.5579535668811524  1.0000
  C   C4        1.0  0.5615895328071941  0.635668183705453  0.49550189103724174  1.0000
  C   C5        1.0  0.47179579702095725  0.6042894796260352  0.5594681596136442  1.0000
  N   N2        1.0  0.3996150697562555  0.5790662047881645  0.610886247265426  1.0000
  C   C6        1.0  0.5612629805056171  0.6952681428244929  0.3706120746761039  1.0000
  C   C7        1.0  0.6486107178970362  0.7269158744428497  0.3080599735986307  1.0000
  C   C8        1.0  0.6482500804186714  0.7867571079629228  0.1731883932083207  1.0000
  C   C9        1.0  0.7363400695494176  0.6952681414988005  0.37061199625727625  1.0000
  H   H1        1.0  0.6496172243646468  0.5599309733952125  0.654616539216045  1.0000
  H   H2        1.0  0.4932586532767891  0.717064533242731  0.3221616073475564  1.0000
  H   H3        1.0  0.7126931564805582  0.8549483993468088  0.15218915725827986  1.0000
  H   H4        1.0  0.5829846788104629  0.8549484012243431  0.15218921378870864  1.0000
  H   H5        1.0  0.6487963835052463  0.6961922839856249  0.11147449553489475  1.0000
  H   H6        1.0  0.8040816116802771  0.7170646457770256  0.3221615325832159  1.0000
  C   C10       1.0  0.15205326299318478  0.15536068289092753  0.6129827790729245  1.0000
  C   C11       1.0  0.20281339721549413  0.23741348077633395  0.5182388634513584  1.0000
  C   C12       1.0  0.24529566841623063  0.17126469533115385  0.4186801849895867  1.0000
  C   C13       1.0  0.23744888511260662  0.02209723101974736  0.4125830610343953  1.0000
  C   C14       1.0  0.18879603516073507  0.9386005965684243  0.5067641497419391  1.0000
  C   C15       1.0  0.14695972657231407  0.002760649990155785  0.6088006350749735  1.0000
  C   C16       1.0  0.2960675266376107  0.257059647363155  0.32177004609778326  1.0000
  C   C17       1.0  0.33857640313681125  0.32891524778563075  0.24063606106592705  1.0000
  C   C18       1.0  0.38835232490405747  0.4130630975755836  0.14563170302127215  1.0000
  C   C19       1.0  0.4308530051425787  0.48491321572788376  0.06451327080405544  1.0000
  H   H7        1.0  0.10628341692523731  0.4176829188161742  0.8118466304507841  1.0000
  H   H8        1.0  0.2074510425519551  0.3538618293356115  0.5201735003840349  1.0000
  H   H9        1.0  0.26980493315606274  0.9699526807518526  0.33554556177333716  1.0000
  H   H10       1.0  0.18584414237528324  0.8226005792126906  0.5013574703447796  1.0000
  H   H11       1.0  0.08423990127185066  0.8722874922561138  0.9063438667508955  1.0000
  H   H12       1.0  0.46817214772804094  0.5480037189408502  0.9932845873618011  1.0000
  C   C20       1.0  0.14950653117745194  0.5790606607121158  0.24314647705906411  1.0000
  C   C21       1.0  0.0809020298088512  0.49881450439123937  0.18212001709173564  1.0000
  C   C22       1.0  0.08090196898894897  0.4988145969082263  0.05123787668224123  1.0000
  C   C23       1.0  0.14950645487290143  0.5790607314406022  0.9786369123863384  1.0000
  C   C24       1.0  0.2180543336748783  0.65924038772961  0.039663120195680975  1.0000
  C   C25       1.0  0.21805432146007253  0.6592403653561674  0.17055541896914472  1.0000
  H   H13       1.0  0.2188838632583221  0.6602115739176055  0.5360037266778719  1.0000
  H   H14       1.0  0.027126582938969294  0.4359137744638142  0.23546727738316098  1.0000
  H   H15       1.0  0.027126562372078444  0.43591384238134334  0.006963247822435297  1.0000
  H   H16       1.0  0.2718368024897748  0.7221494063538321  0.9863601543658699  1.0000
  H   H17       1.0  0.27183675416197794  0.7221493557737699  0.21478452209989718  1.0000
  H   H18       1.0  0.21888416753008588  0.6602110712217208  0.6740747034454015  1.0000
  Zn  Zn1       1.0  0.04374321089347722  0.5790623870239172  0.6108935056844631  1.0000
  Zn  Zn2       1.0  0.25526057097755567  0.5790582789804695  0.6108893316332935  1.0000
  C   C26       1.0  0.14953889160487424  0.5733126715016584  0.8396418555109547  1.0000
  C   C27       1.0  0.14946718908642365  0.584809814984333  0.38214109568938226  1.0000
  C   C28       1.0  0.14791756973320536  0.8425840397526445  0.6046008472305184  1.0000
  C   C29       1.0  0.15108844920171838  0.3155367132194462  0.6171821792918208  1.0000
  O   O1        1.0  0.22972375917709525  0.5867314299879667  0.4287874064686632  1.0000
  O   O2        1.0  0.2298191101820776  0.5713868501043643  0.7929920216042907  1.0000
  O   O3        1.0  0.2285087901917821  0.7888268853893563  0.6031947370808655  1.0000
  O   O4        1.0  0.2310340069288092  0.3692914050259226  0.6185845970464319  1.0000
  O   O5        1.0  0.06796970276171982  0.7888292609814371  0.6031982402661544  1.0000
  O   O6        1.0  0.06928001232788625  0.5713909592133182  0.7929954494624074  1.0000
  O   O7        1.0  0.06918466168940715  0.5867354888169083  0.42878932895233923  1.0000
  O   O8        1.0  0.07049490949919957  0.3692954535348889  0.6185866134705944  1.0000
