data_image0
_chemical_formula_structural       NC12NC2H8C9H8C6H6Zn2C4O8
_chemical_formula_sum              "N2 C33 H22 Zn2 O8"
_cell_length_a       19.240039667572717
_cell_length_b       9.275152443626249
_cell_length_c       10.681121600428288
_cell_angle_alpha    85.36323627709002
_cell_angle_beta     89.99986269578453
_cell_angle_gamma    90.57354334366605

_space_group_name_H-M_alt    "P 1"
_space_group_IT_number       1

loop_
  _space_group_symop_operation_xyz
  'x, y, z'

loop_
  _atom_site_type_symbol
  _atom_site_label
  _atom_site_symmetry_multiplicity
  _atom_site_fract_x
  _atom_site_fract_y
  _atom_site_fract_z
  _atom_site_occupancy
  N   N1        1.0  0.6620975910816854  0.5787933016026607  0.6139345988869571  1.0000
  C   C1        1.0  0.6019492227146845  0.5787933948915018  0.6139345195998682  1.0000
  C   C2        1.0  0.5271311862023992  0.5787935251761356  0.6139343868130338  1.0000
  C   C3        1.0  0.49031177672167636  0.5071831367964885  0.7138649139335203  1.0000
  C   C4        1.0  0.4176404341409681  0.5070599668268748  0.7139487305233121  1.0000
  C   C5        1.0  0.38079895176155454  0.5787936280017192  0.6139341669594427  1.0000
  C   C6        1.0  0.4183331487714139  0.6505274968825443  0.5139197903694377  1.0000
  C   C7        1.0  0.49100324149189956  0.6504040653142678  0.5140037258608137  1.0000
  C   C8        1.0  0.3035938609004006  0.5787935406243931  0.6139340752120444  1.0000
  C   C9        1.0  0.2657988757357264  0.45298081973237414  0.6546826315103382  1.0000
  C   C10       1.0  0.19312876049853453  0.4530995675587131  0.6545942159322848  1.0000
  C   C11       1.0  0.15726157328470727  0.5787933971360018  0.6139341343724785  1.0000
  C   C12       1.0  0.08244353551971939  0.5787932707855029  0.6139343745253836  1.0000
  N   N2        1.0  0.0222952184485131  0.5787932254356172  0.6139345756338797  1.0000
  C   C13       1.0  0.1943418973340279  0.7044873109446531  0.5732740015612461  1.0000
  C   C14       1.0  0.26701316766458333  0.7046062588546109  0.5731854286029581  1.0000
  H   H1        1.0  0.5177589967202604  0.4517408089818866  0.7918864378721016  1.0000
  H   H2        1.0  0.39028375796401316  0.4525041547551145  0.7930432787443874  1.0000
  H   H3        1.0  0.3915032943053194  0.7050833390052327  0.4348251930271944  1.0000
  H   H4        1.0  0.5189857924185857  0.7058462817522584  0.43598246819594005  1.0000
  H   H5        1.0  0.2924142025117339  0.35394494559249234  0.6850308996656849  1.0000
  H   H6        1.0  0.16494078868375778  0.3550625083316661  0.6859355834935912  1.0000
  H   H7        1.0  0.1671000455694685  0.8025243429155224  0.5419326481115132  1.0000
  H   H8        1.0  0.294584320130262  0.8036422209459098  0.5428371170143205  1.0000
  C   C15       1.0  0.8401494335922989  0.15516098506869017  0.615213089980118  1.0000
  C   C16       1.0  0.8150767388243957  0.23790037976355127  0.508822611164367  1.0000
  C   C17       1.0  0.796464667095602  0.17245902765758325  0.4004402360764232  1.0000
  C   C18       1.0  0.8026330457188182  0.02311708735689777  0.3963024007528136  1.0000
  C   C19       1.0  0.8263466181879379  0.9386895459375404  0.501793742370495  1.0000
  C   C20       1.0  0.8442500014462314  0.002414502998018931  0.6126668823967805  1.0000
  C   C21       1.0  0.7838026435003463  0.9559675718528778  0.28406563494087833  1.0000
  C   C22       1.0  0.7680365818680773  0.8997122120832075  0.19008494105019214  1.0000
  C   C23       1.0  0.7489075824726374  0.8314442836228756  0.07605585136925241  1.0000
  H   H9        1.0  0.9400193908871858  0.23681243988133918  0.8653154008364882  1.0000
  H   H10       1.0  0.8114155310049116  0.35441786618359306  0.5084286922491621  1.0000
  H   H11       1.0  0.7778820138426064  0.23869878809367687  0.3193338361660829  1.0000
  H   H12       1.0  0.829272931343331  0.8223795153473501  0.49830024062062916  1.0000
  H   H13       1.0  0.9092614019162562  0.7071151086557861  0.7837284665707087  1.0000
  H   H14       1.0  0.7616134867655777  0.7147224537908267  0.08775518587375553  1.0000
  H   H15       1.0  0.6923382097867311  0.8440268548089973  0.05891173376299497  1.0000
  H   H16       1.0  0.7782592520142215  0.8837928068194149  0.9949951721528038  1.0000
  C   C24       1.0  0.8421997299736684  0.5787877074471206  0.2461947741113335  1.0000
  C   C25       1.0  0.7920641132022661  0.4985554218080053  0.18501340477346306  1.0000
  C   C26       1.0  0.7920640702558444  0.4985555143089935  0.054131264542591095  1.0000
  C   C27       1.0  0.84219967567749  0.5787877781633743  0.9816852095751676  1.0000
  C   C28       1.0  0.8922939106670382  0.6589535752652731  0.042866198381535485  1.0000
  C   C29       1.0  0.8922939016664322  0.6589535528956983  0.17375849711180757  1.0000
  H   H17       1.0  0.8929001323776378  0.659924593582081  0.539208679668187  1.0000
  H   H18       1.0  0.7527654499234069  0.4356655643765035  0.23823923977891304  1.0000
  H   H19       1.0  0.7527654357364322  0.4356656322822885  0.009735210349311133  1.0000
  H   H20       1.0  0.9315977062159333  0.7218517199608545  0.9896846738384384  1.0000
  H   H21       1.0  0.9315976709529002  0.7218516693895355  0.21810904147482565  1.0000
  H   H22       1.0  0.8929003468660773  0.6599240909731245  0.6772796554651701  1.0000
  Zn  Zn1       1.0  0.7660428361736479  0.5787894281847459  0.613941824666929  1.0000
  Zn  Zn2       1.0  0.9183499351747455  0.578785331402506  0.6139376054916597  1.0000
  C   C30       1.0  0.8421703390649173  0.5730407120329115  0.8426790556181705  1.0000
  C   C31       1.0  0.84222410428177  0.5845358677213086  0.38520049193717537  1.0000
  C   C32       1.0  0.8434713250463866  0.8422655247153457  0.6081578969016577  1.0000
  C   C33       1.0  0.8409230579400631  0.31530932182468474  0.6197217226290184  1.0000
  O   O1        1.0  0.9000320043779837  0.586457154492015  0.4318504984310756  1.0000
  O   O2        1.0  0.8999599976970085  0.5711152276037343  0.7960254896473358  1.0000
  O   O3        1.0  0.9010097811619231  0.7885176686782873  0.6066479902214044  1.0000
  O   O4        1.0  0.898982168990923  0.36905472373862036  0.6212279039312927  1.0000
  O   O5        1.0  0.7854105503825402  0.7885200358516001  0.6066515262221444  1.0000
  O   O6        1.0  0.7843607753029327  0.5711193279942037  0.7960289536675937  1.0000
  O   O7        1.0  0.7844327817868918  0.5864612046111646  0.4318524569798241  1.0000
  O   O8        1.0  0.7833829463470467  0.36905876353957967  0.6212299564006041  1.0000
