data_image0
_chemical_formula_structural       NC8NH4C10H6C9H6Zn2C4O8
_chemical_formula_sum              "N2 C31 H16 Zn2 O8"
_cell_length_a       13.859017124695912
_cell_length_b       9.275150299802176
_cell_length_c       9.275153671780862
_cell_angle_alpha    85.37735250896073
_cell_angle_beta     89.40939075953553
_cell_angle_gamma    89.4839206584006

_space_group_name_H-M_alt    "P 1"
_space_group_IT_number       1

loop_
  _space_group_symop_operation_xyz
  'x, y, z'

loop_
  _atom_site_type_symbol
  _atom_site_label
  _atom_site_symmetry_multiplicity
  _atom_site_fract_x
  _atom_site_fract_y
  _atom_site_fract_z
  _atom_site_occupancy
  N   N1        1.0  0.9101291940498377  0.5749710554835429  0.40056793141302394  1.0000
  C   C1        1.0  0.8383001074071901  0.5519570679441661  0.34451382915791784  1.0000
  C   C2        1.0  0.7489489495723026  0.5233310326645354  0.2747897277541549  1.0000
  C   C3        1.0  0.6606966198930827  0.5512385169737853  0.3427619502995897  1.0000
  C   C4        1.0  0.5737186263741466  0.5233322575938744  0.2747891412866066  1.0000
  C   C5        1.0  0.5751755610043192  0.46751095694998557  0.13882323942982233  1.0000
  C   C6        1.0  0.6632428788834112  0.43971073459285814  0.0711126610778623  1.0000
  C   C7        1.0  0.7500409258068699  0.4675086093804033  0.1388244315438132  1.0000
  C   C8        1.0  0.4830602665816404  0.5519579936675991  0.34451332570091897  1.0000
  N   N2        1.0  0.4101803191990808  0.5749713776954105  0.40056771349383835  1.0000
  H   H1        1.0  0.6597101156115408  0.5944463792571062  0.44800281104685186  1.0000
  H   H2        1.0  0.5083816244911946  0.44554672670131246  0.08532164799358011  1.0000
  H   H3        1.0  0.664227446857207  0.396591126794458  0.9660849265873942  1.0000
  H   H4        1.0  0.8178378527157999  0.4455422799527873  0.08532385162242972  1.0000
  C   C9        1.0  0.16268858010101742  0.15127186550467744  0.4029817693573028  1.0000
  C   C10       1.0  0.21418497802599593  0.23304534218766992  0.29389318698126976  1.0000
  C   C11       1.0  0.257444734080456  0.16660303162198178  0.17926086949602027  1.0000
  C   C12       1.0  0.24964922698018288  0.017417582557124566  0.17224061799138357  1.0000
  C   C13       1.0  0.20026385424949877  0.9341986115248739  0.2806811580122144  1.0000
  C   C14       1.0  0.15763011390077564  0.9986594967319015  0.39816643285870523  1.0000
  C   C15       1.0  0.3089700925625627  0.252112275085312  0.06767808817135479  1.0000
  C   C16       1.0  0.35210980504232264  0.3237286778880657  0.9742600432336856  1.0000
  C   C17       1.0  0.40262440827229407  0.4075964376971469  0.8648715867736616  1.0000
  C   C18       1.0  0.44575580358123634  0.47920740408218726  0.7714714494185928  1.0000
  H   H5        1.0  0.11535204543807454  0.4141804373073122  0.6319544985957786  1.0000
  H   H6        1.0  0.21880560051051123  0.3494993991821666  0.2961207342330803  1.0000
  H   H7        1.0  0.28260706589451545  0.9650459050809256  0.08353928942861287  1.0000
  H   H8        1.0  0.19735602701161462  0.8181826494138529  0.2744558850997898  1.0000
  H   H9        1.0  0.09256416510068366  0.8690636288575692  0.7407590398867145  1.0000
  H   H10       1.0  0.4836287660800058  0.5420879122908515  0.6894584144610887  1.0000
  C   C19       1.0  0.16308621605039408  0.573881333277017  0.9771506356450947  1.0000
  C   C20       1.0  0.18769451744989984  0.7013940190243173  0.04016973060653006  1.0000
  C   C21       1.0  0.20327949293750947  0.8302647766503233  0.9544450139236673  1.0000
  C   C22       1.0  0.19434699997345817  0.833227964903383  0.8044876591094388  1.0000
  C   C23       1.0  0.17159361292151432  0.7073245973042361  0.7398410155168142  1.0000
  C   C24       1.0  0.15723253468450227  0.5760500345327552  0.8239975910464626  1.0000
  C   C25       1.0  0.22736330572686536  0.9601509484472813  0.020815982879395  1.0000
  C   C26       1.0  0.24752863167310513  0.06889379590796006  0.07640972385066802  1.0000
  C   C27       1.0  0.2913026506440306  0.30494893743859786  0.1971068116833243  1.0000
  H   H11       1.0  0.16894175741160367  0.3349070992920174  0.2770450786223288  1.0000
  H   H12       1.0  0.1925612140626105  0.7014670734177267  0.15678470588999138  1.0000
  H   H13       1.0  0.20591794076917536  0.9327031501283777  0.7372157058339334  1.0000
  H   H14       1.0  0.16746367385515556  0.7118421387638216  0.622983669072946  1.0000
  H   H15       1.0  0.17144565277974966  0.22121128444426866  0.7495151617463804  1.0000
  H   H16       1.0  0.3090060315464529  0.40041581711410723  0.24592075934804258  1.0000
  Zn  Zn1       1.0  0.05443311548586194  0.5749673176103325  0.4005762215207854  1.0000
  Zn  Zn2       1.0  0.26587637863938074  0.574963376040913  0.40057131653478484  1.0000
  C   C28       1.0  0.1583711421458014  0.5698921841989644  0.6639580220003383  1.0000
  C   C29       1.0  0.16194064908766687  0.580040330271625  0.13718964717905657  1.0000
  C   C30       1.0  0.15862104688986034  0.8384705037121649  0.39333077832677854  1.0000
  C   C31       1.0  0.1616906820094004  0.31146027746656746  0.40781697757872826  1.0000
  O   O1        1.0  0.24179784034640917  0.5820995555045131  0.19089837577726906  1.0000
  O   O2        1.0  0.2389945045231765  0.5678288778752452  0.6102451617455279  1.0000
  O   O3        1.0  0.23919521370547756  0.7847092713783492  0.3917117392463516  1.0000
  O   O4        1.0  0.2415970596985435  0.3652191720472858  0.40943169010703917  1.0000
  O   O5        1.0  0.07871236227153332  0.7847115216068566  0.3917158479426115  1.0000
  O   O6        1.0  0.07851164326827444  0.5678328613985051  0.6102491837097568  1.0000
  O   O7        1.0  0.08131499143894616  0.582103484308979  0.19090066444678655  1.0000
  O   O8        1.0  0.08111421010147923  0.36522309080877124  0.4094340869400437  1.0000
