data_image0
_chemical_formula_structural       NC9NC5H8C9H6C9H7Zn2C4O8
_chemical_formula_sum              "N2 C36 H21 Zn2 O8"
_cell_length_a       17.807436237873137
_cell_length_b       9.275152443626249
_cell_length_c       9.275155815604961
_cell_angle_alpha    85.85171904572837
_cell_angle_beta     89.76311116066847
_cell_angle_gamma    88.96355956710403

_space_group_name_H-M_alt    "P 1"
_space_group_IT_number       1

loop_
  _space_group_symop_operation_xyz
  'x, y, z'

loop_
  _atom_site_type_symbol
  _atom_site_label
  _atom_site_symmetry_multiplicity
  _atom_site_fract_x
  _atom_site_fract_y
  _atom_site_fract_z
  _atom_site_occupancy
  N   N1        1.0  0.7101780673199233  0.5275669647720507  0.39341797455601935  1.0000
  C   C1        1.0  0.6493462437993246  0.4883863061894661  0.38132343146043923  1.0000
  C   C2        1.0  0.5736781413129788  0.4396498815529307  0.36627913284687463  1.0000
  C   C3        1.0  0.5547887349659939  0.3593620018717335  0.2500407603928352  1.0000
  C   C4        1.0  0.4813179705099225  0.31191809977828083  0.23534246164169081  1.0000
  C   C5        1.0  0.4256855868879071  0.34434253470950804  0.33684800988591124  1.0000
  C   C6        1.0  0.3476060699959035  0.2940502667843008  0.3213181489698427  1.0000
  C   C7        1.0  0.285998480386878  0.38508161442185884  0.34978031567697654  1.0000
  C   C8        1.0  0.21238428421342453  0.3374123707953951  0.3350979974389525  1.0000
  C   C9        1.0  0.14974353604108087  0.4314358157146858  0.3639533898597638  1.0000
  N   N2        1.0  0.09939332628121358  0.5070241707463924  0.38715234218636874  1.0000
  C   C10       1.0  0.1997925447206773  0.1984250608273768  0.29192639747481075  1.0000
  C   C11       1.0  0.2605426535290618  0.10737825196453299  0.26345497540625873  1.0000
  C   C12       1.0  0.3340343900139514  0.15460746996322938  0.2779140935766431  1.0000
  C   C13       1.0  0.44527006508815614  0.4251814502437737  0.45332771155328305  1.0000
  C   C14       1.0  0.5187920279966469  0.47241246625375444  0.46785403717143786  1.0000
  H   H1        1.0  0.5967910384563537  0.33372132045589553  0.17055114870711208  1.0000
  H   H2        1.0  0.46779097882249426  0.2515288273443952  0.14353865786699616  1.0000
  H   H3        1.0  0.29516650748813517  0.49358465369569915  0.38144103478662816  1.0000
  H   H4        1.0  0.1430914830438412  0.16052956042292818  0.2803034107557516  1.0000
  H   H5        1.0  0.2506766449841287  0.9997746788878573  0.23045895917063297  1.0000
  H   H6        1.0  0.3802244704022283  0.08142067172113476  0.25703519032079214  1.0000
  H   H7        1.0  0.4039862518941946  0.45023564656332987  0.5342559209082447  1.0000
  H   H8        1.0  0.5328506345667773  0.5341474228040818  0.5584971677192119  1.0000
  C   C15       1.0  0.9025786523249116  0.09379245741079377  0.3917920914242343  1.0000
  C   C16       1.0  0.8750824885619327  0.17692819991146713  0.26979551864363915  1.0000
  C   C17       1.0  0.8545598603873161  0.11149538341599996  0.14539431853905072  1.0000
  C   C18       1.0  0.8612094673609741  0.9617614501601519  0.1405252574781337  1.0000
  C   C19       1.0  0.8872336066517694  0.8770063388909741  0.26151075698609483  1.0000
  C   C20       1.0  0.9069999033462371  0.9407873760855971  0.38879062262739494  1.0000
  C   C21       1.0  0.8404362977605222  0.8945954763152515  0.011692275172087815  1.0000
  C   C22       1.0  0.8230435896874853  0.8383262526933855  0.9038148268852897  1.0000
  C   C23       1.0  0.8019409684218037  0.7700414828423267  0.772924456849164  1.0000
  H   H9        1.0  0.011442952763718758  0.1721779166113104  0.6778691959976628  1.0000
  H   H10       1.0  0.8711248387135844  0.29365066453361954  0.2694058876619858  1.0000
  H   H11       1.0  0.834172495997869  0.17800699003439835  0.05238142489806142  1.0000
  H   H12       1.0  0.8903824110819122  0.7604954758271188  0.25743958082670493  1.0000
  H   H13       1.0  0.9778975821781081  0.6434421440658104  0.5845150959643897  1.0000
  H   H14       1.0  0.8333496989898463  0.8199285171976737  0.6791303762005021  1.0000
  C   C24       1.0  0.9033941967216143  0.5137172042372844  0.9670952097844139  1.0000
  C   C25       1.0  0.845009047029169  0.5870895589225855  0.03560685314443201  1.0000
  C   C26       1.0  0.7917043118772198  0.6697810737530401  0.9549039126730655  1.0000
  C   C27       1.0  0.7957971883852637  0.6808250159786389  0.8042172838678585  1.0000
  C   C28       1.0  0.8526669735207542  0.6067575806016146  0.7340243507107638  1.0000
  C   C29       1.0  0.9061843374204106  0.5208625520562098  0.813487497095069  1.0000
  C   C30       1.0  0.7409919301368125  0.7669659596581517  0.7212142239736394  1.0000
  C   C31       1.0  0.6951024183289257  0.8390971092301893  0.651683808042876  1.0000
  C   C32       1.0  0.6394237514252814  0.9266160370371568  0.5673089199942778  1.0000
  H   H15       1.0  0.0771067353726489  0.3881605386742766  0.07765918051832621  1.0000
  H   H16       1.0  0.8416140616327227  0.5832699383746818  0.15246687415878402  1.0000
  H   H17       1.0  0.7476680413096565  0.7263254731430113  0.010238309866239298  1.0000
  H   H18       1.0  0.8540900091367571  0.6134658494402082  0.616831685500661  1.0000
  H   H19       1.0  0.6547067856686722  0.9299541473361203  0.45104957073106133  1.0000
  H   H20       1.0  0.5832208661036297  0.8782129806248535  0.5834176232245776  1.0000
  H   H21       1.0  0.6381043528659357  0.038074884891834415  0.6034496307076096  1.0000
  Zn  Zn1       1.0  0.8224971897389964  0.5216349803919138  0.39161819658620534  1.0000
  Zn  Zn2       1.0  0.98707416335681  0.512944499399357  0.38896400940072406  1.0000
  C   C33       1.0  0.9056252873413425  0.5137667792705685  0.6535216523659626  1.0000
  C   C34       1.0  0.9039478728946396  0.5208144264711703  0.1270606596356847  1.0000
  C   C35       1.0  0.9061413911308639  0.780639001927351  0.38361528877256057  1.0000
  C   C36       1.0  0.9034317041552962  0.25394047474189585  0.396967107107256  1.0000
  O   O1        1.0  0.9665897626218927  0.5198920351419781  0.17973929799914812  1.0000
  O   O2        1.0  0.9678935054914183  0.5080922051448757  0.5988281363495631  1.0000
  O   O3        1.0  0.9683094288301284  0.7235949571091183  0.38087684638017616  1.0000
  O   O4        1.0  0.9661737828218574  0.3043892955476104  0.3976904807832795  1.0000
  O   O5        1.0  0.8433975141118885  0.7301901872108008  0.38289172610180744  1.0000
  O   O6        1.0  0.8429815995609394  0.5146891672861909  0.6008429330911833  1.0000
  O   O7        1.0  0.8416778507673026  0.5264889323974292  0.18175236226822733  1.0000
  O   O8        1.0  0.8412618712665317  0.31098618340032713  0.3997036531357725  1.0000
