data_image0
_chemical_formula_structural       NC5NC4H6C12H10C12H9Zn2C4O8
_chemical_formula_sum              "N2 C37 H25 Zn2 O8"
_cell_length_a       13.854160002989762
_cell_length_b       14.388199552941785
_cell_length_c       14.388202922059104
_cell_angle_alpha    85.37141914913748
_cell_angle_beta     92.42189757495021
_cell_angle_gamma    92.40759118095515

_space_group_name_H-M_alt    "P 1"
_space_group_IT_number       1

loop_
  _space_group_symop_operation_xyz
  'x, y, z'

loop_
  _atom_site_type_symbol
  _atom_site_label
  _atom_site_symmetry_multiplicity
  _atom_site_fract_x
  _atom_site_fract_y
  _atom_site_fract_z
  _atom_site_occupancy
  N   N1        1.0  0.9078262434944762  0.013868718946272503  0.9674496108801294  1.0000
  C   C1        1.0  0.8345189646512465  0.029959124978466978  0.9292469521407662  1.0000
  C   C2        1.0  0.7433236463452151  0.04997602445316751  0.8817213830778529  1.0000
  C   C3        1.0  0.6569682045155354  0.03116793946393881  0.9281211075432487  1.0000
  C   C4        1.0  0.5681812337155709  0.04997603363062031  0.8817213680668001  1.0000
  C   C5        1.0  0.4794108217719953  0.029959030169977696  0.9292470118715923  1.0000
  N   N2        1.0  0.4080526711176826  0.01386867795922319  0.9674496110894746  1.0000
  C   C6        1.0  0.5657998449673364  0.08798369171405131  0.7889316265447457  1.0000
  C   C7        1.0  0.6521797667033766  0.10817934368486058  0.7424561797503084  1.0000
  C   C8        1.0  0.6494455955535883  0.14630691544869684  0.6422526112051368  1.0000
  C   C9        1.0  0.7408769313973581  0.0879836905777387  0.7889315683018437  1.0000
  H   H1        1.0  0.6588335483845944  0.0016789115121322938  0.999939128355131  1.0000
  H   H2        1.0  0.49695308947572714  0.10187358087455278  0.7529349346155774  1.0000
  H   H3        1.0  0.7155300760951953  0.19023008113450898  0.626620488139534  1.0000
  H   H4        1.0  0.5858216003408037  0.1902300825484624  0.6266205301250964  1.0000
  H   H5        1.0  0.6448771327318219  0.08765155996227715  0.5964632958589352  1.0000
  H   H6        1.0  0.8077760492742407  0.10187365321609754  0.7529348790277215  1.0000
  C   C10       1.0  0.14608705790945398  0.7404928244368905  0.9692271760538864  1.0000
  C   C11       1.0  0.05019038539168806  0.76186212398181  0.9842245100861402  1.0000
  C   C12       1.0  0.978922941323659  0.6907988689362398  0.9955064306572177  1.0000
  C   C13       1.0  0.0022674658425758613  0.5977528022063513  0.9919763248962286  1.0000
  C   C14       1.0  0.09763163423104461  0.5745961713437372  0.976981445586049  1.0000
  C   C15       1.0  0.16915309214700566  0.6466016306221397  0.9657050430206979  1.0000
  C   C16       1.0  0.12249549987785908  0.47559197239779666  0.9730995445800377  1.0000
  C   C17       1.0  0.08305886502994952  0.4057027076539533  0.03593078730351296  1.0000
  C   C18       1.0  0.10648266020335238  0.31254931395862534  0.032303742802575974  1.0000
  C   C19       1.0  0.1698011672014807  0.2872374741975707  0.965680158902423  1.0000
  C   C20       1.0  0.20918727660577496  0.3570165930365163  0.9028268874371117  1.0000
  C   C21       1.0  0.18582163814586433  0.4501823709485211  0.9065053493676609  1.0000
  H   H7        1.0  0.3692606734846508  0.8447891455556134  0.9343481158705833  1.0000
  H   H8        1.0  0.03019166807931238  0.8334769873706387  0.9872372994732976  1.0000
  H   H9        1.0  0.9052072891878524  0.7079331953462011  0.006781230241565736  1.0000
  H   H10       1.0  0.9454739679165557  0.5439823070964653  0.999733441418581  1.0000
  H   H11       1.0  0.24307219854584186  0.629263319461614  0.9554546173430676  1.0000
  H   H12       1.0  0.03501919813248144  0.42323028745590613  0.08877747113150813  1.0000
  H   H13       1.0  0.07514234560979305  0.2604012480935866  0.0818763399172726  1.0000
  H   H14       1.0  0.2752060800033016  0.0970979509110387  0.8919050913525501  1.0000
  H   H15       1.0  0.2579569267236696  0.3397119681920533  0.8505145373658602  1.0000
  H   H16       1.0  0.21635144181349478  0.5022358178484405  0.8563502422509797  1.0000
  C   C22       1.0  0.14589915256389635  0.012547607909163311  0.6943202471705889  1.0000
  C   C23       1.0  0.048403492792212344  0.0012397079272625747  0.7177242152050716  1.0000
  C   C24       1.0  0.9759311631981084  0.9926999112629911  0.6481942978981097  1.0000
  C   C25       1.0  0.9996502963427215  0.9953321419489697  0.5546718783716742  1.0000
  C   C26       1.0  0.09661432534602252  0.0066579643800983605  0.5294792857007107  1.0000
  C   C27       1.0  0.16933942331384633  0.015182507833722887  0.599953000500337  1.0000
  C   C28       1.0  0.1218920319575547  0.009583327691373713  0.4299485238667531  1.0000
  C   C29       1.0  0.07492356229409936  0.9484013006320736  0.3697507730880283  1.0000
  C   C30       1.0  0.09873360206867346  0.9511272528971835  0.2761060917100857  1.0000
  C   C31       1.0  0.16998907427065757  0.015182677039098588  0.24058710558140528  1.0000
  C   C32       1.0  0.2169097156011286  0.07638857429766197  0.3006711350703244  1.0000
  C   C33       1.0  0.19315158600089874  0.07360913397079602  0.39433643203745783  1.0000
  H   H17       1.0  0.3727912287611719  0.03884058227256638  0.7938851512715346  1.0000
  H   H18       1.0  0.028085246280615598  0.9989960592031596  0.7897453758347628  1.0000
  H   H19       1.0  0.9010171179726777  0.9842606310784809  0.666853083072015  1.0000
  H   H20       1.0  0.9420462788944891  0.9897574769593542  0.5019305473313045  1.0000
  H   H21       1.0  0.24433222404664612  0.02259213448340548  0.5812510269939103  1.0000
  H   H22       1.0  0.020583127470936036  0.8975084437057285  0.3953818095744681  1.0000
  H   H23       1.0  0.061451311757619156  0.9028645278800796  0.23160366803480437  1.0000
  H   H24       1.0  0.27191372693054805  0.12672048000412794  0.2753489189621825  1.0000
  H   H25       1.0  0.22969589260932888  0.12248393987855484  0.43865062907873287  1.0000
  Zn  Zn1       1.0  0.05218091959098125  0.013866240665155962  0.9674550040817841  1.0000
  Zn  Zn2       1.0  0.26369800264187004  0.013863575118232316  0.9674519060484559  1.0000
  C   C34       1.0  0.16527253300865877  0.010975939526963513  0.13735501750382617  1.0000
  C   C35       1.0  0.15060875395656192  0.016755051275947782  0.7975519762627579  1.0000
  C   C36       1.0  0.16515025924097856  0.18387319153154547  0.962644203249718  1.0000
  C   C37       1.0  0.15073090922343826  0.843856681043022  0.9722628473621736  1.0000
  O   O1        1.0  0.23245879373952896  0.018162034782503785  0.8321963382402479  1.0000
  O   O2        1.0  0.2439590228211156  0.00956622934798923  0.10270804100126807  1.0000
  O   O3        1.0  0.243859245784026  0.14918295160470693  0.9616278161191854  1.0000
  O   O4        1.0  0.23255849581358104  0.8785453188497838  0.9732764933412121  1.0000
  O   O5        1.0  0.08332035423869817  0.14918449693550428  0.9616304167851857  1.0000
  O   O6        1.0  0.08342017759602058  0.009568892909030067  0.10271058481811923  1.0000
  O   O7        1.0  0.07191989785713893  0.01816466050859366  0.832197764004655  1.0000
  O   O8        1.0  0.07201960271365747  0.8785479382537755  0.9732779888828964  1.0000
