data_image0
_chemical_formula_structural       NC6NC2H4C10H5C6SCH7Zn2C4O8
_chemical_formula_sum              "N2 C29 H16 S1 Zn2 O8"
_cell_length_a       14.927258858638513
_cell_length_b       9.275150299802178
_cell_length_c       9.275274088470228
_cell_angle_alpha    85.77620997522486
_cell_angle_beta     89.7257804702982
_cell_angle_gamma    89.48389287567745

_space_group_name_H-M_alt    "P 1"
_space_group_IT_number       1

loop_
  _space_group_symop_operation_xyz
  'x, y, z'

loop_
  _atom_site_type_symbol
  _atom_site_label
  _atom_site_symmetry_multiplicity
  _atom_site_fract_x
  _atom_site_fract_y
  _atom_site_fract_z
  _atom_site_occupancy
  N   N1        1.0  0.8395692438318382  0.5638801465490726  0.40151023050534995  1.0000
  C   C1        1.0  0.7620427527912901  0.5638801181265585  0.4015102412520103  1.0000
  C   C2        1.0  0.6656102447553179  0.5638802328053478  0.4015101907567542  1.0000
  C   C3        1.0  0.6190734763182122  0.5389751678819161  0.275003062007049  1.0000
  C   C4        1.0  0.5253621652353944  0.5389751922623729  0.2750029284503639  1.0000
  C   C5        1.0  0.4777941816984599  0.5638800553487859  0.40151021038624446  1.0000
  C   C6        1.0  0.38136160667095287  0.5638801700304847  0.4015101598850501  1.0000
  N   N2        1.0  0.30383511563040516  0.5638801416079708  0.40151017063171013  1.0000
  C   C7        1.0  0.5243308831440309  0.5887851202751273  0.5280173391300111  1.0000
  C   C8        1.0  0.6180421942268485  0.5887850958946705  0.5280174726866963  1.0000
  H   H1        1.0  0.6551708441910019  0.5195976219849072  0.17657325511074617  1.0000
  H   H2        1.0  0.49006718759204  0.5195978195684794  0.17657324905716276  1.0000
  H   H3        1.0  0.4882335819896159  0.6081626568762373  0.6264472541320345  1.0000
  H   H4        1.0  0.6533371709916898  0.6081625670080981  0.6264472615183556  1.0000
  C   C9        1.0  0.07406287651285169  0.14019750482448942  0.4039227275787725  1.0000
  C   C10       1.0  0.12150379933218641  0.22121453870588326  0.2948984109265662  1.0000
  C   C11       1.0  0.16127870570957636  0.1539773520521226  0.18033362159080224  1.0000
  C   C12       1.0  0.1540172439643095  0.004743231422022377  0.17331750226797832  1.0000
  C   C13       1.0  0.10853407536336257  0.9222762081811525  0.28169415891392324  1.0000
  C   C14       1.0  0.06935006755214948  0.9875517509970171  0.39911022552194453  1.0000
  C   C15       1.0  0.20873805163336062  0.23871285828145258  0.06881657499267457  1.0000
  C   C16       1.0  0.24847350324964035  0.3096814817492115  0.9754535637227902  1.0000
  C   C17       1.0  0.2950018739678846  0.39279072020815353  0.8661295492875675  1.0000
  C   C18       1.0  0.33472966439199947  0.4637540314329798  0.7727844350507009  1.0000
  H   H5        1.0  0.12580131547764495  0.3376840377304611  0.29712464771130764  1.0000
  H   H6        1.0  0.18431547681543625  0.9517564872496297  0.08466842613959602  1.0000
  H   H7        1.0  0.10581321374678843  0.8062170831136064  0.27547255153307226  1.0000
  H   H8        1.0  0.010103151955967334  0.8603314188330682  0.7415010370155888  1.0000
  H   H9        1.0  0.36961397817795594  0.5260658449180431  0.6908197149356092  1.0000
  C   C19       1.0  0.07298684821931567  0.5598543214957288  0.9783423932112907  1.0000
  C   C20       1.0  0.14899324722982443  0.6106389463071664  0.04740230202740747  1.0000
  C   C21       1.0  0.2199600922790771  0.6729181638329953  0.9669845192319034  1.0000
  C   C22       1.0  0.21610950533479278  0.6845511277161063  0.8163583247411316  1.0000
  C   C23       1.0  0.14202349840493744  0.6326743854884638  0.7458017063642726  1.0000
  C   C24       1.0  0.07042612744426324  0.567894988558739  0.8246905507937035  1.0000
  S   S1        1.0  0.31581010014689337  0.7383331667556463  0.05730134270392485  1.0000
  C   C25       1.0  0.2687596080227628  0.9189222351705982  0.06800786508063306  1.0000
  H   H10       1.0  0.856384045292246  0.5004895157198448  0.08738428156253053  1.0000
  H   H11       1.0  0.2708873451280489  0.7328922714499326  0.7535858962313187  1.0000
  H   H12       1.0  0.1417186925307985  0.6401494294554069  0.6286997887971233  1.0000
  H   H13       1.0  0.9256969217829811  0.5220400299334231  0.548036192673449  1.0000
  H   H14       1.0  0.25567332472716425  0.9693423352617223  0.9577594164398501  1.0000
  H   H15       1.0  0.20545636853529847  0.9135025513479308  0.13140421832495974  1.0000
  H   H16       1.0  0.3173249630728462  0.9862404850993371  0.12262485076789709  1.0000
  Zn  Zn1       1.0  0.9735463500263712  0.5638763582014508  0.4015185618928474  1.0000
  Zn  Zn2       1.0  0.16985805028017564  0.5638722244364132  0.40151372743565555  1.0000
  C   C26       1.0  0.07094012299460097  0.5606273979169538  0.6647452732170762  1.0000
  C   C27       1.0  0.07246641047688264  0.5671230064477291  0.1382871471587597  1.0000
  C   C28       1.0  0.07025367475431393  0.8273292275146298  0.39427741933355975  1.0000
  C   C29       1.0  0.07315280113813039  0.3004194441595893  0.40875508771728897  1.0000
  O   O1        1.0  0.14679104898332662  0.5695545804070004  0.19196426879415118  1.0000
  O   O2        1.0  0.14561152994591686  0.5581915941596629  0.6110640736956419  1.0000
  O   O3        1.0  0.14505620549120035  0.7735567087213806  0.392659359584292  1.0000
  O   O4        1.0  0.1473463067196693  0.3541894751411816  0.41036887479978  1.0000
  O   O5        1.0  0.9960580265953429  0.7735591074995916  0.39266341452278386  1.0000
  O   O6        1.0  0.9966133416375653  0.5581957256312469  0.6110680419531815  1.0000
  O   O7        1.0  0.997792866256245  0.5695586451413686  0.19196650477783228  1.0000
  O   O8        1.0  0.9983481237194277  0.35419353058256076  0.410371218883243  1.0000
