data_image0
_chemical_formula_structural       NC12NC2H8C12H10C12H10Zn2C4O8
_chemical_formula_sum              "N2 C42 H28 Zn2 O8"
_cell_length_a       19.240039667572717
_cell_length_b       14.38812564980172
_cell_length_c       14.389300134226545
_cell_angle_alpha    85.2703182299558
_cell_angle_beta     90.2220102004637
_cell_angle_gamma    91.20505873494551

_space_group_name_H-M_alt    "P 1"
_space_group_IT_number       1

loop_
  _space_group_symop_operation_xyz
  'x, y, z'

loop_
  _atom_site_type_symbol
  _atom_site_label
  _atom_site_symmetry_multiplicity
  _atom_site_fract_x
  _atom_site_fract_y
  _atom_site_fract_z
  _atom_site_occupancy
  N   N1        1.0  0.6682381440254032  0.05738067681591952  0.010099680317765316  1.0000
  C   C1        1.0  0.608089776025583  0.05738073921269617  0.010099623771058894  1.0000
  C   C2        1.0  0.5332717399894383  0.05738082705028158  0.010099528384147183  1.0000
  C   C3        1.0  0.49623539867646066  0.00825107848063089  0.08258179987231655  1.0000
  C   C4        1.0  0.4235635366278224  0.008169353954860405  0.08264092915491253  1.0000
  C   C5        1.0  0.3869395057331866  0.05738090000534846  0.010099367474607601  1.0000
  C   C6        1.0  0.42469115564941823  0.10659257351138618  0.9375579504272148  1.0000
  C   C7        1.0  0.497360727700447  0.10651067727752217  0.9376171612980195  1.0000
  C   C8        1.0  0.3097344142522437  0.057380846800692886  0.010099296887495886  1.0000
  C   C9        1.0  0.27133425636945735  0.9753185120243139  0.037106124063573276  1.0000
  C   C10       1.0  0.1986646293064888  0.9753975424780499  0.03704345537285436  1.0000
  C   C11       1.0  0.163402125967439  0.057380752808946056  0.010099337130695114  1.0000
  C   C12       1.0  0.0885840879257723  0.057380664109471846  0.010099512526966389  1.0000
  N   N2        1.0  0.028435770946221798  0.05738062864747296  0.01009966100229443  1.0000
  C   C13       1.0  0.201087134256865  0.1393640188367522  0.9831551829679549  1.0000
  C   C14       1.0  0.2737588935702236  0.1394431827176976  0.9830924024287607  1.0000
  H   H1        1.0  0.5235157506736964  0.9701931450772889  0.13918523747702538  1.0000
  H   H2        1.0  0.39604651698536336  0.9706467401430747  0.14006634002674156  1.0000
  H   H3        1.0  0.39802164472792073  0.14411520816695342  0.8801325037906248  1.0000
  H   H4        1.0  0.5255101464752957  0.14456853077100185  0.881013918924686  1.0000
  H   H5        1.0  0.2974703387940714  0.9107761013804935  0.057079222990035205  1.0000
  H   H6        1.0  0.170004405470656  0.9114650736856326  0.05778200779773536  1.0000
  H   H7        1.0  0.17431753439103706  0.2032964696843935  0.9624166403262219  1.0000
  H   H8        1.0  0.3018092907855117  0.2039856512001585  0.9631192734984002  1.0000
  C   C15       1.0  0.8440263832546513  0.7853521706026886  0.9998733250264369  1.0000
  C   C16       1.0  0.8093411259137371  0.8175616086852339  0.9176790792741694  1.0000
  C   C17       1.0  0.783629384367095  0.754568714363984  0.856569508744458  1.0000
  C   C18       1.0  0.7921296403948832  0.6588958675071446  0.876563694761446  1.0000
  C   C19       1.0  0.8265766933561677  0.6249471477319775  0.9583555737066374  1.0000
  C   C20       1.0  0.8355622155319663  0.5231269125974198  0.9797299603147387  1.0000
  C   C21       1.0  0.8532090461233487  0.4661798593158414  0.9089503850923316  1.0000
  C   C22       1.0  0.8616943513320049  0.37037301413012114  0.9290525681750086  1.0000
  C   C23       1.0  0.8526540971715579  0.3294016586251294  0.020333765022913727  1.0000
  C   C24       1.0  0.8349607226591292  0.3862501649384605  0.09115603048567827  1.0000
  C   C25       1.0  0.8265311304507372  0.4820644961151853  0.071065706461683  1.0000
  C   C26       1.0  0.852405488043957  0.6888602326512424  0.019652910176479094  1.0000
  H   H9        1.0  0.9247818258466427  0.8644355871242193  0.1910290574586483  1.0000
  H   H10       1.0  0.8020519830257546  0.8914243761680947  0.9005635391813916  1.0000
  H   H11       1.0  0.7568239901336956  0.7799979669540765  0.7935520464324575  1.0000
  H   H12       1.0  0.7709454079052511  0.6113720720053347  0.8286690090282771  1.0000
  H   H13       1.0  0.8613708173013036  0.4959371149207674  0.8381430403005699  1.0000
  H   H14       1.0  0.875514650011607  0.32849476455265614  0.8730182818398645  1.0000
  H   H15       1.0  0.8854298338797766  0.1026691921106025  0.9842057912479746  1.0000
  H   H16       1.0  0.8274333479250262  0.3566968734414974  0.16216370018143433  1.0000
  H   H17       1.0  0.8120170793671413  0.5238658788437764  0.1268539347671614  1.0000
  H   H18       1.0  0.8798791140426357  0.6633622311190976  0.08215474367756441  1.0000
  C   C27       1.0  0.8477291428816663  0.06898048938763512  0.73641479896477  1.0000
  C   C28       1.0  0.8864378263783502  0.1238559724556967  0.6689353913590816  1.0000
  C   C29       1.0  0.8876032136852126  0.10095875087513996  0.5764296095907167  1.0000
  C   C30       1.0  0.8501347233031245  0.022673413265321685  0.5493777616962143  1.0000
  C   C31       1.0  0.8114815598766982  0.9678114459847497  0.6169501225007268  1.0000
  C   C32       1.0  0.810269291504507  0.9907502595383001  0.709445105032982  1.0000
  C   C33       1.0  0.8513929949093484  0.9982999409539614  0.45107950459547186  1.0000
  C   C34       1.0  0.8477290883099673  0.0684039663028899  0.3770763223739532  1.0000
  C   C35       1.0  0.8489513339820862  0.045773348372890384  0.2837923279816965  1.0000
  C   C36       1.0  0.8539086739148117  0.9518453103516176  0.2651513571102593  1.0000
  C   C37       1.0  0.8575286202914423  0.8819730955359224  0.3382088609990441  1.0000
  C   C38       1.0  0.8562661215988615  0.9048191327197763  0.43058884988287316  1.0000
  H   H19       1.0  0.8065329948931083  0.05393316602889575  0.968052681071869  1.0000
  H   H20       1.0  0.9160250153585625  0.1844405747502722  0.687607377682597  1.0000
  H   H21       1.0  0.9186164273153005  0.1438662536297617  0.526266542336443  1.0000
  H   H22       1.0  0.7813860101074258  0.9077575393011998  0.5980298459583281  1.0000
  H   H23       1.0  0.779804539747177  0.9472362620940641  0.759738495376572  1.0000
  H   H24       1.0  0.8429677888726484  0.14049279016135952  0.3922299974304668  1.0000
  H   H25       1.0  0.8431932979635617  0.14649398220013057  0.06039568236005932  1.0000
  H   H26       1.0  0.8550017303024847  0.9322402403701477  0.19413079588699245  1.0000
  H   H27       1.0  0.8615233597891628  0.8098003043028498  0.3231605208352251  1.0000
  H   H28       1.0  0.8600359568757167  0.849483547774422  0.48601254134194977  1.0000
  Zn  Zn1       1.0  0.7721833804088284  0.05737796193613986  0.010104955790865016  1.0000
  Zn  Zn2       1.0  0.9244904504875325  0.05737546477399458  0.010101707637638955  1.0000
  C   C39       1.0  0.8486602528131332  0.04646965209754472  0.180187453358423  1.0000
  C   C40       1.0  0.8480152600114761  0.06828493952521161  0.8400193454672751  1.0000
  C   C41       1.0  0.8510114161847395  0.2267222048535369  0.012752368237470618  1.0000
  C   C42       1.0  0.845664027129429  0.8880312717082968  0.007454438422623057  1.0000
  O   O1        1.0  0.9059109587848455  0.06804651763572941  0.87478859306989  1.0000
  O   O2        1.0  0.9063620844024421  0.046705491242821306  0.14541544591127165  1.0000
  O   O3        1.0  0.9082599015552447  0.1922616661239238  0.010210466285507041  1.0000
  O   O4        1.0  0.9040130896090122  0.9224903523448723  0.009993503065211082  1.0000
  O   O5        1.0  0.7926606893124258  0.1922630743673306  0.010213160359537232  1.0000
  O   O6        1.0  0.7907628896951411  0.04670801454921936  0.14541813214714971  1.0000
  O   O7        1.0  0.7903117611098674  0.06804905616860686  0.8747901575552031  1.0000
  O   O8        1.0  0.7884138919821418  0.9224928812895726  0.009995137177211571  1.0000
