data_image0
_chemical_formula_structural       NC12NC2H8C13OH12C15H12Zn2C4O8
_chemical_formula_sum              "N2 C46 H32 O9 Zn2"
_cell_length_a       19.240039667572717
_cell_length_b       10.299150109392551
_cell_length_c       10.299157797200024
_cell_angle_alpha    85.5240492146119
_cell_angle_beta     90.02248165465589
_cell_angle_gamma    89.97992514300192

_space_group_name_H-M_alt    "P 1"
_space_group_IT_number       1

loop_
  _space_group_symop_operation_xyz
  'x, y, z'

loop_
  _atom_site_type_symbol
  _atom_site_label
  _atom_site_symmetry_multiplicity
  _atom_site_fract_x
  _atom_site_fract_y
  _atom_site_fract_z
  _atom_site_occupancy
  N   N1        1.0  0.6539094489474475  0.4217999709643277  0.5669028642124881  1.0000
  C   C1        1.0  0.5937610800971932  0.4218000549758818  0.566902782243349  1.0000
  C   C2        1.0  0.5189430429051738  0.4218001723104864  0.5669026448923251  1.0000
  C   C3        1.0  0.48250315313467257  0.3572999252456064  0.6703417675180265  1.0000
  C   C4        1.0  0.40983244402311303  0.3571890101791311  0.6704283508847609  1.0000
  C   C5        1.0  0.37261080790263523  0.42180026494866346  0.5669024171669369  1.0000
  C   C6        1.0  0.4097648501751616  0.486411706663408  0.46337667794093135  1.0000
  C   C7        1.0  0.4824355776972515  0.48630055604334005  0.46346338389183184  1.0000
  C   C8        1.0  0.2954057174577198  0.4218001863087184  0.5669023217710787  1.0000
  C   C9        1.0  0.25824795768211395  0.3085182775160374  0.6088120496270979  1.0000
  C   C10       1.0  0.18557723005120358  0.3086252126229596  0.6087206842692993  1.0000
  C   C11       1.0  0.1490734305715581  0.4218000571079506  0.5669023827266286  1.0000
  C   C12       1.0  0.0742553934901943  0.42179994328424875  0.5669026314389989  1.0000
  N   N2        1.0  0.014107076689546296  0.4217999023972892  0.5669028398840132  1.0000
  C   C13       1.0  0.18551714192318447  0.5349749774418774  0.5250840282656033  1.0000
  C   C14       1.0  0.25818779882632886  0.5350820927310592  0.5249925002454539  1.0000
  H   H1        1.0  0.5102443487651658  0.30736223548812563  0.7511039599444422  1.0000
  H   H2        1.0  0.3827655515595203  0.30804914707141673  0.7523058601387057  1.0000
  H   H3        1.0  0.38264521183486616  0.535551596840393  0.3814991178267917  1.0000
  H   H4        1.0  0.5101241536066009  0.5362381454506735  0.3827014673096909  1.0000
  H   H5        1.0  0.2853645097813952  0.2193467695545595  0.6400102407758883  1.0000
  H   H6        1.0  0.1578857133125157  0.22035265819091635  0.6409516146847745  1.0000
  H   H7        1.0  0.15777883522174357  0.6232475073309025  0.4928531124093365  1.0000
  H   H8        1.0  0.2852577255199943  0.6242536798884065  0.4937942642969472  1.0000
  C   C15       1.0  0.8340771370154839  0.04040026149612075  0.5670469693616231  1.0000
  C   C16       1.0  0.8328258099224239  0.028556336172838925  0.7038654940023692  1.0000
  C   C17       1.0  0.83213082998075  0.9054166912688899  0.7729716806605955  1.0000
  C   C18       1.0  0.8326917309832595  0.7933010970075545  0.7035020783326155  1.0000
  C   C19       1.0  0.8339460669131671  0.8031895910436504  0.5667699575854375  1.0000
  C   C20       1.0  0.8346333512426696  0.9271993562524369  0.499341455024969  1.0000
  C   C21       1.0  0.83080098883646  0.8938689377728122  0.9176200391321916  1.0000
  C   C22       1.0  0.788078098626444  0.8009689412860522  0.9856453329812221  1.0000
  C   C23       1.0  0.7868036930107062  0.7901839260916299  0.12175929374425165  1.0000
  C   C24       1.0  0.8286849995745383  0.8711395544435324  0.19230859855455307  1.0000
  C   C25       1.0  0.8707430800972717  0.9649929989291257  0.12492591303293599  1.0000
  C   C26       1.0  0.8720336190852183  0.9759538112369441  0.9888116635374297  1.0000
  C   C27       1.0  0.8258541358455893  0.861904661084235  0.33840319393849416  1.0000
  O   O1        1.0  0.7739153428591297  0.9450683862774514  0.37864615231603715  1.0000
  H   H9        1.0  0.8359875324153311  0.27004906158347386  0.3087955926970303  1.0000
  H   H10       1.0  0.8314252471737756  0.11531298592933072  0.7568770920683997  1.0000
  H   H11       1.0  0.8330994391642339  0.6981618229027634  0.756338603460204  1.0000
  H   H12       1.0  0.8355988914044044  0.9355428561578125  0.39387587894380216  1.0000
  H   H13       1.0  0.834381748466853  0.4795175846664266  0.5141779884941193  1.0000
  H   H14       1.0  0.7548286331284042  0.7379769225772347  0.9335336758126598  1.0000
  H   H15       1.0  0.753004831383204  0.718838245545813  0.17213773144220945  1.0000
  H   H16       1.0  0.9027124743612643  0.02953775004339135  0.17778381868978288  1.0000
  H   H17       1.0  0.9058559381241575  0.04774466758059371  0.9392399150605679  1.0000
  H   H18       1.0  0.8769865557402313  0.8897210279494014  0.3785754800417094  1.0000
  H   H19       1.0  0.8145672573444177  0.759871306354285  0.3762179323694784  1.0000
  H   H20       1.0  0.774193183869784  0.9353603266681386  0.4752783387651932  1.0000
  C   C28       1.0  0.833931000318094  0.4219012091258899  0.18551638647823787  1.0000
  C   C29       1.0  0.7615418154308159  0.40392040848404775  0.18569808959603207  1.0000
  C   C30       1.0  0.7249871977206348  0.39469461904667297  0.068647936089125  1.0000
  C   C31       1.0  0.7617483571419036  0.4037116599268245  0.9504308707471533  1.0000
  C   C32       1.0  0.8340921781616697  0.4216886655517379  0.9483004857879508  1.0000
  C   C33       1.0  0.86976105924085  0.4306727035823748  0.06637357138897215  1.0000
  C   C34       1.0  0.6484556172190122  0.37569024254299915  0.06988633347092721  1.0000
  C   C35       1.0  0.6171971838904456  0.28870425300418634  0.9888108881644316  1.0000
  C   C36       1.0  0.5451777442468525  0.2709133948095004  0.9900084973054216  1.0000
  C   C37       1.0  0.5031341138327512  0.33909936645928784  0.0728138237138698  1.0000
  C   C38       1.0  0.5340204447056274  0.4269309708919156  0.15291224665240755  1.0000
  C   C39       1.0  0.6060391828588564  0.4447260277793945  0.15186258671393202  1.0000
  C   C40       1.0  0.4255484087600341  0.3222828708872989  0.07175698577629674  1.0000
  C   C41       1.0  0.3942746301302696  0.4160578218583797  0.9743120280755666  1.0000
  C   C42       1.0  0.3685722387227792  0.49316890059483676  0.8941853268745326  1.0000
  H   H21       1.0  0.9706172234830162  0.455044258475823  0.39252838101718224  1.0000
  H   H22       1.0  0.7335876224149459  0.395294862232062  0.27723896045518504  1.0000
  H   H23       1.0  0.7336935643294177  0.3984732118083171  0.859800473285845  1.0000
  H   H24       1.0  0.9255620385199316  0.4445351305473227  0.06544607617836729  1.0000
  H   H25       1.0  0.8619208975467967  0.4285617843021554  0.6200087190081662  1.0000
  H   H26       1.0  0.6485302261450852  0.23333421449921765  0.9254588992797492  1.0000
  H   H27       1.0  0.5221784184579552  0.2037523190439483  0.9264737612602264  1.0000
  H   H28       1.0  0.5022815735313122  0.48199180610189446  0.2159193486270836  1.0000
  H   H29       1.0  0.6284712622724834  0.5139945001803801  0.21375531659046376  1.0000
  H   H30       1.0  0.4116943765088146  0.22203464706852086  0.048348142305299595  1.0000
  H   H31       1.0  0.4034216854730392  0.3377290456077877  0.16897269714635677  1.0000
  H   H32       1.0  0.3460272170062809  0.5608698044565406  0.8238413951314606  1.0000
  Zn  Zn1       1.0  0.7578547149667872  0.42179648160902883  0.5669103473315855  1.0000
  Zn  Zn2       1.0  0.9101618335017659  0.42179279446468354  0.5669059601558577  1.0000
  C   C43       1.0  0.8340610696925097  0.4165547658037042  0.8041198627629318  1.0000
  C   C44       1.0  0.8339571417103933  0.4270361489460033  0.3296965715556206  1.0000
  C   C45       1.0  0.833966170164498  0.6590076515518295  0.5616468145422719  1.0000
  C   C46       1.0  0.8340519895493943  0.18458170275139207  0.5721696895873365  1.0000
  O   O2        1.0  0.8917656737028866  0.42875241620734084  0.3780830959174051  1.0000
  O   O3        1.0  0.8918501166105836  0.41483472038774766  0.7557296351234035  1.0000
  O   O4        1.0  0.8917727051585642  0.6106184915072057  0.5599309326801505  1.0000
  O   O5        1.0  0.8918430331606272  0.23296865440724296  0.5738817009782016  1.0000
  O   O6        1.0  0.7761734633329798  0.610620621669144  0.5599346065039066  1.0000
  O   O7        1.0  0.7762508744990636  0.41483841099884416  0.7557332391307687  1.0000
  O   O8        1.0  0.7761664313153713  0.42875606199386546  0.3780851384457362  1.0000
  O   O9        1.0  0.7762437907924444  0.2329722908770806  0.5738838408836544  1.0000
