data_image0
_chemical_formula_structural       NC11NC3H8C12NH11C13OH12Zn2C4O8
_chemical_formula_sum              "N3 C43 H31 O9 Zn2"
_cell_length_a       17.807433833752565
_cell_length_b       10.299770795358612
_cell_length_c       10.299153481560891
_cell_angle_alpha    85.5776922204699
_cell_angle_beta     88.54091418840825
_cell_angle_gamma    90.70213480944163

_space_group_name_H-M_alt    "P 1"
_space_group_IT_number       1

loop_
  _space_group_symop_operation_xyz
  'x, y, z'

loop_
  _atom_site_type_symbol
  _atom_site_label
  _atom_site_symmetry_multiplicity
  _atom_site_fract_x
  _atom_site_fract_y
  _atom_site_fract_z
  _atom_site_occupancy
  N   N1        1.0  0.707419888120618  0.4379085155613524  0.5345415657555537  1.0000
  C   C1        1.0  0.6566055677168918  0.4032076140496803  0.6011064845081815  1.0000
  C   C2        1.0  0.5933874265717681  0.3600425517444764  0.6839047489524333  1.0000
  C   C3        1.0  0.6051241350597146  0.296539949201652  0.8066278651918513  1.0000
  C   C4        1.0  0.543813297458226  0.2550537761692788  0.8871420716000419  1.0000
  C   C5        1.0  0.47061145712906916  0.2767571857451278  0.8455739803940986  1.0000
  C   C6        1.0  0.4578979044040542  0.34041416112120904  0.7223906564909752  1.0000
  C   C7        1.0  0.3801276081453422  0.3634466111142416  0.6780418174910308  1.0000
  C   C8        1.0  0.36131890820448753  0.34652403771882095  0.5484635286280848  1.0000
  C   C9        1.0  0.2880871109130866  0.3681887021675288  0.5068513693631715  1.0000
  C   C10       1.0  0.23272085676465742  0.4070941490617124  0.5939972024136129  1.0000
  C   C11       1.0  0.1573522235376992  0.42941675012299124  0.5510237007663177  1.0000
  N   N2        1.0  0.0967612161023807  0.44736246296476856  0.516476133047651  1.0000
  C   C12       1.0  0.25083794025029993  0.4242270932067725  0.7230443423252222  1.0000
  C   C13       1.0  0.3240170131518347  0.40252759797666954  0.7649119325188436  1.0000
  C   C14       1.0  0.5200660558751433  0.38189577559754145  0.6418928662085062  1.0000
  H   H1        1.0  0.6615925039988263  0.2791384306775839  0.8399946903694764  1.0000
  H   H2        1.0  0.55301871362908  0.2056382942559709  0.9818818616553056  1.0000
  H   H3        1.0  0.42397683785678525  0.24222579832362331  0.9090156169814666  1.0000
  H   H4        1.0  0.4029798813687487  0.31485552775629855  0.4797500139187125  1.0000
  H   H5        1.0  0.2746260824235883  0.3542691225180792  0.40681852037547905  1.0000
  H   H6        1.0  0.2084598771831395  0.45467237742219435  0.7912431934441737  1.0000
  H   H7        1.0  0.3369498542625497  0.41799251461742637  0.8647618988800908  1.0000
  H   H8        1.0  0.5115594006515892  0.43267370002361827  0.5473872770827835  1.0000
  C   C15       1.0  0.9020260709548424  0.06126539791463447  0.5255514105516497  1.0000
  C   C16       1.0  0.8801989928811558  0.06986141603292874  0.3951526432158319  1.0000
  C   C17       1.0  0.869207941891292  0.9570825883884648  0.3290402672339636  1.0000
  C   C18       1.0  0.8803364876763347  0.8345831155538256  0.39507770999930036  1.0000
  C   C19       1.0  0.9021622063192506  0.823995772819001  0.5254770909649982  1.0000
  C   C20       1.0  0.912885138930718  0.937888444041312  0.5899835802742679  1.0000
  C   C21       1.0  0.8461164890501098  0.9672300897948884  0.19108592461624818  1.0000
  C   C22       1.0  0.7914057678284785  0.0570625717337414  0.14843695480508878  1.0000
  C   C23       1.0  0.7697043048610106  0.06648495653896713  0.018591771986721906  1.0000
  C   C24       1.0  0.8023029540442499  0.9864835535053482  0.9293344543593148  1.0000
  C   C25       1.0  0.8568332489902863  0.8968444383558679  0.9711012294137165  1.0000
  C   C26       1.0  0.8785948882903378  0.8871674777409431  0.10091364676727443  1.0000
  N   N3        1.0  0.7800731621416596  0.9962520459523546  0.7965292546445051  1.0000
  H   H9        1.0  0.9103112508010136  0.3854414060260418  0.5752580012809354  1.0000
  H   H10       1.0  0.8726905530491914  0.1645651603913274  0.34414834738886024  1.0000
  H   H11       1.0  0.870942409840977  0.7473071784062806  0.34510101937544246  1.0000
  H   H12       1.0  0.9297231699392433  0.9304889554569615  0.6905804818565755  1.0000
  H   H13       1.0  0.9105114767775889  0.4925098511870236  0.5751490861887829  1.0000
  H   H14       1.0  0.7646927982496046  0.11884982970417957  0.21588024498823  1.0000
  H   H15       1.0  0.7273433832886392  0.13592518573462928  0.9876454672454341  1.0000
  H   H16       1.0  0.8826170106904958  0.834688804389305  0.9030117754854756  1.0000
  H   H17       1.0  0.9215314927474695  0.8182509594195216  0.1303936846495335  1.0000
  H   H18       1.0  0.8040538782884878  0.9370142481522729  0.7292763536868394  1.0000
  H   H19       1.0  0.7394704770684941  0.06279456582295116  0.764478190754208  1.0000
  C   C27       1.0  0.9020295943639611  0.4424815821284873  0.14414473219712098  1.0000
  C   C28       1.0  0.8243540944839042  0.41621532581068116  0.14842253842088748  1.0000
  C   C29       1.0  0.7851072774082974  0.40306385732846306  0.03341757993711303  1.0000
  C   C30       1.0  0.8245313977930896  0.4165369290942338  0.9131063156518713  1.0000
  C   C31       1.0  0.9021587047090912  0.4427795810552684  0.9068838002105225  1.0000
  C   C32       1.0  0.940454532303909  0.45559506893397544  0.02295752377177718  1.0000
  C   C33       1.0  0.7029851202956442  0.37530703814581745  0.03891334756954889  1.0000
  C   C34       1.0  0.6554830696831655  0.43939017129164337  0.9484440077039  1.0000
  C   C35       1.0  0.5782012798438628  0.4133133088754461  0.9536938000444253  1.0000
  C   C36       1.0  0.5471206255230886  0.3218466385909038  0.048604035078757546  1.0000
  C   C37       1.0  0.5941188885839142  0.25884754914632335  0.14001518336233043  1.0000
  C   C38       1.0  0.6714042370516157  0.28489485067141573  0.13494337820257463  1.0000
  C   C39       1.0  0.46386352432777267  0.2965383880084189  0.05638565256941508  1.0000
  O   O1        1.0  0.4301362141630614  0.3833072213576358  0.13744997640856504  1.0000
  H   H20       1.0  0.04855055519283491  0.4928877590792728  0.3433028822814157  1.0000
  H   H21       1.0  0.7940647589425888  0.4077161607582107  0.2413042398518186  1.0000
  H   H22       1.0  0.7947226201671139  0.4047608790931109  0.8243113126012132  1.0000
  H   H23       1.0  0.0003303911194390004  0.4758404473926197  0.018873750645000745  1.0000
  H   H24       1.0  0.9320069736477691  0.45295910275718315  0.5770088027643201  1.0000
  H   H25       1.0  0.6779527815255889  0.5111917729171531  0.8748373947378805  1.0000
  H   H26       1.0  0.5425664888794854  0.4647281805956001  0.8838617663877559  1.0000
  H   H27       1.0  0.570956833085438  0.18923552585705128  0.21509360503305208  1.0000
  H   H28       1.0  0.7065874879447082  0.23326851504952462  0.2053195947082449  1.0000
  H   H29       1.0  0.45192190763316187  0.19446131316325133  0.09576770203801854  1.0000
  H   H30       1.0  0.44008674633276673  0.30932628308334637  0.9573568459423315  1.0000
  H   H31       1.0  0.3755206437817895  0.3626275094678024  0.13928248764877704  1.0000
  Zn  Zn1       1.0  0.8197753855859214  0.4406332488393443  0.5293357569803931  1.0000
  Zn  Zn2       1.0  0.9844057037726746  0.4446271141957118  0.5216925288878902  1.0000
  C   C40       1.0  0.9021316863084405  0.4375495158833129  0.7627103790353249  1.0000
  C   C41       1.0  0.9020512011221653  0.4477125294394268  0.2883179506762421  1.0000
  C   C42       1.0  0.9021317354604338  0.6798213736750307  0.5203161767632032  1.0000
  C   C43       1.0  0.9020510955265691  0.20543911000419834  0.5307122249471448  1.0000
  O   O2        1.0  0.964534799310068  0.45097806847067345  0.3338032351600755  1.0000
  O   O3        1.0  0.9645986900998764  0.43731424837399596  0.7114236875302937  1.0000
  O   O4        1.0  0.9645978878082334  0.632951817582518  0.5156886931864391  1.0000
  O   O5        1.0  0.9645355454097126  0.2553405071515247  0.5295381347363135  1.0000
  O   O6        1.0  0.8396454877686346  0.6299198545220326  0.5214901537333969  1.0000
  O   O7        1.0  0.8396462903236324  0.4342838455955221  0.7172250786798984  1.0000
  O   O8        1.0  0.8395823993114435  0.44794761982726383  0.339603064908512  1.0000
  O   O9        1.0  0.8395831454228377  0.25231004925724315  0.5353380618537944  1.0000
