data_image0
_chemical_formula_structural       NC12NC2H8C7OC3FC3H9C7OC3OC4H12Zn2C4O8
_chemical_formula_sum              "N2 C45 H29 O11 F1 Zn2"
_cell_length_a       17.80743265337812
_cell_length_b       10.29937835083307
_cell_length_c       10.299374482448636
_cell_angle_alpha    85.53885586126866
_cell_angle_beta     91.51588487774274
_cell_angle_gamma    89.45609770286683

_space_group_name_H-M_alt    "P 1"
_space_group_IT_number       1

loop_
  _space_group_symop_operation_xyz
  'x, y, z'

loop_
  _atom_site_type_symbol
  _atom_site_label
  _atom_site_symmetry_multiplicity
  _atom_site_fract_x
  _atom_site_fract_y
  _atom_site_fract_z
  _atom_site_occupancy
  N   N1        1.0  0.707959026399222  0.40701458089825165  0.6011473045049435  1.0000
  C   C1        1.0  0.6571573859415272  0.43658811218634463  0.5324442469090538  1.0000
  C   C2        1.0  0.5939551284673467  0.473375437710547  0.4469862916161267  1.0000
  C   C3        1.0  0.6057152073409563  0.527423255709794  0.32035863265095915  1.0000
  C   C4        1.0  0.5444195719551793  0.5627064592452224  0.23729686679293607  1.0000
  C   C5        1.0  0.47120972492999574  0.544205449984571  0.28020281871055475  1.0000
  C   C6        1.0  0.45847276609282117  0.49003873185734287  0.4072986397991197  1.0000
  C   C7        1.0  0.5206257211409671  0.4547587856134058  0.49034389338904316  1.0000
  C   C8        1.0  0.3806939803271259  0.47042298700447205  0.45306505105882083  1.0000
  C   C9        1.0  0.3618916846583883  0.49758537703884415  0.580107697223404  1.0000
  C   C10       1.0  0.2886518931758011  0.47912593470580633  0.6230542076221017  1.0000
  C   C11       1.0  0.2332712311614173  0.43324965600274745  0.5397960802597265  1.0000
  C   C12       1.0  0.15789447951848093  0.41423709136881826  0.5841435999165814  1.0000
  N   N2        1.0  0.09729690904162071  0.39895226810186724  0.6197959549110397  1.0000
  C   C13       1.0  0.2513819055192215  0.4059182402802101  0.4132964300013163  1.0000
  C   C14       1.0  0.3245688889719208  0.42439251890362195  0.37009402780733724  1.0000
  H   H1        1.0  0.6621898389595147  0.5422543523680805  0.28591947802905704  1.0000
  H   H2        1.0  0.5536430769221717  0.604824334061169  0.13951166464831033  1.0000
  H   H3        1.0  0.4245877173551357  0.5738549829221726  0.21460773478031436  1.0000
  H   H4        1.0  0.5121003408360808  0.4112555732717124  0.5880048129310822  1.0000
  H   H5        1.0  0.40356433740264097  0.534753215566975  0.6456771710956556  1.0000
  H   H6        1.0  0.27519610102406095  0.5009531033370346  0.7210616634110689  1.0000
  H   H7        1.0  0.20899255876241613  0.37001765160682365  0.34813976507559263  1.0000
  H   H8        1.0  0.33749592453779115  0.40102968435202424  0.2723900934173007  1.0000
  C   C15       1.0  0.9025523691324857  0.021600016461522868  0.6105320066025992  1.0000
  C   C16       1.0  0.8241729725918724  0.023234622170660968  0.590752413048778  1.0000
  C   C17       1.0  0.7845449166948382  0.9067728818431712  0.5822489546520717  1.0000
  C   C18       1.0  0.8243566664352341  0.7879868137073373  0.5907680871592755  1.0000
  C   C19       1.0  0.902710738493272  0.7843567385155036  0.6104227943734235  1.0000
  C   C20       1.0  0.9413319852222126  0.9016931847356077  0.6205318597037428  1.0000
  C   C21       1.0  0.701874764947753  0.9084596946330571  0.5599942795943547  1.0000
  O   O1        1.0  0.6728694902769852  0.8243861321495581  0.4919416005134507  1.0000
  C   C22       1.0  0.652109366038938  0.005423828823646332  0.6149515630003854  1.0000
  C   C23       1.0  0.5852003859519425  0.04682301965380997  0.5479636176733276  1.0000
  C   C24       1.0  0.5374684815495941  0.13705515547509695  0.599740166140657  1.0000
  F   F1        1.0  0.47337996100155466  0.1770877569121143  0.5339487139658292  1.0000
  C   C25       1.0  0.5557317499836761  0.18594486142778743  0.7192242467058794  1.0000
  C   C26       1.0  0.621561991609325  0.14431536512765072  0.787375128559942  1.0000
  C   C27       1.0  0.6694491608543107  0.054151523551512204  0.7360107435895344  1.0000
  H   H9        1.0  0.05059503710764912  0.22598778804145245  0.6458685741780226  1.0000
  H   H10       1.0  0.7939471382281358  0.11537410926034686  0.5804911991968587  1.0000
  H   H11       1.0  0.7939447452507704  0.6981494601990326  0.5832588836546693  1.0000
  H   H12       1.0  0.0017566753994109363  0.8996290220555011  0.6357797143183023  1.0000
  H   H13       1.0  0.9328816993700819  0.4555891990333438  0.6168805270225295  1.0000
  H   H14       1.0  0.5702492904642124  0.01015320375451711  0.4550858296644029  1.0000
  H   H15       1.0  0.5187614085516125  0.25568825367394776  0.7593339021656124  1.0000
  H   H16       1.0  0.6353516242858661  0.18149634341326676  0.8804108624018494  1.0000
  H   H17       1.0  0.7195059117412816  0.021540117919997645  0.7915624338369748  1.0000
  C   C28       1.0  0.902701173347588  0.40306441656715286  0.22909818267251406  1.0000
  C   C29       1.0  0.9811750362192775  0.4161043278392211  0.2304833251196208  1.0000
  C   C30       1.0  0.02066048834814627  0.42415470476146394  0.11388940877791766  1.0000
  C   C31       1.0  0.9809954523720674  0.4160441732081366  0.9952358823961815  1.0000
  C   C32       1.0  0.9025619385478918  0.40289229955889416  0.9918565677767749  1.0000
  C   C33       1.0  0.8638474459162064  0.3968200035741545  0.10931458115923887  1.0000
  C   C34       1.0  0.10361135420551681  0.43656355896886323  0.11532143517499205  1.0000
  O   O2        1.0  0.14045735759997702  0.3822563486355133  0.031247363001236202  1.0000
  C   C35       1.0  0.14475911018688148  0.5105959148570252  0.21204869689047467  1.0000
  C   C36       1.0  0.21804661016920024  0.472358964628565  0.25372894601511975  1.0000
  C   C37       1.0  0.2581887080768137  0.5417946288540536  0.34384426134438506  1.0000
  O   O3        1.0  0.3308649814739928  0.49839576912378547  0.38262498157028824  1.0000
  C   C38       1.0  0.3779471212888088  0.5592940140706026  0.4732629860261222  1.0000
  C   C39       1.0  0.22462826169762853  0.6518806431199378  0.39213467823484965  1.0000
  C   C40       1.0  0.15221816532300947  0.6914326914094728  0.3499856967811845  1.0000
  C   C41       1.0  0.11250961971532214  0.6217550306388118  0.26013221608788495  1.0000
  H   H18       1.0  0.7547393494496463  0.3764662404978616  0.4339666104456583  1.0000
  H   H19       1.0  0.011772976220533197  0.4185628255434477  0.32253972018957455  1.0000
  H   H20       1.0  0.011420665805685237  0.4212699541894782  0.905298688362037  1.0000
  H   H21       1.0  0.8033498308603629  0.3867663332359405  0.10744302221477575  1.0000
  H   H22       1.0  0.872501900291307  0.3967549357210678  0.663188999774631  1.0000
  H   H23       1.0  0.24408246069982886  0.38750431482031056  0.21711042018703197  1.0000
  H   H24       1.0  0.4320127296962468  0.5048150772332005  0.4858194919495783  1.0000
  H   H25       1.0  0.3508189536062609  0.5580547657086394  0.5691985745361929  1.0000
  H   H26       1.0  0.3895180825059985  0.6610642803594906  0.43614005316597515  1.0000
  H   H27       1.0  0.2540792485257344  0.707710793232802  0.4617276376321988  1.0000
  H   H28       1.0  0.12688796989703044  0.7767617982498385  0.386666878392653  1.0000
  H   H29       1.0  0.05696313557511146  0.6556333725840249  0.22724245454994343  1.0000
  Zn  Zn1       1.0  0.8203135304207323  0.4046845024801646  0.6065363898102115  1.0000
  Zn  Zn2       1.0  0.9849423983928334  0.40127175026987727  0.6144174644598326  1.0000
  C   C42       1.0  0.902585513655873  0.3977510036137557  0.847679597384893  1.0000
  C   C43       1.0  0.9026722132168117  0.4082068505219374  0.37327447018149584  1.0000
  C   C44       1.0  0.9026778926867985  0.6401807078202482  0.6052679369262701  1.0000
  C   C45       1.0  0.9025797776729182  0.16577558710276016  0.6156861974147836  1.0000
  O   O4        1.0  0.9651382901807095  0.40863191070006905  0.424652176904423  1.0000
  O   O5        1.0  0.96506893809489  0.3947347637985232  0.8022830702495319  1.0000
  O   O6        1.0  0.9651426928805331  0.5904998330414888  0.6065338988147573  1.0000
  O   O7        1.0  0.9650644792380888  0.2128668519341896  0.6204012482712922  1.0000
  O   O8        1.0  0.8401913933957253  0.5930894019818722  0.6005526033024964  1.0000
  O   O9        1.0  0.8401176389432985  0.39732589311761063  0.7963017052663507  1.0000
  O   O10       1.0  0.8401869913546929  0.41122299511275967  0.4186692504872558  1.0000
  O   O11       1.0  0.8401131803892983  0.21545792703581432  0.6144184192257751  1.0000
