data_image0
_chemical_formula_structural       NC9NC5H8C12SCH12C13NH12Zn2C4O8
_chemical_formula_sum              "N3 C44 H32 S1 Zn2 O8"
_cell_length_a       17.807436237873137
_cell_length_b       10.299776766347529
_cell_length_c       10.299780419254978
_cell_angle_alpha    85.57449051580878
_cell_angle_beta     89.37921623596309
_cell_angle_gamma    88.37162683502939

_space_group_name_H-M_alt    "P 1"
_space_group_IT_number       1

loop_
  _space_group_symop_operation_xyz
  'x, y, z'

loop_
  _atom_site_type_symbol
  _atom_site_label
  _atom_site_symmetry_multiplicity
  _atom_site_fract_x
  _atom_site_fract_y
  _atom_site_fract_z
  _atom_site_occupancy
  N   N1        1.0  0.7073477084619557  0.3874305223474658  0.5572112941838978  1.0000
  C   C1        1.0  0.6467682077878338  0.35223843934277227  0.5461869887234339  1.0000
  C   C2        1.0  0.5714139671999282  0.3084633636360523  0.5324739497381723  1.0000
  C   C3        1.0  0.5533499862728897  0.23702513386272384  0.4274732408837458  1.0000
  C   C4        1.0  0.48018493854635147  0.19441139427455179  0.41407613591066134  1.0000
  C   C5        1.0  0.42403522781651254  0.2228583486186966  0.5056472809467385  1.0000
  C   C6        1.0  0.3462796102820374  0.17768585301183726  0.4914917018276248  1.0000
  C   C7        1.0  0.2840845595189037  0.259447568039642  0.5174315037321571  1.0000
  C   C8        1.0  0.2107772428401176  0.21663079396181728  0.504048074907778  1.0000
  C   C9        1.0  0.14753155287244704  0.3010839346157943  0.5303518263278324  1.0000
  N   N2        1.0  0.0966950076155859  0.3689784171394351  0.551499315878643  1.0000
  C   C10       1.0  0.1990814834573011  0.09179431996900766  0.46469948962139046  1.0000
  C   C11       1.0  0.2604191681048806  0.010018750815404811  0.43875129800936485  1.0000
  C   C12       1.0  0.3336071534537138  0.05244093986805452  0.4519321868855728  1.0000
  C   C13       1.0  0.4427904917499714  0.2947909921996634  0.6108672226178122  1.0000
  C   C14       1.0  0.5160084672001213  0.33721430328191904  0.6241086781182223  1.0000
  H   H1        1.0  0.5957587556604749  0.21452401228974113  0.3557625210639417  1.0000
  H   H2        1.0  0.4672935468998615  0.14071081727722046  0.33115742289045724  1.0000
  H   H3        1.0  0.2925600083552378  0.3569185950282567  0.546309661924024  1.0000
  H   H4        1.0  0.1426242158593586  0.05775601300984623  0.4541042338935632  1.0000
  H   H5        1.0  0.2512453839300721  0.9133675537009278  0.40867278894195486  1.0000
  H   H6        1.0  0.380262780113243  0.9866918607730503  0.43288301638917054  1.0000
  H   H7        1.0  0.4010985284107487  0.31675335418791106  0.6838723832639988  1.0000
  H   H8        1.0  0.5294281218352705  0.3921352304913713  0.7059858279626177  1.0000
  C   C15       1.0  0.9020957827418487  0.9968358192940727  0.554352640552555  1.0000
  C   C16       1.0  0.9065919245705917  0.9850905739574414  0.6907944842660223  1.0000
  C   C17       1.0  0.9087978232346772  0.8620039728059709  0.7599370719995067  1.0000
  C   C18       1.0  0.9064482687673292  0.7498096090499894  0.6908117814261692  1.0000
  C   C19       1.0  0.9019541335048434  0.7595628116175867  0.55436915892662  1.0000
  C   C20       1.0  0.899802624895693  0.8835137585449175  0.48690336236434084  1.0000
  C   C21       1.0  0.9135459547472499  0.8506431269908188  0.9042772692524801  1.0000
  C   C22       1.0  0.8705392664683703  0.7592369426876884  0.978947587071664  1.0000
  C   C23       1.0  0.8750303773137099  0.74877844306277  0.11478494251342175  1.0000
  C   C24       1.0  0.9223406213233473  0.8294568398614949  0.17776132337969242  1.0000
  C   C25       1.0  0.9655264079603603  0.9202810472520596  0.10446138166853625  1.0000
  C   C26       1.0  0.9611454599278901  0.9310842125093746  0.9686119955401585  1.0000
  S   S1        1.0  0.9281861803586475  0.8155726820235553  0.3520581236843627  1.0000
  C   C27       1.0  0.8526905157628241  0.9352166545943265  0.37269352936216626  1.0000
  H   H9        1.0  0.9004121048461318  0.3287633721494787  0.5023616708847376  1.0000
  H   H10       1.0  0.9073527173066356  0.07189708243830825  0.7437392918972083  1.0000
  H   H11       1.0  0.9091679554325032  0.6546784307991261  0.7435317234027785  1.0000
  H   H12       1.0  0.896334556304555  0.8918062032888368  0.38164427388968436  1.0000
  H   H13       1.0  0.9002041560087533  0.4358272334234348  0.5023838274655583  1.0000
  H   H14       1.0  0.8327268437822747  0.6970546657995099  0.9323902892868323  1.0000
  H   H15       1.0  0.8414342516925098  0.6783204524063635  0.17099682686918793  1.0000
  H   H16       1.0  0.0025390428113836244  0.9825574483882338  0.15261927640658568  1.0000
  H   H17       1.0  0.9956895893285711  0.0011286309916833637  0.913799183128533  1.0000
  H   H18       1.0  0.8677365365398549  0.03082268613463989  0.3235973189643372  1.0000
  H   H19       1.0  0.8439710835004249  0.9463321314922296  0.47809602851025534  1.0000
  H   H20       1.0  0.7998316916131906  0.9021801116569571  0.33134878779636723  1.0000
  C   C28       1.0  0.9020761182750038  0.37811202100804336  0.17300598221603303  1.0000
  C   C29       1.0  0.9564506581290013  0.4745632515103965  0.16354858093181357  1.0000
  C   C30       1.0  0.9839447233968635  0.5235338840656536  0.041613372574365266  1.0000
  C   C31       1.0  0.9563474446066649  0.47474037397173235  0.9282499225198837  1.0000
  C   C32       1.0  0.9019737977218957  0.3782865818290888  0.9357157573037228  1.0000
  C   C33       1.0  0.8751405449133514  0.33051604317915273  0.058543716655254485  1.0000
  C   C34       1.0  0.0414708512878752  0.6255683087836938  0.03269979338453277  1.0000
  C   C35       1.0  0.03637285003675172  0.7303865297468666  0.9369502637041616  1.0000
  C   C36       1.0  0.09054212257582028  0.8263349515522247  0.9286459155696827  1.0000
  C   C37       1.0  0.15042890487038083  0.8197937190596446  0.016441745968074573  1.0000
  C   C38       1.0  0.15624715149152313  0.7146625293801536  0.11112393146818754  1.0000
  C   C39       1.0  0.10209341710964057  0.6186886724520937  0.11960082185332244  1.0000
  C   C40       1.0  0.2097347873296389  0.921199798244051  0.00511822788015781  1.0000
  N   N3        1.0  0.26733281555638877  0.8858184942527353  0.9113947368677202  1.0000
  H   H21       1.0  0.9768080039127468  0.5131039326025797  0.25112055450230186  1.0000
  H   H22       1.0  0.9781193108576128  0.5108631718884642  0.8341237220369808  1.0000
  H   H23       1.0  0.8331933138271065  0.2561072523685046  0.0650711033414948  1.0000
  H   H24       1.0  0.8812406864228948  0.34155693582957736  0.611105482723227  1.0000
  H   H25       1.0  0.9900386300567591  0.7389287662755829  0.8693284276565758  1.0000
  H   H26       1.0  0.08568866839090727  0.9059642617986137  0.8538793583567066  1.0000
  H   H27       1.0  0.2028602184141257  0.7067593303072934  0.17821516462573173  1.0000
  H   H28       1.0  0.10825643951787821  0.5379801510550526  0.19288226019447685  1.0000
  H   H29       1.0  0.183758444114982  0.017456415007307328  0.9722205772922612  1.0000
  H   H30       1.0  0.2356408307876554  0.9312822750116111  0.10159507001628308  1.0000
  H   H31       1.0  0.30522936266814527  0.9617131657707105  0.9009007293534497  1.0000
  H   H32       1.0  0.297487810460838  0.8040868288937223  0.9517232984038726  1.0000
  Zn  Zn1       1.0  0.8197049270760427  0.38210217980887906  0.5555704510720441  1.0000
  Zn  Zn2       1.0  0.984337771338058  0.3742961759596972  0.5531508349813199  1.0000
  C   C41       1.0  0.9019924025206016  0.37308002247579836  0.7915472215339686  1.0000
  C   C42       1.0  0.902052093357568  0.3833198866984029  0.31717416559447265  1.0000
  C   C43       1.0  0.9019777155980306  0.6153901799810959  0.5491910939734702  1.0000
  C   C44       1.0  0.9020667243829863  0.14100817157174883  0.5595303631829569  1.0000
  O   O1        1.0  0.9645213378343531  0.38209969048396014  0.36464009310986123  1.0000
  O   O2        1.0  0.964475677726119  0.36837466258035345  0.7422444875383329  1.0000
  O   O3        1.0  0.9644629754452312  0.5640432194389156  0.5465402122310072  1.0000
  O   O4        1.0  0.9645339839485434  0.1864311455569807  0.560344271871948  1.0000
  O   O5        1.0  0.8395086582844481  0.5699672128768138  0.5483770150002816  1.0000
  O   O6        1.0  0.8395213602813792  0.37430021630482646  0.7440812210984868  1.0000
  O   O7        1.0  0.8395670206574967  0.38802519859273016  0.3664752653249683  1.0000
  O   O8        1.0  0.8395796667572748  0.19235664439938643  0.5621795414511599  1.0000
