data_image0
_chemical_formula_structural       NC6NCNCH5C6NH5C6H4Zn2C4O8
_chemical_formula_sum              "N4 C24 H14 Zn2 O8"
_cell_length_a       14.933214217465613
_cell_length_b       9.274771166103582
_cell_length_c       10.681121600428288
_cell_angle_alpha    85.45578074471726
_cell_angle_beta     89.96595612778619
_cell_angle_gamma    90.63112361825276

_space_group_name_H-M_alt    "P 1"
_space_group_IT_number       1

loop_
  _space_group_symop_operation_xyz
  'x, y, z'

loop_
  _atom_site_type_symbol
  _atom_site_label
  _atom_site_symmetry_multiplicity
  _atom_site_fract_x
  _atom_site_fract_y
  _atom_site_fract_z
  _atom_site_occupancy
  N   N1        1.0  0.8534574394742855  0.5795473548118169  0.6153883672716931  1.0000
  C   C1        1.0  0.7759736309849531  0.580544341424798  0.6145262601793029  1.0000
  C   C2        1.0  0.6795832336550405  0.581787329055788  0.613451319392073  1.0000
  C   C3        1.0  0.6311389678242378  0.48599507743272036  0.6963008589195248  1.0000
  C   C4        1.0  0.5376125524546945  0.4870782813617178  0.6953640348230803  1.0000
  C   C5        1.0  0.491627693798324  0.5838988527448712  0.6116251460240032  1.0000
  C   C6        1.0  0.3950385166285884  0.5817894863884581  0.6134495168797791  1.0000
  N   N2        1.0  0.31754148807543  0.5800298088280729  0.6149711210105127  1.0000
  C   C7        1.0  0.5401785528599874  0.6809006992953557  0.5277295539531202  1.0000
  N   N3        1.0  0.4955180775392666  0.7815344672559756  0.44069288233949905  1.0000
  C   C8        1.0  0.6341790724955709  0.6788510675900643  0.5295023562151115  1.0000
  H   H1        1.0  0.6656478265070511  0.4104693292820339  0.7616221117191323  1.0000
  H   H2        1.0  0.501044516558882  0.41218786757320114  0.7601356837710002  1.0000
  H   H3        1.0  0.532333595974012  0.8526117047279711  0.3792190189963609  1.0000
  H   H4        1.0  0.4258112511928712  0.7868890419724879  0.43606183859353687  1.0000
  H   H5        1.0  0.6718666687626839  0.7529879605967791  0.4653822754217185  1.0000
  C   C9        1.0  0.08275449624117881  0.1561891579778574  0.615864811414091  1.0000
  C   C10       1.0  0.06214822820302124  0.23947648127824442  0.5038955227652286  1.0000
  C   C11       1.0  0.04990280081763768  0.17441435853416332  0.39120820348997  1.0000
  C   C12       1.0  0.05831058803839696  0.024687488230973775  0.3896738461392313  1.0000
  C   C13       1.0  0.07726094534231699  0.940079015405374  0.5001062383325885  1.0000
  C   C14       1.0  0.08825293193280914  0.0033769123159441768  0.6145055732457565  1.0000
  N   N4        1.0  0.02984671599609645  0.260801751646502  0.27800760925436796  1.0000
  H   H6        1.0  0.18353414483736386  0.2359542537523625  0.8898428432431692  1.0000
  H   H7        1.0  0.04931279801907709  0.9731909062491185  0.30297194198038513  1.0000
  H   H8        1.0  0.15250258423830432  0.7063774007755901  0.8009115219517422  1.0000
  H   H9        1.0  0.023676907784744534  0.37286923931578  0.27797248163236055  1.0000
  H   H10       1.0  0.02093322829415678  0.21332246517088937  0.19336509481627417  1.0000
  C   C15       1.0  0.08550372696996039  0.5797829969869004  0.24743995120844464  1.0000
  C   C16       1.0  0.02088787017876248  0.49949030576809056  0.18620379935416254  1.0000
  C   C17       1.0  0.02088781486944513  0.49949039820377455  0.055321659303130044  1.0000
  C   C18       1.0  0.08550365703191322  0.5797830676244802  0.9829303868346239  1.0000
  C   C19       1.0  0.150066180028944  0.6600092204697896  0.044166112567281195  1.0000
  C   C20       1.0  0.15006616842674728  0.6600091980900403  0.17505841127651456  1.0000
  H   H11       1.0  0.9702389111733359  0.43655309959189365  0.2393866932310271  1.0000
  H   H12       1.0  0.9702388929118735  0.43655316747296524  0.010882663913365008  1.0000
  H   H13       1.0  0.2007217536327375  0.7229547200874197  0.9910275348649038  1.0000
  H   H14       1.0  0.2007217081864736  0.7229546694731206  0.21945190247100288  1.0000
  Zn  Zn1       1.0  0.9873820466183971  0.579682710052889  0.6152752044989294  1.0000
  Zn  Zn2       1.0  0.1836167894641837  0.5798826197100666  0.6150945866785251  1.0000
  C   C21       1.0  0.08546439958716046  0.5740364455630695  0.8439161836157575  1.0000
  C   C22       1.0  0.08553659118533385  0.5855307064533068  0.3864537255821079  1.0000
  C   C23       1.0  0.08720899059135756  0.8432403573720574  0.6097721823712738  1.0000
  C   C24       1.0  0.08379192197187946  0.31632506149505524  0.6205977964340648  1.0000
  O   O1        1.0  0.16001764209653568  0.5875292617979064  0.4330394847438479  1.0000
  O   O2        1.0  0.15992097087034818  0.5721885288116069  0.7971929809624272  1.0000
  O   O3        1.0  0.16132874627747307  0.7895740911228737  0.6081200418673822  1.0000
  O   O4        1.0  0.15860979979476308  0.3701437097373843  0.6221123299878281  1.0000
  O   O5        1.0  0.012388969322540527  0.7894216199589221  0.6082574612446727  1.0000
  O   O6        1.0  0.010981205159396051  0.5720377907302701  0.7973303307872914  1.0000
  O   O7        1.0  0.01107787611897626  0.5873784734492148  0.4331753290267242  1.0000
  O   O8        1.0  0.009670033746574713  0.3699929110712985  0.622248268176816  1.0000
