data_image0
_chemical_formula_structural       NC12NC2H8C6SCNH5C6NCOCH9Zn2C4O8
_chemical_formula_sum              "N4 C33 H22 S1 O9 Zn2"
_cell_length_a       17.80743265337812
_cell_length_b       9.27526961838325
_cell_length_c       10.300272075376752
_cell_angle_alpha    85.79867617485392
_cell_angle_beta     91.53227337963533
_cell_angle_gamma    88.87871087483882

_space_group_name_H-M_alt    "P 1"
_space_group_IT_number       1

loop_
  _space_group_symop_operation_xyz
  'x, y, z'

loop_
  _atom_site_type_symbol
  _atom_site_label
  _atom_site_symmetry_multiplicity
  _atom_site_fract_x
  _atom_site_fract_y
  _atom_site_fract_z
  _atom_site_occupancy
  N   N1        1.0  0.6996240019829852  0.562261373349682  0.6074154840018686  1.0000
  C   C1        1.0  0.6486406078987959  0.595103210479303  0.5388469533049176  1.0000
  C   C2        1.0  0.5852122627218987  0.6359560706646248  0.4535563394472686  1.0000
  C   C3        1.0  0.5966399950888742  0.6959771016463622  0.3271746138310416  1.0000
  C   C4        1.0  0.5351273327005341  0.7351597585760421  0.24427342494072612  1.0000
  C   C5        1.0  0.4620311771683485  0.7146141282681935  0.2870952229512378  1.0000
  C   C6        1.0  0.4496273276284789  0.6544610314222721  0.4139445562577247  1.0000
  C   C7        1.0  0.5119972881667336  0.6152819929525093  0.49682924832937686  1.0000
  C   C8        1.0  0.37196912953898287  0.6326774349748439  0.4596217236520821  1.0000
  C   C9        1.0  0.3530316502649957  0.6628163631498167  0.586774486877353  1.0000
  C   C10       1.0  0.27990531771035604  0.6423168752740431  0.6296370227589052  1.0000
  C   C11       1.0  0.2247749032393578  0.5913958600091416  0.5461836289151123  1.0000
  C   C12       1.0  0.1495150292914555  0.5702821063236494  0.5904446497564573  1.0000
  N   N2        1.0  0.089011420609352  0.5533080683847462  0.6260274655255835  1.0000
  C   C13       1.0  0.24302182510677134  0.5610692063428817  0.41957308208877214  1.0000
  C   C14       1.0  0.3160952214752658  0.5815851995990176  0.37645473755381054  1.0000
  H   H1        1.0  0.6530234800087511  0.7124472484040408  0.2928029232298628  1.0000
  H   H2        1.0  0.544091998763961  0.7819322638797483  0.14667980836268257  1.0000
  H   H3        1.0  0.4152274973482679  0.7475399292808508  0.22163477945093638  1.0000
  H   H4        1.0  0.5037387026323474  0.5669714949353386  0.5942925168465101  1.0000
  H   H5        1.0  0.3945012439321426  0.7040715745318809  0.6525022940759762  1.0000
  H   H6        1.0  0.2663402130773255  0.6665364752044325  0.7277332550126259  1.0000
  H   H7        1.0  0.20082830967597803  0.5212208477074196  0.35426361112315097  1.0000
  H   H8        1.0  0.3291404624012493  0.5556606546287637  0.2786552718580888  1.0000
  C   C15       1.0  0.8964380863349999  0.13437078022014412  0.615109608019982  1.0000
  C   C16       1.0  0.8696420294084464  0.21803545183851789  0.503455502111829  1.0000
  C   C17       1.0  0.8371198785973157  0.15286244320281717  0.3984872357118581  1.0000
  C   C18       1.0  0.8308985328647771  0.0029040213589857098  0.4030113686748229  1.0000
  C   C19       1.0  0.8580741469012835  0.9177001637948908  0.5123621791848585  1.0000
  C   C20       1.0  0.8922045918279351  0.9811874431586761  0.6183447888817126  1.0000
  S   S1        1.0  0.7882018564860517  0.919696174851045  0.26863766600141603  1.0000
  C   C21       1.0  0.8746257870828819  0.9014944246744762  0.19081860708695153  1.0000
  N   N3        1.0  0.9312978250536951  0.8895737171077379  0.1398284061134849  1.0000
  H   H9        1.0  0.977531065211  0.3989344809636046  0.7814071723880948  1.0000
  H   H10       1.0  0.8721972230396641  0.33489598017305644  0.49853789977830937  1.0000
  H   H11       1.0  0.8162014306176723  0.21935345682753016  0.31395217455293656  1.0000
  H   H12       1.0  0.8542217856450247  0.8011977178896947  0.513041170289706  1.0000
  H   H13       1.0  0.016492336535141705  0.8537965671478088  0.8607584835271878  1.0000
  C   C22       1.0  0.8943267662727845  0.5579253860157278  0.23537534315782938  1.0000
  C   C23       1.0  0.8172600883072261  0.5938020564980775  0.22839110667080265  1.0000
  C   C24       1.0  0.7786430687502058  0.6138230532785021  0.10747542883903916  1.0000
  C   C25       1.0  0.8172693261551482  0.5934731489383582  0.9932562548257411  1.0000
  C   C26       1.0  0.8943159261763528  0.5576327683708129  0.9980791300896921  1.0000
  C   C27       1.0  0.9324990522787344  0.5405840166220106  0.11962880038627109  1.0000
  N   N4        1.0  0.6994872980782826  0.6483378352222344  0.09884302034951142  1.0000
  C   C28       1.0  0.6617404735868007  0.7389523437505315  0.1848550902842545  1.0000
  O   O1        1.0  0.6986493134014874  0.8152127755257115  0.25919509714905464  1.0000
  C   C29       1.0  0.5779321336706601  0.7514831668132798  0.17977983868074898  1.0000
  H   H14       1.0  0.9233910746523305  0.5422150420241232  0.5655807015908372  1.0000
  H   H15       1.0  0.7869694247100538  0.6033516305667985  0.3171223551036322  1.0000
  H   H16       1.0  0.7869037721366551  0.6069792510157792  0.9004875884143773  1.0000
  H   H17       1.0  0.9919426118011547  0.5129523623866747  0.12420429797240629  1.0000
  H   H18       1.0  0.9232720711366441  0.5419467003354446  0.672626308219781  1.0000
  H   H19       1.0  0.6682749858405795  0.613101990420406  0.020248380278879544  1.0000
  H   H20       1.0  0.5535217538143234  0.6443035037806957  0.1657998861932053  1.0000
  H   H21       1.0  0.557152945242459  0.7904702901620085  0.2719880682559206  1.0000
  H   H22       1.0  0.5594946301100193  0.8289579947481455  0.09734892664640094  1.0000
  Zn  Zn1       1.0  0.8119928222444658  0.5596737905281606  0.6127939717196  1.0000
  Zn  Zn2       1.0  0.9766426565018324  0.5558838857820356  0.620659525451903  1.0000
  C   C30       1.0  0.8943449955175403  0.5519440947687384  0.8538897311516966  1.0000
  C   C31       1.0  0.8942922721028926  0.5636153593801294  0.37956398632261634  1.0000
  C   C32       1.0  0.8930010115528834  0.8211231265220265  0.6125581810243137  1.0000
  C   C33       1.0  0.8956362085435068  0.29443459657155957  0.6208955963833145  1.0000
  O   O2        1.0  0.9567644810127837  0.5640804269449351  0.43093992476587806  1.0000
  O   O3        1.0  0.9568382065144103  0.5486014896030433  0.8084831880097546  1.0000
  O   O4        1.0  0.9557520801358285  0.7659669808476177  0.6136062193099165  1.0000
  O   O5        1.0  0.9578505511573515  0.3467149473453941  0.6258167934508236  1.0000
  O   O6        1.0  0.8307848714020312  0.768842730259683  0.6076367010297272  1.0000
  O   O7        1.0  0.83187098911774  0.551478971365271  0.802513607105298  1.0000
  O   O8        1.0  0.8317972639395153  0.5669578590596083  0.4249687823409181  1.0000
  O   O9        1.0  0.8328833341311812  0.34959236910991476  0.6198457483498041  1.0000
