data_image0
_chemical_formula_structural       NC9NC5H8C6SCH8C6NH7Zn2C4O8
_chemical_formula_sum              "N3 C31 H23 S1 Zn2 O8"
_cell_length_a       17.807436237873137
_cell_length_b       10.302809429070853
_cell_length_c       9.274774538082514
_cell_angle_alpha    85.0636117428054
_cell_angle_beta     89.72824813723155
_cell_angle_gamma    88.39000425637651

_space_group_name_H-M_alt    "P 1"
_space_group_IT_number       1

loop_
  _space_group_symop_operation_xyz
  'x, y, z'

loop_
  _atom_site_type_symbol
  _atom_site_label
  _atom_site_symmetry_multiplicity
  _atom_site_fract_x
  _atom_site_fract_y
  _atom_site_fract_z
  _atom_site_occupancy
  N   N1        1.0  0.7023110488796919  0.4001461702609157  0.39661577423187655  1.0000
  C   C1        1.0  0.6416845630017677  0.3650650561780208  0.3843654674136521  1.0000
  C   C2        1.0  0.5662718779320403  0.32142801374471547  0.3691274158559693  1.0000
  C   C3        1.0  0.5478093449251255  0.2509671711923285  0.2524433293837829  1.0000
  C   C4        1.0  0.47458722757999944  0.20848823865768473  0.23755634284128302  1.0000
  C   C5        1.0  0.4187788101275814  0.23609302216078382  0.33931738081687896  1.0000
  C   C6        1.0  0.3409628648549045  0.19106300976235424  0.3235875743366441  1.0000
  C   C7        1.0  0.2788781748274715  0.272563933654757  0.3524121393674683  1.0000
  C   C8        1.0  0.20551380102605774  0.22988190335862663  0.33754035583221387  1.0000
  C   C9        1.0  0.14238030686380237  0.31407012816173646  0.36676930793575074  1.0000
  N   N2        1.0  0.09163396328382341  0.3817516267174288  0.3902685781176273  1.0000
  C   C10       1.0  0.1936504828608788  0.10544127288667474  0.29381583732427646  1.0000
  C   C11       1.0  0.2548777734157811  0.02392657541958254  0.26498194926372975  1.0000
  C   C12       1.0  0.3281219994398256  0.06621598344446822  0.2796286625215258  1.0000
  C   C13       1.0  0.4379335223718294  0.3070461337045107  0.4562450857090041  1.0000
  C   C14       1.0  0.5112079609497934  0.3493361120691102  0.47095910577628536  1.0000
  H   H1        1.0  0.5899508009338538  0.22912563359158125  0.17275275889237052  1.0000
  H   H2        1.0  0.4613816044409688  0.15555868272501683  0.1454112396585518  1.0000
  H   H3        1.0  0.2874776824459688  0.3697426838372444  0.38450167956099346  1.0000
  H   H4        1.0  0.13714801858804573  0.07150968119143752  0.2820422996107157  1.0000
  H   H5        1.0  0.24557567804637012  0.9275783349537109  0.23155845627765803  1.0000
  H   H6        1.0  0.3746955222675126  0.0006601399010688382  0.25846117302276905  1.0000
  H   H7        1.0  0.3965135222520507  0.3283372905991848  0.5373741630528326  1.0000
  H   H8        1.0  0.5249382516688443  0.4034951317991622  0.5619467050432669  1.0000
  C   C15       1.0  0.8969761307958343  0.00969527431300811  0.39344841114568224  1.0000
  C   C16       1.0  0.9399088123523428  0.01632584406028781  0.26575732428356735  1.0000
  C   C17       1.0  0.9610640289654002  0.9026570196169219  0.2020621853913215  1.0000
  C   C18       1.0  0.9399087173827209  0.781174691234463  0.26575724826932845  1.0000
  C   C19       1.0  0.8969761008290814  0.7721921371573037  0.3934484040577182  1.0000
  C   C20       1.0  0.8757000303525164  0.8870816769736146  0.45664290704045046  1.0000
  S   S1        1.0  0.01605599968397198  0.9126112698434155  0.03908431079815443  1.0000
  C   C21       1.0  0.9342693437485726  0.9257066227095987  0.9213125199375293  1.0000
  H   H9        1.0  0.8807720752470547  0.33451326656475366  0.4415383760912594  1.0000
  H   H10       1.0  0.9569612012477878  0.10952636465590117  0.21503646829671696  1.0000
  H   H11       1.0  0.9569610351133168  0.6941759798984855  0.2150363585397268  1.0000
  H   H12       1.0  0.842571838427758  0.8810618925608433  0.5551220989373535  1.0000
  H   H13       1.0  0.8807708431100486  0.44149756923602884  0.4415368091490092  1.0000
  H   H14       1.0  0.8998565663653726  0.8377265894261189  0.9411184733421457  1.0000
  H   H15       1.0  0.8998572682230366  0.013961522041327399  0.9411179372664646  1.0000
  H   H16       1.0  0.9533038398550104  0.9336425056044448  0.8069270770252186  1.0000
  C   C22       1.0  0.8956279186554722  0.39432798591579493  0.9696540463486025  1.0000
  C   C23       1.0  0.9488587067717731  0.4684279453308229  0.035522723442452886  1.0000
  C   C24       1.0  0.005459745284680521  0.531674057719491  0.9538350296910697  1.0000
  C   C25       1.0  0.009288413631142196  0.5210975242669372  0.804795196276606  1.0000
  C   C26       1.0  0.956298642885489  0.4498461959214639  0.7372200270636255  1.0000
  C   C27       1.0  0.8983243013111958  0.38755937834204  0.8172427139376842  1.0000
  N   N3        1.0  0.05955295202322874  0.6055526486272502  0.02269489186819307  1.0000
  H   H17       1.0  0.7833372526591909  0.14583913844129404  0.0974050650302587  1.0000
  H   H18       1.0  0.9475064538382603  0.4746493046875881  0.1515648981730686  1.0000
  H   H19       1.0  0.05298866747867281  0.5691938013717264  0.740551972659881  1.0000
  H   H20       1.0  0.9596485290039515  0.44607655620422637  0.6209923643674461  1.0000
  H   H21       1.0  0.8203854181832623  0.22425480188282856  0.5524315899715226  1.0000
  H   H22       1.0  0.05737145766346317  0.6137972942076241  0.13410037915662754  1.0000
  H   H23       1.0  0.10216890657334485  0.6526791988881657  0.9627580303962544  1.0000
  Zn  Zn1       1.0  0.8146612574978592  0.3948343714505249  0.3947924568716985  1.0000
  Zn  Zn2       1.0  0.9792837742123349  0.3870527478150883  0.39210375981126777  1.0000
  C   C28       1.0  0.8978129559130734  0.3836667853705287  0.6570303362719485  1.0000
  C   C29       1.0  0.8961338739204221  0.3982218859121694  0.12986599269687038  1.0000
  C   C30       1.0  0.8969539407478399  0.6281100961582122  0.3876975418763169  1.0000
  C   C31       1.0  0.896992833156336  0.1537770173353512  0.3991988649511753  1.0000
  O   O1        1.0  0.9587770642852438  0.39656996468128064  0.18261423892382253  1.0000
  O   O2        1.0  0.960114445307236  0.37941165820837663  0.6022410157538487  1.0000
  O   O3        1.0  0.9594199423002318  0.5768027509026866  0.38475289246002475  1.0000
  O   O4        1.0  0.9594715107734999  0.19917888479382787  0.4001022549279938  1.0000
  O   O5        1.0  0.8344734647590839  0.5827082371287453  0.38679396266490135  1.0000
  O   O6        1.0  0.8351679675177968  0.38531870488053044  0.604282009009981  1.0000
  O   O7        1.0  0.8338305810259913  0.40247697996476056  0.18465349708029194  1.0000
  O   O8        1.0  0.8345250278553855  0.2050858899274104  0.4021416212840456  1.0000
