data_image0
_chemical_formula_structural       NC8NH4C6H4C6H4Zn2C4O8
_chemical_formula_sum              "N2 C24 H12 Zn2 O8"
_cell_length_a       14.927258825633057
_cell_length_b       9.276888557694653
_cell_length_c       10.681121600428288
_cell_angle_alpha    85.24633202802562
_cell_angle_beta     89.9998652976436
_cell_angle_gamma    89.49921410926562

_space_group_name_H-M_alt    "P 1"
_space_group_IT_number       1

loop_
  _space_group_symop_operation_xyz
  'x, y, z'

loop_
  _atom_site_type_symbol
  _atom_site_label
  _atom_site_symmetry_multiplicity
  _atom_site_fract_x
  _atom_site_fract_y
  _atom_site_fract_z
  _atom_site_occupancy
  N   N1        1.0  0.8349954248280139  0.5787434959035762  0.6111291317688152  1.0000
  C   C1        1.0  0.7574690006241738  0.5787434694438847  0.6111291402807979  1.0000
  C   C2        1.0  0.6610363588798994  0.5787434691540527  0.6111291881362937  1.0000
  C   C3        1.0  0.6144640341832309  0.49040178528682854  0.5335868998387967  1.0000
  C   C4        1.0  0.5207527231154371  0.49040169542776324  0.533586875538151  1.0000
  C   C5        1.0  0.47322036118305844  0.5787435222133384  0.611129111587916  1.0000
  C   C6        1.0  0.5197926858275396  0.6670852163984272  0.688671305946515  1.0000
  C   C7        1.0  0.6135040638868857  0.6670853062545257  0.6886713302523222  1.0000
  C   C8        1.0  0.3767877199699948  0.5787434245635834  0.6111290643246086  1.0000
  N   N2        1.0  0.29926129518275674  0.5787435057816792  0.6111290740164967  1.0000
  H   H1        1.0  0.6505336258683052  0.42166677343365455  0.4732546651396399  1.0000
  H   H2        1.0  0.4854299701139606  0.421666749752329  0.47325474972553144  1.0000
  H   H3        1.0  0.4837230941424653  0.7358202282516006  0.7490035406456723  1.0000
  H   H4        1.0  0.6488267499489975  0.7358202416150617  0.7490035499986786  1.0000
  C   C9        1.0  0.06942591607596939  0.15512455391486957  0.6131604328054803  1.0000
  C   C10       1.0  0.02967847132569057  0.2193968194464344  0.7144782543968167  1.0000
  C   C11       1.0  0.9837403729932451  0.13590193233996972  0.8078743882459571  1.0000
  C   C12       1.0  0.9766772291710533  0.9870700510228068  0.8016345590122644  1.0000
  C   C13       1.0  0.016874679519011553  0.9206705225333205  0.7031670309125404  1.0000
  C   C14       1.0  0.06483947907894239  0.0023513327006483556  0.6091087063133491  1.0000
  H   H5        1.0  0.17745415571663492  0.448381927208511  0.4723147079991361  1.0000
  H   H6        1.0  0.9527953340613384  0.18702548887853077  0.8846636731160831  1.0000
  H   H7        1.0  0.9406785332270404  0.9226601504191692  0.8739592750141102  1.0000
  H   H8        1.0  0.10871584351746798  0.7392432444805676  0.41158886886143375  1.0000
  C   C15       1.0  0.06713270532337434  0.5787379071644116  0.24338933128912488  1.0000
  C   C16       1.0  0.0034467403828353227  0.4985081521084323  0.18235053093988807  1.0000
  C   C17       1.0  0.003446683950568016  0.4985082446064999  0.051468390544637366  1.0000
  C   C18       1.0  0.06713263451600526  0.5787379778784323  0.9788797666272915  1.0000
  C   C19       1.0  0.1307660363478619  0.6589012464942954  0.039918304592035714  1.0000
  C   C20       1.0  0.13076602500744094  0.658901224125426  0.17081060336205778  1.0000
  H   H9        1.0  0.9535266745599548  0.43562027826759314  0.23568811825674052  1.0000
  H   H10       1.0  0.953526655482879  0.43562034617123496  0.007184088706468694  1.0000
  H   H11       1.0  0.18069262069638725  0.7217974073378263  0.9866250130114533  1.0000
  H   H12       1.0  0.1806925758343958  0.7217973567681017  0.21504938073770385  1.0000
  Zn  Zn1       1.0  0.9689725559023518  0.5787396256320497  0.6111363727168533  1.0000
  Zn  Zn2       1.0  0.16528424131198904  0.5787355334102702  0.6111321729612678  1.0000
  C   C21       1.0  0.0671617838022176  0.5729910931181352  0.8398838252197369  1.0000
  C   C22       1.0  0.06709714727621363  0.5844858860337594  0.3823848346208327  1.0000
  C   C23       1.0  0.06570178282753547  0.8422074094025489  0.6048842533996124  1.0000
  C   C24       1.0  0.06855709064590032  0.31526783658985297  0.6173844814962086  1.0000
  O   O1        1.0  0.14158450926620003  0.5864071138526334  0.42903143159063717  1.0000
  O   O2        1.0  0.14167045458626726  0.5710656711364197  0.7932336854459922  1.0000
  O   O3        1.0  0.14049048104922868  0.7884612512620963  0.6034698613884362  1.0000
  O   O4        1.0  0.14276441575949939  0.3690115440477889  0.6187951617041345  1.0000
  O   O5        1.0  0.9914923144632891  0.788463614997498  0.6034733839688255  1.0000
  O   O6        1.0  0.9926722786137712  0.5710697680342809  0.7932371329659689  1.0000
  O   O7        1.0  0.992586333625501  0.5864111604807619  0.42903337372843664  1.0000
  O   O8        1.0  0.9937662401709875  0.3690155803580517  0.6187971977808318  1.0000
