data_image0
_chemical_formula_structural       NC8NH4C10H6C9H8Zn2C4O8
_chemical_formula_sum              "N2 C31 H18 Zn2 O8"
_cell_length_a       13.859017124695912
_cell_length_b       9.275150299802176
_cell_length_c       9.273585224739811
_cell_angle_alpha    85.81607574140205
_cell_angle_beta     90.10205969128333
_cell_angle_gamma    89.4839206584006

_space_group_name_H-M_alt    "P 1"
_space_group_IT_number       1

loop_
  _space_group_symop_operation_xyz
  'x, y, z'

loop_
  _atom_site_type_symbol
  _atom_site_label
  _atom_site_symmetry_multiplicity
  _atom_site_fract_x
  _atom_site_fract_y
  _atom_site_fract_z
  _atom_site_occupancy
  N   N1        1.0  0.8972629123462256  0.562859451108568  0.40130947868465355  1.0000
  C   C1        1.0  0.8249829107291804  0.5394209972080113  0.34528136488345385  1.0000
  C   C2        1.0  0.7350708725994616  0.5102669803102875  0.27558958977736725  1.0000
  C   C3        1.0  0.647365330608488  0.5386891802389913  0.3435302982515478  1.0000
  C   C4        1.0  0.5598405446835955  0.5102682007986357  0.27558900358172433  1.0000
  C   C5        1.0  0.5602037313330109  0.4534173064357521  0.13968613981548247  1.0000
  C   C6        1.0  0.6477263662633855  0.42510434974429073  0.07200695422825641  1.0000
  C   C7        1.0  0.7350691057252619  0.45341496789338237  0.1396873313767717  1.0000
  C   C8        1.0  0.4697430658536809  0.5394219191190459  0.34528086165987326  1.0000
  N   N2        1.0  0.39731403574246515  0.5628597716702561  0.40130926086650165  1.0000
  H   H1        1.0  0.647225413429768  0.5826939726917684  0.4487223660086712  1.0000
  H   H2        1.0  0.4929794129608941  0.4310479385625224  0.08620935340843582  1.0000
  H   H3        1.0  0.6478660615819518  0.38118942566235936  0.9670279139158575  1.0000
  H   H4        1.0  0.8024356589121101  0.43104350850084555  0.08621155601561314  1.0000
  C   C9        1.0  0.14984171598917873  0.13917853977421735  0.4037221974973499  1.0000
  C   C10       1.0  0.20046057465565228  0.22012594964417365  0.29468419203684526  1.0000
  C   C11       1.0  0.24279819608616005  0.15281559266048822  0.1801050217179816  1.0000
  C   C12       1.0  0.23494621610700572  0.0035769831579310885  0.173088025023882  1.0000
  C   C13       1.0  0.18643316959973633  0.9211791716764579  0.2814782885821068  1.0000
  C   C14       1.0  0.14474451386691545  0.9865297071517105  0.3989090935409858  1.0000
  C   C15       1.0  0.2934259512714517  0.23747988213733343  0.06857397369832952  1.0000
  C   C16       1.0  0.3358141827061738  0.30838888234138345  0.9751992403196219  1.0000
  C   C17       1.0  0.3854488344061118  0.3914283045587324  0.8658614998062331  1.0000
  C   C18       1.0  0.42782889272365043  0.46233200394917495  0.7725046657076047  1.0000
  H   H5        1.0  0.10434710240227796  0.4038209939740234  0.6325887677397801  1.0000
  H   H6        1.0  0.20509911615718157  0.3365968746079767  0.296910706527328  1.0000
  H   H7        1.0  0.26719051657029125  0.9505336201377276  0.08442782120124681  1.0000
  H   H8        1.0  0.1834752645145048  0.8051160690559261  0.27525590190301075  1.0000
  H   H9        1.0  0.08243447641696354  0.8595281014530645  0.7413428638056141  1.0000
  H   H10       1.0  0.46504211928748695  0.5245914733200512  0.6905296545858763  1.0000
  C   C19       1.0  0.14681384645313053  0.5585634265697448  0.9780884925610054  1.0000
  C   C20       1.0  0.2331165897151113  0.5264298190452454  0.05422775963421245  1.0000
  C   C21       1.0  0.3206470580628151  0.5072817503463236  0.9820761189921994  1.0000
  C   C22       1.0  0.32108524280425566  0.5210784625563423  0.8299385251813782  1.0000
  C   C23       1.0  0.23582999211154299  0.5504994161320591  0.7528109467011936  1.0000
  C   C24       1.0  0.14777241772461114  0.5671448409632185  0.8245427888425624  1.0000
  C   C25       1.0  0.41027924812308214  0.47419530527912684  0.07377922980689866  1.0000
  C   C26       1.0  0.48632411189990027  0.3752023153715927  0.014103558659834817  1.0000
  C   C27       1.0  0.505358538852942  0.5365210503262139  0.01709111396754293  1.0000
  H   H11       1.0  0.23269887333240197  0.5194669718126369  0.17143681874440841  1.0000
  H   H12       1.0  0.38660690940731257  0.5080423337146462  0.7690782222524701  1.0000
  H   H13       1.0  0.003624456857203254  0.6696586117647165  0.5352904253517647  1.0000
  H   H14       1.0  0.40399343465641757  0.4648903447028623  0.19359393498631805  1.0000
  H   H15       1.0  0.47356945593555433  0.3380757585698016  0.9047366129608152  1.0000
  H   H16       1.0  0.5267756207717385  0.30765137028741596  0.09800854065510678  1.0000
  H   H17       1.0  0.5041230654849396  0.5972091937829462  0.9095272451732215  1.0000
  H   H18       1.0  0.556925683172588  0.5632799482363156  0.10274659059994873  1.0000
  Zn  Zn1       1.0  0.04156690047020972  0.5628557760117068  0.40131776494885885  1.0000
  Zn  Zn2       1.0  0.25301012416664054  0.5628517972995719  0.4013128622369644  1.0000
  C   C28       1.0  0.14762364445933726  0.5597750856464851  0.6645774532991264  1.0000
  C   C29       1.0  0.14695567834053566  0.5659343094770651  0.13805330494972856  1.0000
  C   C30       1.0  0.14569654748999916  0.8263040964251429  0.39407568097137474  1.0000
  C   C31       1.0  0.14888271367331574  0.29940356606327934  0.40855516396338304  1.0000
  O   O1        1.0  0.22724491772789746  0.5684002408683706  0.19173713248340918  1.0000
  O   O2        1.0  0.22781492547188398  0.5573050418776242  0.6108894960244146  1.0000
  O   O3        1.0  0.22625769029959142  0.7725306040140189  0.3924573925286501  1.0000
  O   O4        1.0  0.22880208056448104  0.3531746879587465  0.4101691278599182  1.0000
  O   O5        1.0  0.06577487191715625  0.7725328853553837  0.3924614993199884  1.0000
  O   O6        1.0  0.0673320965707942  0.5573090558569698  0.6108935161239342  1.0000
  O   O7        1.0  0.06676208723113608  0.5684041870036501  0.1917394200918272  1.0000
  O   O8        1.0  0.06831925024821595  0.35317862487010804  0.4101715235816752  1.0000
