data_image0
_chemical_formula_structural       NC5N2C2NH4C7NH5C6FH3Zn2C4O8
_chemical_formula_sum              "N5 C24 H12 F1 Zn2 O8"
_cell_length_a       13.87973921873968
_cell_length_b       9.275154477615127
_cell_length_c       9.275646106892307
_cell_angle_alpha    85.17883559390603
_cell_angle_beta     90.02253601323379
_cell_angle_gamma    89.4337086285363

_space_group_name_H-M_alt    "P 1"
_space_group_IT_number       1

loop_
  _space_group_symop_operation_xyz
  'x, y, z'

loop_
  _atom_site_type_symbol
  _atom_site_label
  _atom_site_symmetry_multiplicity
  _atom_site_fract_x
  _atom_site_fract_y
  _atom_site_fract_z
  _atom_site_occupancy
  N   N1        1.0  0.8962839617641488  0.5947709387442919  0.414289578179754  1.0000
  C   C1        1.0  0.8229939415566263  0.6199034982192106  0.35767937882476875  1.0000
  C   C2        1.0  0.7319703916510232  0.6511206005161769  0.2873633927405128  1.0000
  C   C3        1.0  0.6457577536497391  0.6196527753130625  0.3605291721799011  1.0000
  C   C4        1.0  0.55909099093814  0.6511205354810876  0.2873634324356824  1.0000
  C   C5        1.0  0.4685168207407299  0.6199033546609951  0.35767927489767515  1.0000
  N   N2        1.0  0.3955885307758334  0.5947709142454116  0.414289567075216  1.0000
  N   N3        1.0  0.5602958428971864  0.711223830703037  0.1486705550145775  1.0000
  C   C6        1.0  0.6448720322629474  0.7425743679323502  0.07955270396106018  1.0000
  C   C7        1.0  0.6444213410557318  0.8047124508374353  0.9258558548751746  1.0000
  N   N4        1.0  0.7298987418703251  0.7112237839383073  0.14867056559343284  1.0000
  H   H1        1.0  0.6461044857208667  0.571565264928201  0.4712081116586346  1.0000
  H   H2        1.0  0.7089677163077998  0.8728033932817967  0.9037019283105797  1.0000
  H   H3        1.0  0.6449918913526714  0.715565698953847  0.8531900525990239  1.0000
  H   H4        1.0  0.5789629093526018  0.8728013383212414  0.9037011531680297  1.0000
  C   C8        1.0  0.14872828491398216  0.171399402148676  0.41261947695141665  1.0000
  C   C9        1.0  0.12224024650056697  0.25593333563697795  0.28536854475739504  1.0000
  C   C10       1.0  0.08791785862952928  0.19117799183523032  0.16485828405685288  1.0000
  C   C11       1.0  0.0795185645521288  0.0410008105116082  0.17017968592014188  1.0000
  C   C12       1.0  0.10689858327814528  0.9552900845650627  0.2945300344684172  1.0000
  C   C13       1.0  0.14315350062065546  0.018131224487735853  0.4159721629789068  1.0000
  C   C14       1.0  0.06014752605604222  0.2793100671770665  0.03607364628982457  1.0000
  N   N5        1.0  0.03782788075943988  0.35015199848744194  0.9325637854134495  1.0000
  H   H5        1.0  0.16752775832549816  0.2442985863518183  0.7668841181518742  1.0000
  H   H6        1.0  0.12617346126191897  0.372938329396707  0.2810862517954025  1.0000
  H   H7        1.0  0.05262628911719158  0.9898603632775569  0.07755998192055191  1.0000
  H   H8        1.0  0.10183939592480629  0.8388238412495738  0.2944030208407957  1.0000
  H   H9        1.0  0.15989976549853901  0.7168337163434741  0.6533395495699272  1.0000
  C   C15       1.0  0.14579905179016325  0.5992777688868391  0.9904732220072976  1.0000
  C   C16       1.0  0.23391539788429383  0.6143459570513321  0.06259373877389462  1.0000
  C   C17       1.0  0.32092665564258005  0.6158769029047793  0.9871539842789638  1.0000
  C   C18       1.0  0.3213506324089779  0.602221844976961  0.8387236623879977  1.0000
  C   C19       1.0  0.23472819642624176  0.5895575273760403  0.7646807047732453  1.0000
  C   C20       1.0  0.14608269130264115  0.5902528551786241  0.8381183707237065  1.0000
  F   F1        1.0  0.4052125729891225  0.6288932092693127  0.058640737605387676  1.0000
  H   H10       1.0  0.9231657628250639  0.4821482192207085  0.10316234958235038  1.0000
  H   H11       1.0  0.3889079209072672  0.6028249756639514  0.7804106891830176  1.0000
  H   H12       1.0  0.9953178222854686  0.5173248320059989  0.5629838550632242  1.0000
  Zn  Zn1       1.0  0.04037250409258353  0.5947669794963997  0.4142978968488038  1.0000
  Zn  Zn2       1.0  0.25150005579157364  0.5947629376104624  0.4142930328683352  1.0000
  C   C21       1.0  0.14606477129890516  0.5862152523899253  0.677872548303176  1.0000
  C   C22       1.0  0.14581008216226343  0.6033164822555086  0.15071853021946202  1.0000
  C   C23       1.0  0.14420036547985182  0.8581421014566571  0.40958713094528276  1.0000
  C   C24       1.0  0.14767442736826641  0.3313879002225164  0.41900401766677353  1.0000
  O   O1        1.0  0.2259356310361782  0.6046640877367988  0.20449644875489437  1.0000
  O   O2        1.0  0.2261801560272816  0.5848634960087632  0.6240905183503949  1.0000
  O   O3        1.0  0.2246735451717361  0.804447849657107  0.4074481516305566  1.0000
  O   O4        1.0  0.22744216974407383  0.3850797455554118  0.4211387073028958  1.0000
  O   O5        1.0  0.06443031809259847  0.8044501715544805  0.4074522224083179  1.0000
  O   O6        1.0  0.06593691751370945  0.584867550875426  0.6240945190328131  1.0000
  O   O7        1.0  0.06569239233674584  0.6046681108381187  0.20449871402390918  1.0000
  O   O8        1.0  0.06719893114480668  0.3850837571928046  0.4211410807378224  1.0000
