data_image0
_chemical_formula_structural       NC12NC2H8C6NCOC6H11C6SCOC6H10Zn2C4O8
_chemical_formula_sum              "N3 C44 H29 O10 S1 Zn2"
_cell_length_a       19.240039667572717
_cell_length_b       10.29965916528486
_cell_length_c       10.302041481415108
_cell_angle_alpha    85.55947833871805
_cell_angle_beta     89.99620935601246
_cell_angle_gamma    90.0154664442568

_space_group_name_H-M_alt    "P 1"
_space_group_IT_number       1

loop_
  _space_group_symop_operation_xyz
  'x, y, z'

loop_
  _atom_site_type_symbol
  _atom_site_label
  _atom_site_symmetry_multiplicity
  _atom_site_fract_x
  _atom_site_fract_y
  _atom_site_fract_z
  _atom_site_occupancy
  N   N1        1.0  0.6547332883452586  0.4217409003794496  0.5682649726157936  1.0000
  C   C1        1.0  0.5945849195430181  0.42174098438735025  0.5682648907263927  1.0000
  C   C2        1.0  0.5197668824236708  0.4217411017182313  0.5682647534930314  1.0000
  C   C3        1.0  0.4832801867374932  0.35724121521561325  0.6716315042930698  1.0000
  C   C4        1.0  0.4106094195468309  0.3571303062789588  0.6717179883429041  1.0000
  C   C5        1.0  0.3734346475077885  0.42174119436066837  0.568264525893382  1.0000
  C   C6        1.0  0.4106355538760788  0.4863522693567129  0.46481125800934886  1.0000
  C   C7        1.0  0.48330622321076744  0.48624112488318305  0.4648978644493024  1.0000
  C   C8        1.0  0.29622955706017895  0.42174111573453205  0.5682644304702722  1.0000
  C   C9        1.0  0.2590238980892459  0.30846827531441323  0.6100855302511041  1.0000
  C   C10       1.0  0.18635322838981547  0.3085752049875954  0.6099942628183721  1.0000
  C   C11       1.0  0.14989727011615767  0.42174098654331305  0.5682644913211176  1.0000
  C   C12       1.0  0.0750792329359523  0.4217408727162544  0.5682647398875547  1.0000
  N   N2        1.0  0.0149309160705634  0.4217408318209  0.5682649482473563  1.0000
  C   C13       1.0  0.1863888227119447  0.5349068439433954  0.5265346669716939  1.0000
  C   C14       1.0  0.2590595376463209  0.5350139537902066  0.5264432370440109  1.0000
  H   H1        1.0  0.5109849778745417  0.3073037637510555  0.7523374782511898  1.0000
  H   H2        1.0  0.3835061137148383  0.30799053246886143  0.7535395149905457  1.0000
  H   H3        1.0  0.3835523289256552  0.5354920702363792  0.3829896805339361  1.0000
  H   H4        1.0  0.5110312035125338  0.5361784759912194  0.38419216619122304  1.0000
  H   H5        1.0  0.2861031854255999  0.21930401378884157  0.6412144497951185  1.0000
  H   H6        1.0  0.15862449185919308  0.22030974262667777  0.6421562490441259  1.0000
  H   H7        1.0  0.1586877357907159  0.6231722817629284  0.4943726952844383  1.0000
  H   H8        1.0  0.2861667291402047  0.6241782945062437  0.4953142727665085  1.0000
  C   C15       1.0  0.8347743086147468  0.04038022988898504  0.5681494915272158  1.0000
  C   C16       1.0  0.8352514799160459  0.04970845702197813  0.4313648910229595  1.0000
  C   C17       1.0  0.8365167404159282  0.9375716846048596  0.3625450898989033  1.0000
  C   C18       1.0  0.8353824214750118  0.8145180617741625  0.4316612072977059  1.0000
  C   C19       1.0  0.8348965562768749  0.8030914949847688  0.5683915966416941  1.0000
  C   C20       1.0  0.8348398113123673  0.9166307062224608  0.6358639776148056  1.0000
  N   N3        1.0  0.8359368680212431  0.9506928864500002  0.22251109709896943  1.0000
  C   C21       1.0  0.8685188973480901  0.8595915734232366  0.1428032748350776  1.0000
  O   O1        1.0  0.9164635215644309  0.7867566745376389  0.18977052807507988  1.0000
  C   C22       1.0  0.848321795025369  0.8534428159905306  0.004468805016237142  1.0000
  C   C23       1.0  0.7840557323630928  0.9033161528683851  0.9581336863133667  1.0000
  C   C24       1.0  0.7654361691716967  0.896347941744302  0.8276410242533613  1.0000
  C   C25       1.0  0.8104353163346995  0.8392905232978175  0.7422040213499153  1.0000
  C   C26       1.0  0.874089597984815  0.7886301414997812  0.7871632369855481  1.0000
  C   C27       1.0  0.8929744959685619  0.7952420562159699  0.9175514484182861  1.0000
  H   H9        1.0  0.8332108316582275  0.2300480535548508  0.8261690952915238  1.0000
  H   H10       1.0  0.835173399763875  0.1443363832073763  0.3775542713742652  1.0000
  H   H11       1.0  0.8336582372672712  0.72774573374304  0.3788680146179586  1.0000
  H   H12       1.0  0.8344812595936034  0.9085743077694819  0.7413094689432218  1.0000
  H   H13       1.0  0.8337855156649038  0.4712591825945814  0.6208410196047407  1.0000
  H   H14       1.0  0.816107515366984  0.03684172855258727  0.176581242565091  1.0000
  H   H15       1.0  0.7476326724192518  0.9459906524938425  0.022601208090219812  1.0000
  H   H16       1.0  0.715904968183361  0.9347933091590719  0.7928632951479  1.0000
  H   H17       1.0  0.7958838190166745  0.833968179097411  0.6412697636955484  1.0000
  H   H18       1.0  0.9088682610631695  0.7441604786667956  0.7209324021694092  1.0000
  H   H19       1.0  0.9426798202109004  0.7556113372707173  0.950110980011484  1.0000
  C   C28       1.0  0.8348484897835216  0.4218651463891119  0.18698356658991575  1.0000
  C   C29       1.0  0.86673127729958  0.544960698061487  0.17610966588399068  1.0000
  C   C30       1.0  0.8829042352478506  0.605685391401191  0.05374362955448574  1.0000
  C   C31       1.0  0.8667971757591872  0.5445568448918547  0.9410041257357155  1.0000
  C   C32       1.0  0.8348224072691581  0.4216065935597005  0.9495575754232797  1.0000
  C   C33       1.0  0.8190648549670427  0.3608433456146658  0.07311702597868863  1.0000
  S   S1        1.0  0.9242540996790879  0.762214650798491  0.041270780989718585  1.0000
  C   C34       1.0  0.009859748401008563  0.6924155563471701  0.04381702082402339  1.0000
  O   O2        1.0  0.03705606562244301  0.6692433350641873  0.9367493946725016  1.0000
  C   C35       1.0  0.04816377457062049  0.6610735946007955  0.1673315734824201  1.0000
  C   C36       1.0  0.10980819752135229  0.5873519284065132  0.1675004325337015  1.0000
  C   C37       1.0  0.14602821687141376  0.556455892719683  0.2834426926625728  1.0000
  C   C38       1.0  0.12134149937955917  0.5988024369086458  0.4003937116814093  1.0000
  C   C39       1.0  0.0604440514491702  0.672365295875762  0.40160506888915815  1.0000
  C   C40       1.0  0.024016639744367067  0.703635457575918  0.2859623335479202  1.0000
  H   H20       1.0  0.7746508725829843  0.1899646680054432  0.4147873668053754  1.0000
  H   H21       1.0  0.8792246494113642  0.5938873382244634  0.26243953005325626  1.0000
  H   H22       1.0  0.8795850861887996  0.5931519624263595  0.8470481844659026  1.0000
  H   H23       1.0  0.7944871117443443  0.2659452296887548  0.08057947356424178  1.0000
  H   H24       1.0  0.8228553550805314  0.37469104765844663  0.6254834185896971  1.0000
  H   H25       1.0  0.12987907103809326  0.5528948240291394  0.0781708383575963  1.0000
  H   H26       1.0  0.19326382440402412  0.4994727304977278  0.2825775786323519  1.0000
  H   H27       1.0  0.14944271469577644  0.5747518152486812  0.4900481409983022  1.0000
  H   H28       1.0  0.041452185701507334  0.7054353944196443  0.4922882606296756  1.0000
  H   H29       1.0  0.9773086241560854  0.7615606547797782  0.29005500506293336  1.0000
  Zn  Zn1       1.0  0.758678551369229  0.4217374109297545  0.5682724513001051  1.0000
  Zn  Zn2       1.0  0.9109856697568929  0.42173372442768264  0.5682680628231076  1.0000
  C   C41       1.0  0.8348249394645024  0.4164819152195051  0.8054130914816555  1.0000
  C   C42       1.0  0.8348409451089105  0.4269908586385047  0.3311275505528839  1.0000
  C   C43       1.0  0.834870057483442  0.6589246128853272  0.5631717923862174  1.0000
  C   C44       1.0  0.8347957748657243  0.184546600681742  0.5733689183782573  1.0000
  O   O3        1.0  0.8926381698119191  0.42870402986653383  0.37950192113966924  1.0000
  O   O4        1.0  0.8926252933266563  0.41476496644717165  0.7570350160656334  1.0000
  O   O5        1.0  0.8926609474829499  0.6105405104798547  0.5614234535998075  1.0000
  O   O6        1.0  0.8926024636883451  0.2329284951581354  0.5751133862561921  1.0000
  O   O7        1.0  0.7770617054628327  0.610542640201976  0.5614271278616891  1.0000
  O   O8        1.0  0.7770260515558417  0.4147686564629078  0.7570386215922484  1.0000
  O   O9        1.0  0.7770389281335128  0.4287076751565282  0.3795039655866508  1.0000
  O   O10       1.0  0.7770032220022751  0.23293213112651978  0.575115528047145  1.0000
