data_image0
_chemical_formula_structural       NC8NC6H8C6NCOH6C7H7Zn2C4O8
_chemical_formula_sum              "N3 C32 H21 O9 Zn2"
_cell_length_a       17.457602349358154
_cell_length_b       10.299619329790078
_cell_length_c       9.274345330872308
_cell_angle_alpha    85.12981543555203
_cell_angle_beta     92.4462132353122
_cell_angle_gamma    91.71362633690529

_space_group_name_H-M_alt    "P 1"
_space_group_IT_number       1

loop_
  _space_group_symop_operation_xyz
  'x, y, z'

loop_
  _atom_site_type_symbol
  _atom_site_label
  _atom_site_symmetry_multiplicity
  _atom_site_fract_x
  _atom_site_fract_y
  _atom_site_fract_z
  _atom_site_occupancy
  N   N1        1.0  0.7290630219280086  0.4636260524474001  0.4744511089393739  1.0000
  C   C1        1.0  0.6680211774771607  0.41778405793482465  0.46265220871572604  1.0000
  C   C2        1.0  0.5920824980399255  0.36076225621152574  0.4479849773522986  1.0000
  C   C3        1.0  0.5332236775465767  0.4003359479057811  0.5311909152861218  1.0000
  C   C4        1.0  0.45872084831403237  0.3454275901093049  0.5172065291379067  1.0000
  C   C5        1.0  0.3962516035955147  0.3872097062421909  0.6053247553382528  1.0000
  C   C6        1.0  0.3219636554204821  0.4061161839316987  0.5433822287325278  1.0000
  C   C7        1.0  0.26310429178217887  0.4455051015509568  0.6267080618289884  1.0000
  C   C8        1.0  0.18738843289748952  0.465034836416586  0.5623045667165771  1.0000
  N   N2        1.0  0.12652579647549064  0.4807303623424888  0.5105243235512102  1.0000
  C   C9        1.0  0.2780384639154572  0.46622668951880075  0.7725413439290996  1.0000
  C   C10       1.0  0.3515400475550942  0.44770615538492975  0.8349144893692022  1.0000
  C   C11       1.0  0.4103857709681661  0.4084936974133941  0.7520971426610421  1.0000
  C   C12       1.0  0.4443718267515831  0.2502793740782234  0.4184243469074347  1.0000
  C   C13       1.0  0.5032171827449112  0.21098122141759612  0.3356627928346465  1.0000
  C   C14       1.0  0.576932773231301  0.26599763547166444  0.350258108307304  1.0000
  H   H1        1.0  0.5452844787194763  0.4750071782014926  0.6052183336292141  1.0000
  H   H2        1.0  0.310079016373232  0.39194723766308126  0.4300458888029748  1.0000
  H   H3        1.0  0.23291793264542604  0.49664742505362197  0.837903636486736  1.0000
  H   H4        1.0  0.3629130891260658  0.4634356995214664  0.947836408068946  1.0000
  H   H5        1.0  0.4666575478727282  0.3931396762262793  0.8033125759735142  1.0000
  H   H6        1.0  0.3879235816998691  0.20502733350209623  0.4065854080904514  1.0000
  H   H7        1.0  0.49167594257927977  0.13743586925684137  0.2603043702956005  1.0000
  H   H8        1.0  0.6220507905589346  0.2347031840943825  0.28546347981948395  1.0000
  C   C15       1.0  0.9276965064159873  0.09080575158802408  0.49244126153319634  1.0000
  C   C16       1.0  0.8912582730899281  0.0982597790831643  0.35406389748607436  1.0000
  C   C17       1.0  0.8740461016502014  0.9853436259417059  0.28344464272142367  1.0000
  C   C18       1.0  0.8914862172695414  0.8631103656257438  0.3541956840110332  1.0000
  C   C19       1.0  0.9278995591018496  0.8535408989341303  0.492547339320663  1.0000
  C   C20       1.0  0.9460715689251623  0.9680191248188409  0.560640008429049  1.0000
  N   N3        1.0  0.8356903500609327  0.9967168357914795  0.14275772286006827  1.0000
  C   C21       1.0  0.8482142669579157  0.9133597762246713  0.030340490676815435  1.0000
  O   O1        1.0  0.9020318964904989  0.833909540848074  0.04129197060909795  1.0000
  H   H9        1.0  0.9956985441429241  0.283910522054339  0.7541098253042041  1.0000
  H   H10       1.0  0.8766127710696084  0.1920961413286422  0.299839997735331  1.0000
  H   H11       1.0  0.8752909867501271  0.7753639740988532  0.3028046552074246  1.0000
  H   H12       1.0  0.9741704466121027  0.9613978116773342  0.667306294286165  1.0000
  H   H13       1.0  0.8002866325059692  0.07595585318946974  0.11617112660948758  1.0000
  H   H14       1.0  0.8121942491769991  0.9213331482327596  0.9323011003367586  1.0000
  C   C22       1.0  0.9295337919882944  0.4751680580890403  0.06884969936208352  1.0000
  C   C23       1.0  0.8838930857375101  0.5646805824182852  0.12997749065966047  1.0000
  C   C24       1.0  0.8336644569870306  0.6435516909106818  0.04339449306884458  1.0000
  C   C25       1.0  0.8273021035050808  0.6337242232909899  0.8938717483287686  1.0000
  C   C26       1.0  0.8741329703306205  0.5479143572883634  0.8308481079410406  1.0000
  C   C27       1.0  0.9260622783689973  0.4691785723504511  0.9161388352036659  1.0000
  C   C28       1.0  0.7744678184445982  0.7206650549678333  0.8005580206621916  1.0000
  H   H15       1.0  0.0175041515371479  0.19608385526838634  0.20513772794832397  1.0000
  H   H16       1.0  0.885847740243069  0.5717336627908942  0.2459726858282123  1.0000
  H   H17       1.0  0.79906441033947  0.7114357755481286  0.09342441728866202  1.0000
  H   H18       1.0  0.8712287188033504  0.5448284174716753  0.7141921235340236  1.0000
  H   H19       1.0  0.8058120521698409  0.8121828735692198  0.7642891315979496  1.0000
  H   H20       1.0  0.7241456087511775  0.74495345930597  0.8615688058681306  1.0000
  H   H21       1.0  0.7529088827181382  0.6717442402352605  0.7039942362473104  1.0000
  Zn  Zn1       1.0  0.8437621579707294  0.4685584451913263  0.4848693886597943  1.0000
  Zn  Zn2       1.0  0.01182659495539796  0.4757872381838919  0.5001178535193194  1.0000
  C   C29       1.0  0.926715398039257  0.46513690273562064  0.7559822011997959  1.0000
  C   C30       1.0  0.9288751900014435  0.47921049721204606  0.22900534931632818  1.0000
  C   C31       1.0  0.9278808070599684  0.7094081636597795  0.4867780546052545  1.0000
  C   C32       1.0  0.9277097229015173  0.23493767296004986  0.49820956740459255  1.0000
  O   O2        1.0  0.9924337336102228  0.4833048001819562  0.2885417606392915  1.0000
  O   O3        1.0  0.9907138747961289  0.4665281095880181  0.7080186064557563  1.0000
  O   O4        1.0  0.9916540913936828  0.6637801944311139  0.49063427559562794  1.0000
  O   O5        1.0  0.9914934601093218  0.28605272292712103  0.505925978128557  1.0000
  O   O6        1.0  0.8640952354646931  0.6582929579827328  0.47906125883941564  1.0000
  O   O7        1.0  0.8631550195942418  0.46104243400210904  0.6964455129946812  1.0000
  O   O8        1.0  0.864874885553782  0.4778190916029441  0.2769669326908015  1.0000
  O   O9        1.0  0.863934611604116  0.28056700429448367  0.49435125833979  1.0000
