data_image0
_chemical_formula_structural       NC6NC2H4C9H10C9H8Zn2C4O8
_chemical_formula_sum              "N2 C30 H22 Zn2 O8"
_cell_length_a       14.927258858638513
_cell_length_b       10.297183801781406
_cell_length_c       9.275155815604963
_cell_angle_alpha    86.02609203372302
_cell_angle_beta     90.35750032956715
_cell_angle_gamma    89.99762792032334

_space_group_name_H-M_alt    "P 1"
_space_group_IT_number       1

loop_
  _space_group_symop_operation_xyz
  'x, y, z'

loop_
  _atom_site_type_symbol
  _atom_site_label
  _atom_site_symmetry_multiplicity
  _atom_site_fract_x
  _atom_site_fract_y
  _atom_site_fract_z
  _atom_site_occupancy
  N   N1        1.0  0.8373620888418577  0.4093442597104422  0.40953186058489544  1.0000
  C   C1        1.0  0.7598355977160139  0.40934423411106224  0.4095318711842757  1.0000
  C   C2        1.0  0.6634030899753112  0.409344337404776  0.4095318212826819  1.0000
  C   C3        1.0  0.6158603443939454  0.3870210240325782  0.28288456002188056  1.0000
  C   C4        1.0  0.5221490325324305  0.3870210460901793  0.2828844265813953  1.0000
  C   C5        1.0  0.4755870260606978  0.40934417761222536  0.40953183998875703  1.0000
  C   C6        1.0  0.3791544513284361  0.40934428090856345  0.4095317900812392  1.0000
  N   N2        1.0  0.30162796020259214  0.4093442553091835  0.4095318006806193  1.0000
  C   C7        1.0  0.5231297046505045  0.43166749098704776  0.5361791012436343  1.0000
  C   C8        1.0  0.616841016512019  0.4316674689294464  0.5361792346841192  1.0000
  H   H1        1.0  0.6511750044458703  0.3696522266269273  0.184345722114361  1.0000
  H   H2        1.0  0.4860713489102141  0.3696524045304914  0.18434571709021386  1.0000
  H   H3        1.0  0.4878151120056271  0.44903627993703554  0.6347180472172296  1.0000
  H   H4        1.0  0.6529187005558121  0.4490361990163936  0.6347180541357036  1.0000
  C   C9        1.0  0.06950324717468526  0.027870272752941187  0.40973605463885976  1.0000
  C   C10       1.0  0.06630353157255686  0.0365536162874065  0.25807482363889794  1.0000
  C   C11       1.0  0.06466401648783937  0.9243858597156187  0.18037433995394372  1.0000
  C   C12       1.0  0.06629075713949752  0.8013779629748309  0.2574870071646729  1.0000
  C   C13       1.0  0.06949545426301507  0.7908083271296598  0.409340067459483  1.0000
  C   C14       1.0  0.07107992927059392  0.9045229198205984  0.48447332912490954  1.0000
  C   C15       1.0  0.06120305026744369  0.9432097037009937  0.01634200959885801  1.0000
  C   C16       1.0  0.008436363313888648  0.8438703422562029  0.9361123370593649  1.0000
  C   C17       1.0  0.11047822204755799  0.844143029084819  0.9315338980670891  1.0000
  H   H5        1.0  0.0707447065279061  0.3520627559576488  0.46817599150191735  1.0000
  H   H6        1.0  0.06506845293650868  0.13132823130751614  0.19952522108403084  1.0000
  H   H7        1.0  0.0650878030513156  0.7133366241793718  0.20056331574445665  1.0000
  H   H8        1.0  0.07354812803984268  0.8970960950742916  0.6014831536185801  1.0000
  H   H9        1.0  0.07553632462903753  0.5636288112530886  0.6961477399973472  1.0000
  H   H10       1.0  0.060091457333758785  0.04351622598798598  0.9636191350258434  1.0000
  H   H11       1.0  0.9787972352363631  0.7607416944938686  0.0017010554479506277  1.0000
  H   H12       1.0  0.9764362112833838  0.883952198476894  0.8341426259533447  1.0000
  H   H13       1.0  0.1428240464004622  0.7611808294784648  0.9943422130074351  1.0000
  H   H14       1.0  0.1381170406251876  0.8843818811118381  0.826886961078921  1.0000
  C   C18       1.0  0.0678579891214095  0.4060557412959645  0.9863085454337548  1.0000
  C   C19       1.0  0.9977765014754981  0.46935334967496045  0.05409057056525324  1.0000
  C   C20       1.0  0.9336952952547427  0.5412844272209738  0.9727684742244858  1.0000
  C   C21       1.0  0.9385071888013939  0.5514241444832884  0.8221814138977868  1.0000
  C   C22       1.0  0.0067859425915510795  0.4874285850197291  0.7526913863563078  1.0000
  C   C23       1.0  0.07114067841335303  0.4126228152540461  0.8327675624288438  1.0000
  C   C24       1.0  0.8726151104294965  0.6263901513221235  0.7385451241951873  1.0000
  C   C25       1.0  0.8174423650654609  0.6891639444481372  0.6684845035329792  1.0000
  C   C26       1.0  0.750500159622797  0.765329328569126  0.5834663096850883  1.0000
  H   H15       1.0  0.2757923011467249  0.3012469822000503  0.09932077244497295  1.0000
  H   H16       1.0  0.9937518045541798  0.46575238097633137  0.17088397787724358  1.0000
  H   H17       1.0  0.8808297007131536  0.5901102682169377  0.027556168129921236  1.0000
  H   H18       1.0  0.008441088563395205  0.493537087782826  0.6355419200475888  1.0000
  H   H19       1.0  0.20988263565475573  0.3373942896347564  0.5592242075150385  1.0000
  H   H20       1.0  0.7687043151108981  0.7690617173287697  0.46746538325451104  1.0000
  H   H21       1.0  0.6837801570530013  0.7190706028550955  0.5985166039742205  1.0000
  H   H22       1.0  0.7482319520115012  0.8656364986026186  0.6199189778709362  1.0000
  Zn  Zn1       1.0  0.9713392309337472  0.4093408421679825  0.40954017290424694  1.0000
  Zn  Zn2       1.0  0.16765087495210873  0.4093371240820369  0.4095353165052187  1.0000
  C   C27       1.0  0.07051824786785432  0.40620642528986683  0.6727714044189225  1.0000
  C   C28       1.0  0.06847400226687045  0.41247318108820497  0.1463042255445408  1.0000
  C   C29       1.0  0.069470030456517  0.6465522337629053  0.40367172170736465  1.0000
  C   C30       1.0  0.06952215300473052  0.17212581247998407  0.41540398590630656  1.0000
  O   O1        1.0  0.14317998778207663  0.41461985420941194  0.1999983973314621  1.0000
  O   O2        1.0  0.14480825622139737  0.4040559470161638  0.6190731323652063  1.0000
  O   O3        1.0  0.14396080893158938  0.5981382385914418  0.4017732339745521  1.0000
  O   O4        1.0  0.1440273676648376  0.22053757108979696  0.4172981876560392  1.0000
  O   O5        1.0  0.9949626712294591  0.5981403951628463  0.4017773017475021  1.0000
  O   O6        1.0  0.9958101182011848  0.4040596637253755  0.619077122482023  1.0000
  O   O7        1.0  0.9941818431018775  0.4146235122066455  0.20000065468534456  1.0000
  O   O8        1.0  0.9950292234001268  0.2205412206339918  0.417300553070074  1.0000
