data_image0
_chemical_formula_structural       NC6NC3H6C6NH5C7F3H4Zn2C4O8
_chemical_formula_sum              "N3 C26 H15 F3 Zn2 O8"
_cell_length_a       14.934028789175542
_cell_length_b       9.274771166103582
_cell_length_c       10.299327507215196
_cell_angle_alpha    85.44807283694688
_cell_angle_beta     89.95631350132989
_cell_angle_gamma    90.55950156128424

_space_group_name_H-M_alt    "P 1"
_space_group_IT_number       1

loop_
  _space_group_symop_operation_xyz
  'x, y, z'

loop_
  _atom_site_type_symbol
  _atom_site_label
  _atom_site_symmetry_multiplicity
  _atom_site_fract_x
  _atom_site_fract_y
  _atom_site_fract_z
  _atom_site_occupancy
  N   N1        1.0  0.8537236486745253  0.5780216995585243  0.5643648304026218  1.0000
  C   C1        1.0  0.7762306067282002  0.5769233779935712  0.5637550374421687  1.0000
  C   C2        1.0  0.6798253250406754  0.5755520160360428  0.5629938248745088  1.0000
  C   C3        1.0  0.6327438196989259  0.6823546164725993  0.6221811604464169  1.0000
  C   C4        1.0  0.5392250730223365  0.6812535085826028  0.6215708370183631  1.0000
  C   C5        1.0  0.4918756301634817  0.5734043045489869  0.5618035636243951  1.0000
  C   C6        1.0  0.39524461841239716  0.5757183179429106  0.563087097156346  1.0000
  N   N2        1.0  0.31777620959622976  0.5775547792670299  0.5641060386649138  1.0000
  C   C7        1.0  0.5389421426115777  0.4651241135747499  0.501796884255931  1.0000
  C   C8        1.0  0.48987818880390077  0.3478696103666911  0.4368185433833432  1.0000
  C   C9        1.0  0.633099122234252  0.46734879747993724  0.5030297957606216  1.0000
  H   H1        1.0  0.668324705573164  0.7665051585523398  0.6688158216979029  1.0000
  H   H2        1.0  0.5037218810545514  0.7647559694509827  0.6678462178992015  1.0000
  H   H3        1.0  0.4474643038228107  0.39696385658930167  0.35690588799720563  1.0000
  H   H4        1.0  0.44671028253312434  0.2849976532869196  0.5091019440114981  1.0000
  H   H5        1.0  0.5368527274045123  0.2719221807714376  0.3947245547731064  1.0000
  H   H6        1.0  0.6701024576095462  0.3849571682164803  0.457370272447839  1.0000
  C   C10       1.0  0.08300501017267775  0.1541943310630689  0.5649448529791725  1.0000
  C   C11       1.0  0.06242636068218996  0.23754162949967553  0.448815868517247  1.0000
  C   C12       1.0  0.050208151746896384  0.17252249155457755  0.33194536044023604  1.0000
  C   C13       1.0  0.058615726825818726  0.02277866478146006  0.3303572571727276  1.0000
  C   C14       1.0  0.07753893799350293  0.9381138490636061  0.4448917345211434  1.0000
  C   C15       1.0  0.08850339044572014  0.0013710530130457334  0.5635372725010929  1.0000
  N   N3        1.0  0.03017993639637795  0.25896893018899414  0.21453961802531674  1.0000
  H   H7        1.0  0.18371365636520232  0.23370965088675688  0.8491201263694416  1.0000
  H   H8        1.0  0.049638849942181824  0.9713142882531832  0.2404369559424962  1.0000
  H   H9        1.0  0.15270502840964784  0.704210434834236  0.7568794827121301  1.0000
  H   H10       1.0  0.024010555728753324  0.37104904564001684  0.2145008761672276  1.0000
  H   H11       1.0  0.02128687388583339  0.2115213489691532  0.12675510310475224  1.0000
  C   C16       1.0  0.0858403223018791  0.577841176985542  0.18285932231262475  1.0000
  C   C17       1.0  0.17323136753418078  0.6355916793455416  0.17744422101932988  1.0000
  C   C18       1.0  0.21667874648286378  0.6671735431995514  0.05741256431341357  1.0000
  C   C19       1.0  0.17300521422937673  0.6354389426402601  0.9422071430893487  1.0000
  C   C20       1.0  0.08566809363508998  0.5777241933834627  0.9456227888977584  1.0000
  C   C21       1.0  0.04246263095322433  0.5497949111798077  0.06642082137223415  1.0000
  C   C22       1.0  0.31169055037461746  0.7242792204568997  0.05300240639232823  1.0000
  F   F1        1.0  0.3278782338929471  0.8084988239725823  0.15574488682784438  1.0000
  F   F2        1.0  0.3700904081767212  0.6092111607224255  0.0610294674060714  1.0000
  F   F3        1.0  0.3276321166773557  0.8084795004771075  0.9381016528706821  1.0000
  H   H12       1.0  0.9215149578496851  0.46644692712446356  0.4004880153550794  1.0000
  H   H13       1.0  0.2077021206808309  0.6558453824156951  0.26678789056383434  1.0000
  H   H14       1.0  0.20732082052364575  0.655583999032493  0.8497745166346321  1.0000
  H   H15       1.0  0.9751054831080412  0.5052869472240193  0.06978955707038081  1.0000
  Zn  Zn1       1.0  0.9876391804030983  0.577883089893074  0.5642976492242673  1.0000
  Zn  Zn2       1.0  0.1838606288468022  0.5776815713243388  0.5641838575472448  1.0000
  C   C23       1.0  0.08566133014791272  0.571999782536728  0.8014536990327734  1.0000
  C   C24       1.0  0.08584063361782769  0.5835666965072597  0.327027930942811  1.0000
  C   C25       1.0  0.08746062839719834  0.8412373870378299  0.5586279698472358  1.0000
  C   C26       1.0  0.08404125714830156  0.3143273590058169  0.5698537322876596  1.0000
  O   O1        1.0  0.1603057143227139  0.5854054648659923  0.3753690601032845  1.0000
  O   O2        1.0  0.1601237815783287  0.5700069781076211  0.7530258325718753  1.0000
  O   O3        1.0  0.16157573354083932  0.7874197495402648  0.5569423363123032  1.0000
  O   O4        1.0  0.1588536954920774  0.3679927038358819  0.5714524590066019  1.0000
  O   O5        1.0  0.012646046797084802  0.7875719574518705  0.5570290477969071  1.0000
  O   O6        1.0  0.011194106094076343  0.5701609190899073  0.753112471929166  1.0000
  O   O7        1.0  0.011376038924401756  0.5855593558210612  0.37545413809091976  1.0000
  O   O8        1.0  0.009924020001152337  0.3681465844587577  0.5715376343824903  1.0000
