data_image0
_chemical_formula_structural       NC8NC6H8C6NCOC6H10C7OC3NC3H11Zn2C4O8
_chemical_formula_sum              "N4 C44 H29 O10 Zn2"
_cell_length_a       17.457602349358154
_cell_length_b       10.29965916528486
_cell_length_c       10.298749378158432
_cell_angle_alpha    85.57464278776025
_cell_angle_beta     92.88501269270333
_cell_angle_gamma    91.70433465767697

_space_group_name_H-M_alt    "P 1"
_space_group_IT_number       1

loop_
  _space_group_symop_operation_xyz
  'x, y, z'

loop_
  _atom_site_type_symbol
  _atom_site_label
  _atom_site_symmetry_multiplicity
  _atom_site_fract_x
  _atom_site_fract_y
  _atom_site_fract_z
  _atom_site_occupancy
  N   N1        1.0  0.722554638214414  0.45290177683076577  0.6268606413231743  1.0000
  C   C1        1.0  0.6614675928310124  0.4069782327440324  0.6162286843953131  1.0000
  C   C2        1.0  0.5854727272376443  0.34985505748420404  0.6030120747202323  1.0000
  C   C3        1.0  0.5269581559414682  0.3900107566639415  0.6779300421927958  1.0000
  C   C4        1.0  0.4524018049798437  0.3350057580612471  0.665328630883129  1.0000
  C   C5        1.0  0.3902971446374266  0.3774042451901145  0.7446695573463253  1.0000
  C   C6        1.0  0.31574857474818446  0.3958762687239133  0.6889070005153477  1.0000
  C   C7        1.0  0.25723397807752274  0.435848038366486  0.7639328706329884  1.0000
  C   C8        1.0  0.1812471545036956  0.4549260613886521  0.7059548482370125  1.0000
  N   N2        1.0  0.12016666374264881  0.47025841231743404  0.6593406671744511  1.0000
  C   C9        1.0  0.2727758788085823  0.4575908847433144  0.8952299431254915  1.0000
  C   C10       1.0  0.34653984949255473  0.4395078124327638  0.951380263207644  1.0000
  C   C11       1.0  0.4050429155813137  0.3997160607844932  0.8768122166838288  1.0000
  C   C12       1.0  0.4376484183008988  0.2391677568181381  0.5763759744410606  1.0000
  C   C13       1.0  0.4961513578859327  0.1992907034753313  0.5018581399522213  1.0000
  C   C14       1.0  0.5699230141076844  0.25440803610489726  0.5150095894393665  1.0000
  H   H1        1.0  0.5393216859945801  0.4651988302334302  0.7445919052384171  1.0000
  H   H2        1.0  0.3033914571892726  0.38091359024820104  0.5868680759399508  1.0000
  H   H3        1.0  0.2279258318201389  0.48846883158584303  0.9540814958237103  1.0000
  H   H4        1.0  0.3583834970481209  0.4560281471213741  0.05304640972627773  1.0000
  H   H5        1.0  0.4615301552056963  0.38472124899158344  0.9229179736194366  1.0000
  H   H6        1.0  0.38115475194379966  0.19383387175381037  0.5657080930364723  1.0000
  H   H7        1.0  0.4843017240109217  0.12521915505707404  0.43399821505885416  1.0000
  H   H8        1.0  0.6147729985248109  0.22266037200060884  0.45666892042723456  1.0000
  C   C15       1.0  0.9212968216967135  0.08021661454672002  0.6429799541126262  1.0000
  C   C16       1.0  0.9218056967188847  0.08953072773063321  0.5061960046414218  1.0000
  C   C17       1.0  0.9231933957846933  0.977436254193053  0.43746897488921094  1.0000
  C   C18       1.0  0.9219502781005553  0.8543467224782462  0.5065042201036635  1.0000
  C   C19       1.0  0.921431799052426  0.842933836003324  0.643233157665257  1.0000
  C   C20       1.0  0.9213779702200711  0.9564886169174457  0.7107213252346825  1.0000
  N   N3        1.0  0.9225350058225533  0.9904915253943385  0.2973393096890713  1.0000
  C   C21       1.0  0.9584909799993625  0.9009386017753431  0.22054481098893564  1.0000
  O   O1        1.0  0.011421829723673902  0.8304267259883628  0.2718499231733944  1.0000
  C   C22       1.0  0.9361779057584002  0.8937790898705722  0.08034625183034261  1.0000
  C   C23       1.0  0.86523036353477  0.9405431027852401  0.02820171779410363  1.0000
  C   C24       1.0  0.8446597141554577  0.9326422805544805  0.8959896472009651  1.0000
  C   C25       1.0  0.8943218459982114  0.87773003425418  0.8145838810451079  1.0000
  C   C26       1.0  0.9645938807759207  0.8301491236004915  0.8652969196511436  1.0000
  C   C27       1.0  0.985457412101569  0.8377064066323476  0.997428433277991  1.0000
  H   H9        1.0  0.919604635021259  0.2698790957625725  0.9009385109865268  1.0000
  H   H10       1.0  0.9217124798218224  0.1841402936788885  0.45236167333572835  1.0000
  H   H11       1.0  0.9200401062690562  0.7674769902909362  0.45353919691724753  1.0000
  H   H12       1.0  0.9209959438431754  0.9484435465477282  0.81616715271305  1.0000
  H   H13       1.0  0.9006399459612481  0.07567240125160836  0.24960715454036575  1.0000
  H   H14       1.0  0.8250323940862253  0.9814799929192469  0.08940483738998631  1.0000
  H   H15       1.0  0.7899790788015856  0.9686914801450829  0.8567347692527766  1.0000
  H   H16       1.0  0.8782456793125478  0.8716791232943533  0.712306201770863  1.0000
  H   H17       1.0  0.002976416708656335  0.7873373542397624  0.8021816606142553  1.0000
  H   H18       1.0  0.04032996755365017  0.8004796441384174  0.034480127706668647  1.0000
  C   C28       1.0  0.9213289367444369  0.4616017022730515  0.26170263020589113  1.0000
  C   C29       1.0  0.9632573578021683  0.5802940508299188  0.2551450954341142  1.0000
  C   C30       1.0  0.9836892460360416  0.6410803734916619  0.1345278231638847  1.0000
  C   C31       1.0  0.9632604155979687  0.5803430446178623  0.019901331313768825  1.0000
  C   C32       1.0  0.9213996744141746  0.4615487590637122  0.024510500562443305  1.0000
  C   C33       1.0  0.9005233650775674  0.4031048116911913  0.14584093493244987  1.0000
  C   C34       1.0  0.028587393711168918  0.765805421226055  0.1275543019310981  1.0000
  O   O2        1.0  0.07652978527247267  0.7862405879441939  0.0401295186418249  1.0000
  C   C35       1.0  0.019099131090330346  0.8673397205670494  0.21970128834252667  1.0000
  C   C36       1.0  0.9473273433183906  0.8867802232708145  0.2705498495297429  1.0000
  C   C37       1.0  0.9387626286255806  0.9839061543329413  0.35658145369361854  1.0000
  N   N4        1.0  0.8657216682704969  0.002568894993448357  0.4082939951418375  1.0000
  C   C38       1.0  0.0020842980715465357  0.06291964424664885  0.39117594582113685  1.0000
  C   C39       1.0  0.07325184982101796  0.045403371959340515  0.33981931126830595  1.0000
  C   C40       1.0  0.08177240610700293  0.9485871766752221  0.2541610035102715  1.0000
  H   H19       1.0  0.8431214768894842  0.2363623136949391  0.48161628254507005  1.0000
  H   H20       1.0  0.9807864667603321  0.6249040383229756  0.3441370826358224  1.0000
  H   H21       1.0  0.9794488241340346  0.6265706237364561  0.9268318686446572  1.0000
  H   H22       1.0  0.8682077706411331  0.3116121954229196  0.15014411835512886  1.0000
  H   H23       1.0  0.8425816259432618  0.2368616923101368  0.8259578451775276  1.0000
  H   H24       1.0  0.8978144698062377  0.8276129618767647  0.24244415488212237  1.0000
  H   H25       1.0  0.8181373060744335  0.9442209770746144  0.3831610630313651  1.0000
  H   H26       1.0  0.8587049658662658  0.07477932429668142  0.47223156806114064  1.0000
  H   H27       1.0  0.9962023727731799  0.13827549679979254  0.4574525412669227  1.0000
  H   H28       1.0  0.12194553935649034  0.10699463402524054  0.3664522257443804  1.0000
  H   H29       1.0  0.13750637757021567  0.9363757225802279  0.21570867277610178  1.0000
  Zn  Zn1       1.0  0.8372968800009194  0.4579070437338826  0.636241173177557  1.0000
  Zn  Zn2       1.0  0.0054244068081244125  0.4652424970045719  0.6499707652888608  1.0000
  C   C41       1.0  0.9213836927981606  0.4563851048475691  0.880321625668874  1.0000
  C   C42       1.0  0.9213394302600801  0.46676615458179543  0.40589059074644523  1.0000
  C   C43       1.0  0.9214018661969334  0.698764260983969  0.6380093468003638  1.0000
  C   C44       1.0  0.9213211992214102  0.22438543565659863  0.6482029336569697  1.0000
  O   O3        1.0  0.9851464711964159  0.4712774925789023  0.4594916942499688  1.0000
  O   O4        1.0  0.985181554294258  0.45744022646911836  0.8371405906910557  1.0000
  O   O5        1.0  0.9851953695669053  0.6531644227318671  0.6414716413150107  1.0000
  O   O6        1.0  0.9851325985458431  0.27555330310990933  0.6551605415605086  1.0000
  O   O7        1.0  0.8575886308895269  0.6475962351267294  0.6310513922138414  1.0000
  O   O8        1.0  0.8575748158831022  0.4518735991509615  0.8267202728558061  1.0000
  O   O9        1.0  0.857539732683426  0.4657108201159644  0.4490698148597841  1.0000
  O   O10       1.0  0.8575258600371044  0.2699866213513997  0.6447387595437626  1.0000
