data_image0
_chemical_formula_structural       NC12NC2H8C6NCOC6H11C7OC6H10Zn2C4O8
_chemical_formula_sum              "N3 C44 H29 O10 Zn2"
_cell_length_a       17.80743265337812
_cell_length_b       10.29965916528486
_cell_length_c       10.299382801718286
_cell_angle_alpha    85.58981362736998
_cell_angle_beta     91.51478421497153
_cell_angle_gamma    89.45195528988226

_space_group_name_H-M_alt    "P 1"
_space_group_IT_number       1

loop_
  _space_group_symop_operation_xyz
  'x, y, z'

loop_
  _atom_site_type_symbol
  _atom_site_label
  _atom_site_symmetry_multiplicity
  _atom_site_fract_x
  _atom_site_fract_y
  _atom_site_fract_z
  _atom_site_occupancy
  N   N1        1.0  0.7079300688467929  0.4063362580846371  0.6018546773766974  1.0000
  C   C1        1.0  0.6571283678551053  0.4358789595489752  0.5331678224635186  1.0000
  C   C2        1.0  0.5939260350299941  0.4726279365542532  0.4477300220070901  1.0000
  C   C3        1.0  0.6056860181644617  0.5266189605277884  0.32113201090454724  1.0000
  C   C4        1.0  0.5443903258209122  0.5618649205271357  0.23808961309866608  1.0000
  C   C5        1.0  0.4711805177007242  0.5433831669008581  0.28098543124415554  1.0000
  C   C6        1.0  0.4584436521691389  0.48927344768813935  0.40805153280897954  1.0000
  C   C7        1.0  0.5205966642931447  0.45403073781264075  0.4910774204351383  1.0000
  C   C8        1.0  0.38066490381363977  0.4696782347446447  0.4538071903616495  1.0000
  C   C9        1.0  0.361859900689555  0.49689248820547616  0.58085826088156  1.0000
  C   C10       1.0  0.2886201461144781  0.4784523159961691  0.623794655624994  1.0000
  C   C11       1.0  0.23324222554041127  0.43254381335686465  0.5405178404618629  1.0000
  C   C12       1.0  0.1578655103188663  0.41355114439565194  0.5848549374794014  1.0000
  N   N2        1.0  0.0972679691233066  0.3982823158827149  0.6204989133751446  1.0000
  C   C13       1.0  0.2513556056029863  0.405160773803764  0.41400966813754936  1.0000
  C   C14       1.0  0.3245425552059243  0.4236156734667538  0.3708173972469275  1.0000
  H   H1        1.0  0.6621606192110538  0.5414346025372735  0.2867009813903305  1.0000
  H   H2        1.0  0.5536137437407769  0.60393891356951  0.14032748436866727  1.0000
  H   H3        1.0  0.4245584036283798  0.573003175800813  0.21540648009316565  1.0000
  H   H4        1.0  0.5120714204887181  0.41057144193181544  0.5887146210816754  1.0000
  H   H5        1.0  0.4035303586643554  0.5340856392425162  0.6464429391411346  1.0000
  H   H6        1.0  0.2751622352277126  0.5003194399707961  0.721809019671749  1.0000
  H   H7        1.0  0.2089684042060606  0.36923496702342695  0.34883837912573845  1.0000
  H   H8        1.0  0.3374717581720494  0.40021310810557575  0.27310582408831513  1.0000
  C   C15       1.0  0.9025365568759028  0.020949881530943012  0.6110583073970648  1.0000
  C   C16       1.0  0.9030741507440136  0.03019434622812422  0.47426973866412236  1.0000
  C   C17       1.0  0.904452749460863  0.9179925081168949  0.4055010057302242  1.0000
  C   C18       1.0  0.9032156383036274  0.7950011815214666  0.47457289472988384  1.0000
  C   C19       1.0  0.9026686558435486  0.7836585425912831  0.6113067909346956  1.0000
  C   C20       1.0  0.9025965573792754  0.8972350775888798  0.6787903755145409  1.0000
  N   N3        1.0  0.903848302353684  0.9310518462298161  0.2654076498702896  1.0000
  C   C21       1.0  0.9390789560391387  0.8391794190398829  0.18736960674421677  1.0000
  O   O1        1.0  0.9908948432506278  0.7652975954756527  0.23682837356526346  1.0000
  C   C22       1.0  0.917269959753171  0.8334083393652054  0.047960719117988944  1.0000
  C   C23       1.0  0.8478121170336979  0.8846938794717494  0.9982894024343129  1.0000
  C   C24       1.0  0.8277070330625531  0.8780722633667868  0.8668056213289105  1.0000
  C   C25       1.0  0.8763602723227379  0.8199630275463232  0.7836799214949567  1.0000
  C   C26       1.0  0.9451570599775436  0.7679033864592444  0.8319433802451153  1.0000
  C   C27       1.0  0.9655489611798446  0.7741627175628384  0.9633364228740309  1.0000
  H   H9        1.0  0.9008054357528028  0.2107905408855903  0.8690510592382112  1.0000
  H   H10       1.0  0.9029983373992131  0.12479526367329098  0.42044379991985736  1.0000
  H   H11       1.0  0.901360387595406  0.7082391946493157  0.42167939190072024  1.0000
  H   H12       1.0  0.9021921785314767  0.8892430427225505  0.784239406942367  1.0000
  H   H13       1.0  0.9014593648204569  0.45187909982278457  0.6637096974234689  1.0000
  H   H14       1.0  0.8824220671196225  0.0176195212675172  0.21844177875034412  1.0000
  H   H15       1.0  0.8084321216054817  0.928217233247848  0.06088513475691304  1.0000
  H   H16       1.0  0.7741742694655438  0.9176065443454632  0.8294568102276406  1.0000
  H   H17       1.0  0.8606476487295592  0.8149121130730873  0.6819713074976105  1.0000
  H   H18       1.0  0.9827599069123653  0.722620695269038  0.767498849410893  1.0000
  H   H19       1.0  0.019270288562213574  0.7334380063982234  0.9984755844002171  1.0000
  C   C28       1.0  0.902677540665138  0.4022294571514353  0.22981633779776603  1.0000
  C   C29       1.0  0.9816020584926672  0.40146025472071023  0.2322924114210703  1.0000
  C   C30       1.0  0.02140908941612318  0.3995842524144065  0.11648267235354481  1.0000
  C   C31       1.0  0.9814189955861863  0.40149207770283857  0.9970380853117389  1.0000
  C   C32       1.0  0.9025276546617087  0.402379009951088  0.9925487408748517  1.0000
  C   C33       1.0  0.8636144928861736  0.40239784216329283  0.10952549432451765  1.0000
  C   C34       1.0  0.10474336099755344  0.40015599122601786  0.1188455336203962  1.0000
  O   O2        1.0  0.1378546174016675  0.4601785490962934  0.02592355312411621  1.0000
  C   C35       1.0  0.15051475295732256  0.33262746367660134  0.22652240738150492  1.0000
  C   C36       1.0  0.22113562080294868  0.38162523814412974  0.26102166618810685  1.0000
  C   C37       1.0  0.2650754122057999  0.317783832221032  0.3613602341907116  1.0000
  C   C38       1.0  0.2393141891258273  0.2040157407753065  0.4274542504889079  1.0000
  C   C39       1.0  0.16968926056641664  0.15355043385439696  0.39297920576923434  1.0000
  C   C40       1.0  0.12553539293520255  0.21701756439657022  0.2927323267612368  1.0000
  H   H20       1.0  0.753735509466779  0.40569269882202713  0.4323088151828747  1.0000
  H   H21       1.0  0.012207866704865285  0.4037775446535364  0.3243578115775805  1.0000
  H   H22       1.0  0.012032034469625195  0.40103015622303856  0.9075526222675232  1.0000
  H   H23       1.0  0.8027696363603084  0.40299163796928  0.10681239308165447  1.0000
  H   H24       1.0  0.872221272453922  0.40382467903730057  0.6632826820414213  1.0000
  H   H25       1.0  0.24200801614708964  0.4698645083597782  0.21111386102928797  1.0000
  H   H26       1.0  0.3191595139781289  0.35654788315092706  0.3878355138095979  1.0000
  H   H27       1.0  0.27343313534340435  0.15468378384780038  0.5050160561576499  1.0000
  H   H28       1.0  0.15003962139490845  0.06482997106001487  0.4435741822171458  1.0000
  H   H29       1.0  0.07235279920966664  0.17495276986468072  0.2661129541864413  1.0000
  Zn  Zn1       1.0  0.8202845779721996  0.40400859861476485  0.6072424868980401  1.0000
  Zn  Zn2       1.0  0.9849134535878646  0.40059938423630137  0.6151216933785859  1.0000
  C   C41       1.0  0.9025534369269107  0.39717722044427817  0.8483742535277815  1.0000
  C   C42       1.0  0.9026463926341354  0.4074323637817041  0.3739901407889706  1.0000
  C   C43       1.0  0.9026408459104502  0.6394894637067381  0.6060845211091889  1.0000
  C   C44       1.0  0.9025589271904063  0.16511856143274328  0.6162799392487142  1.0000
  O   O3        1.0  0.9651117384145845  0.40787906208744706  0.4253663020673346  1.0000
  O   O4        1.0  0.9650375983896237  0.3941420275379328  0.8029778534931206  1.0000
  O   O5        1.0  0.9651073397802855  0.589812246134457  0.6073271404562147  1.0000
  O   O6        1.0  0.9650419408679796  0.21220885392515365  0.6210169150446472  1.0000
  O   O7        1.0  0.8401560345123306  0.5923991300907229  0.6013472625363616  1.0000
  O   O8        1.0  0.8400862934021043  0.3967304717455085  0.7969979068364995  1.0000
  O   O9        1.0  0.8401604337759632  0.41046746073302637  0.41938479400869394  1.0000
  O   O10       1.0  0.8400906362055475  0.2147972433013121  0.615035504349983  1.0000
