data_image0
_chemical_formula_structural       NC10NC3NH7C7OC6OCH12C7OC3OC4H12Zn2C4O8
_chemical_formula_sum              "N3 C45 H31 O12 Zn2"
_cell_length_a       19.210446455230148
_cell_length_b       10.299359160628079
_cell_length_c       10.299374482448636
_cell_angle_alpha    85.55316158380268
_cell_angle_beta     89.97251480092041
_cell_angle_gamma    89.96984927250973

_space_group_name_H-M_alt    "P 1"
_space_group_IT_number       1

loop_
  _space_group_symop_operation_xyz
  'x, y, z'

loop_
  _atom_site_type_symbol
  _atom_site_label
  _atom_site_symmetry_multiplicity
  _atom_site_fract_x
  _atom_site_fract_y
  _atom_site_fract_z
  _atom_site_occupancy
  N   N1        1.0  0.656012223184103  0.4205605740495528  0.5674794170322113  1.0000
  C   C1        1.0  0.5957839296479559  0.4227680484872185  0.5677108919204332  1.0000
  C   C2        1.0  0.5209798072665636  0.42550491261369044  0.567997660724803  1.0000
  C   C3        1.0  0.4853818877540836  0.5417325100304984  0.5831267361328161  1.0000
  C   C4        1.0  0.41271643567342003  0.5418840617956069  0.583074159061858  1.0000
  C   C5        1.0  0.3758131324039059  0.426213863153994  0.568084249171088  1.0000
  C   C6        1.0  0.2984908500612045  0.42485741475506456  0.5679334561861218  1.0000
  C   C7        1.0  0.2607594612004184  0.5284449298441158  0.5045847106535413  1.0000
  C   C8        1.0  0.18798094065713944  0.5270427153727488  0.5044754300773768  1.0000
  C   C9        1.0  0.1519324388225247  0.42231051062936475  0.5676639339141665  1.0000
  C   C10       1.0  0.0770027707271052  0.4210084532013978  0.5675269125148066  1.0000
  N   N2        1.0  0.016764799373528996  0.4199615548113145  0.5674167821802909  1.0000
  C   C11       1.0  0.1889401901560769  0.3188486954297185  0.6309876884031154  1.0000
  C   C12       1.0  0.26172051671385005  0.31997662688671435  0.6311471766885494  1.0000
  C   C13       1.0  0.4140211065058974  0.31180646285649605  0.5532436106330232  1.0000
  N   N3        1.0  0.48479134487820613  0.31425141496427056  0.5534095322964943  1.0000
  H   H1        1.0  0.5134926064187688  0.6311637545995714  0.5951884738260758  1.0000
  H   H2        1.0  0.3854572068178654  0.6318968192367129  0.596530747069463  1.0000
  H   H3        1.0  0.2875045368256139  0.6097119792365342  0.4536042759292979  1.0000
  H   H4        1.0  0.1598520241760593  0.607481712659782  0.4548253097949066  1.0000
  H   H5        1.0  0.1615556656529052  0.23744631908133518  0.6805381815967144  1.0000
  H   H6        1.0  0.28920436702925784  0.23965644832563315  0.6822350845208187  1.0000
  H   H7        1.0  0.38774603739610247  0.22093078957935147  0.5397406493329819  1.0000
  C   C14       1.0  0.8363099282498934  0.038882927620558436  0.5674166255025308  1.0000
  C   C15       1.0  0.7787488228332291  0.04427891307358811  0.4830271252232827  1.0000
  C   C16       1.0  0.7502157660134171  0.9300153229453101  0.43937011320687946  1.0000
  C   C17       1.0  0.7789145888891037  0.8090170658676618  0.48328221038101593  1.0000
  C   C18       1.0  0.8364737474196827  0.8016291857711411  0.5674908457114132  1.0000
  C   C19       1.0  0.8649361043384262  0.9171489807484732  0.6088622773632798  1.0000
  C   C20       1.0  0.6889532561509019  0.9378499753507448  0.35144461368842234  1.0000
  O   O1        1.0  0.6447155931439261  0.026793438474487452  0.36301917311160525  1.0000
  C   C21       1.0  0.6778740635803688  0.8448537799136445  0.25039600322738464  1.0000
  C   C22       1.0  0.734503612517636  0.7914257079987612  0.18632907763443107  1.0000
  C   C23       1.0  0.7233315050036538  0.7050798102800162  0.09024632420643373  1.0000
  C   C24       1.0  0.6557136487274787  0.6712857853510514  0.05549431701975815  1.0000
  C   C25       1.0  0.5988500193085838  0.7257493246808364  0.11824948489233456  1.0000
  C   C26       1.0  0.6099584667652955  0.812154206729904  0.21437867225666607  1.0000
  O   O2        1.0  0.6472991402532217  0.5840951075219115  0.9585945668319144  1.0000
  C   C27       1.0  0.581708530101513  0.5413699326649813  0.9137365265225688  1.0000
  H   H8        1.0  0.9447456716400596  0.23593880473298023  0.7270778768489807  1.0000
  H   H9        1.0  0.7563676112920147  0.13765174550106996  0.4500452353716033  1.0000
  H   H10       1.0  0.7558113858798984  0.7204252931656104  0.45283384679203187  1.0000
  H   H11       1.0  0.9093368578634776  0.9121821344947185  0.6738252494697713  1.0000
  H   H12       1.0  0.8583757666297208  0.4712898602952732  0.6002061452098195  1.0000
  H   H13       1.0  0.787421580197976  0.8174205009343641  0.2094517054458835  1.0000
  H   H14       1.0  0.7675168239931889  0.6645698929830843  0.04205594360269082  1.0000
  H   H15       1.0  0.545903240532508  0.7020319502029336  0.09348219704660932  1.0000
  H   H16       1.0  0.5653842876748154  0.8526192188453227  0.2615183275862569  1.0000
  H   H17       1.0  0.5904108321085412  0.47297773712230945  0.837257902737826  1.0000
  H   H18       1.0  0.5511286473559299  0.6257787824772124  0.8712305315900251  1.0000
  H   H19       1.0  0.5524741371666204  0.48983024631202404  0.9952797741401043  1.0000
  C   C28       1.0  0.8364563371517973  0.4203434638147576  0.1860711763374232  1.0000
  C   C29       1.0  0.9091689501765469  0.434887399825687  0.18368860501235407  1.0000
  C   C30       1.0  0.9457555652445518  0.44369452602959214  0.06519927262765823  1.0000
  C   C31       1.0  0.9090025500083629  0.4348238038364726  0.948449776938609  1.0000
  C   C32       1.0  0.8363273211054097  0.42016868086481235  0.9488362091228604  1.0000
  C   C33       1.0  0.8004551060140381  0.41335437918405765  0.0681530862443418  1.0000
  C   C34       1.0  0.022616466131418322  0.4576932351208345  0.06264828954072144  1.0000
  O   O3        1.0  0.05675602609921193  0.404093276760893  0.9767900218285911  1.0000
  C   C35       1.0  0.06074481432018142  0.5325130430340246  0.15741677799272843  1.0000
  C   C36       1.0  0.12865069999066178  0.49568160370589  0.19556569794755885  1.0000
  C   C37       1.0  0.16584712261265744  0.5658855235721079  0.28376941476513906  1.0000
  O   O4        1.0  0.2331865424544859  0.5238805491106385  0.3190468850409307  1.0000
  C   C38       1.0  0.2768132790501301  0.5856802326910391  0.4074376566283619  1.0000
  C   C39       1.0  0.13475314172756003  0.6753262841611529  0.3337001111903486  1.0000
  C   C40       1.0  0.06766027020576115  0.713489617220963  0.2950406255198319  1.0000
  C   C41       1.0  0.030865563115514145  0.6430520157727668  0.2070778488368605  1.0000
  H   H20       1.0  0.6993572575405597  0.39090949687003596  0.3980430937592034  1.0000
  H   H21       1.0  0.9375204481329539  0.43793238180866517  0.274275263810557  1.0000
  H   H22       1.0  0.9371940648394874  0.4406327094028836  0.8570518398032138  1.0000
  H   H23       1.0  0.7443989936602672  0.4021412156696446  0.06918615913979065  1.0000
  H   H24       1.0  0.8084741499506255  0.4134552084829428  0.621611607835364  1.0000
  H   H25       1.0  0.15277310413081935  0.4113275254253641  0.15767479752566138  1.0000
  H   H26       1.0  0.32690817889335216  0.5322386310126139  0.41738245394708984  1.0000
  H   H27       1.0  0.2516768304159099  0.583920990156015  0.5046765504611727  1.0000
  H   H28       1.0  0.28753697737875616  0.6876705092559445  0.36978417842458544  1.0000
  H   H29       1.0  0.16204308910908607  0.7317199930732066  0.40189181514856354  1.0000
  H   H30       1.0  0.0441917226678974  0.7983316707824365  0.3329603910213679  1.0000
  H   H31       1.0  0.9793980526078806  0.6758649985703777  0.1768657990828781  1.0000
  Zn  Zn1       1.0  0.7601176211358965  0.42038424418132614  0.5674688409651487  1.0000
  Zn  Zn2       1.0  0.9126593814100322  0.42012729943892085  0.567437993375322  1.0000
  C   C42       1.0  0.8363490503680145  0.41502792734867694  0.8046568183829473  1.0000
  C   C43       1.0  0.8364296182595603  0.4254852520957655  0.3302501432510381  1.0000
  C   C44       1.0  0.836440067879754  0.6574551339755843  0.5623014274089775  1.0000
  C   C45       1.0  0.8363385483491629  0.18305648520033801  0.5726056033248899  1.0000
  O   O5        1.0  0.8943094529843832  0.4271077081445187  0.3786262145877761  1.0000
  O   O6        1.0  0.8942448819680054  0.41320947652518925  0.7562569604846225  1.0000
  O   O7        1.0  0.8943175991626556  0.6089725127919445  0.5605532678576828  1.0000
  O   O8        1.0  0.894236683756028  0.23134468127820004  0.574329809847999  1.0000
  O   O9        1.0  0.7785402667348855  0.609166862431145  0.5605770244961681  1.0000
  O   O10       1.0  0.7784675498838785  0.41340538652200776  0.7562806480269217  1.0000
  O   O11       1.0  0.7785321212009233  0.42730357324197166  0.3786483406691983  1.0000
  O   O12       1.0  0.7784593519512581  0.23154053706431443  0.5743520332998342  1.0000
