data_image0
_chemical_formula_structural       NC6NC3H6C6NCH9C7ONH5Zn2C4O8
_chemical_formula_sum              "N4 C27 H20 O9 Zn2"
_cell_length_a       14.934028789175542
_cell_length_b       9.273386996610926
_cell_length_c       9.273042158839658
_cell_angle_alpha    86.06883900085258
_cell_angle_beta     90.06873718233021
_cell_angle_gamma    89.3610420342759

_space_group_name_H-M_alt    "P 1"
_space_group_IT_number       1

loop_
  _space_group_symop_operation_xyz
  'x, y, z'

loop_
  _atom_site_type_symbol
  _atom_site_label
  _atom_site_symmetry_multiplicity
  _atom_site_fract_x
  _atom_site_fract_y
  _atom_site_fract_z
  _atom_site_occupancy
  N   N1        1.0  0.8314008413012188  0.5612571411054157  0.4070335382071154  1.0000
  C   C1        1.0  0.7539212919532897  0.5601514322274728  0.4063565808410723  1.0000
  C   C2        1.0  0.6575328573158641  0.5587708485429217  0.405511526003487  1.0000
  C   C3        1.0  0.6091391697710229  0.6662905014792855  0.4712179680429971  1.0000
  C   C4        1.0  0.5156339512136514  0.6651819995740993  0.47054042143302266  1.0000
  C   C5        1.0  0.46960954926415255  0.5566087170969116  0.404190165107535  1.0000
  C   C6        1.0  0.3729501089066146  0.5589382801378981  0.40561507124810114  1.0000
  N   N2        1.0  0.2954591387835185  0.5607870855709058  0.40674624222709954  1.0000
  C   C7        1.0  0.5180063970328679  0.4476015474373825  0.33757413396458374  1.0000
  C   C8        1.0  0.4703830395366491  0.32955983358250696  0.2654388440227935  1.0000
  C   C9        1.0  0.6121360441354553  0.44984116800948065  0.3389428427699184  1.0000
  H   H1        1.0  0.6436861784626742  0.7510060207041982  0.5229891387863841  1.0000
  H   H2        1.0  0.4791048442570443  0.7492450849538597  0.5219127394154939  1.0000
  H   H3        1.0  0.4272298790607166  0.3777150658938675  0.1767611723079574  1.0000
  H   H4        1.0  0.4281236900543191  0.26753446062576214  0.3456469452954915  1.0000
  H   H5        1.0  0.5182906647428166  0.2531024383699323  0.21870847379026048  1.0000
  H   H6        1.0  0.6501516470991611  0.36689637525618535  0.2882542150374938  1.0000
  C   C10       1.0  0.06618852528184549  0.1373727809343827  0.40759644476229073  1.0000
  C   C11       1.0  0.0817882781148835  0.21945976213447846  0.27726474438295456  1.0000
  C   C12       1.0  0.08895696248609508  0.15357671031790796  0.1469302079830539  1.0000
  C   C13       1.0  0.08063305306251828  0.0032492908873962244  0.14359506777124365  1.0000
  C   C14       1.0  0.06661087343775707  0.920193028412446  0.27347308185243135  1.0000
  C   C15       1.0  0.06068012406908795  0.9846604271659839  0.40619582397228426  1.0000
  N   N3        1.0  0.08704223421011359  0.9323022388733181  0.010570207813577651  1.0000
  C   C16       1.0  0.10182650468898032  0.00870212368098634  0.8699086746220823  1.0000
  H   H7        1.0  0.08470572891701764  0.4019914486995077  0.644218617908498  1.0000
  H   H8        1.0  0.08635378786395459  0.3360824033044558  0.2754936057705617  1.0000
  H   H9        1.0  0.10015697568899479  0.22113615601798386  0.04901889430033536  1.0000
  H   H10       1.0  0.062382204371640174  0.8037722903623442  0.2712019257940057  1.0000
  H   H11       1.0  0.09398067490614376  0.8569627678158203  0.7572302795139152  1.0000
  H   H12       1.0  0.08071442946124731  0.8199730106232807  0.013562958487309823  1.0000
  H   H13       1.0  0.046292167111890964  0.0870681384963707  0.8449002541476276  1.0000
  H   H14       1.0  0.16663866299302366  0.0661906691819878  0.8701011303891405  1.0000
  H   H15       1.0  0.10400333574290573  0.9303644728712657  0.7845789294458582  1.0000
  C   C17       1.0  0.06303513653037648  0.5565583944149848  0.9836388506730289  1.0000
  C   C18       1.0  0.9807314738042272  0.5658284202660719  0.05635539267270918  1.0000
  C   C19       1.0  0.8999540941592098  0.5890512283159491  0.9801108963927212  1.0000
  C   C20       1.0  0.9019881394636621  0.6012609751730198  0.8285907000017816  1.0000
  C   C21       1.0  0.982839675468918  0.5898743109467841  0.7548691364278666  1.0000
  C   C22       1.0  0.0638335586714744  0.5654747934324994  0.8301534180000472  1.0000
  C   C23       1.0  0.8143226907113711  0.5990972287805965  0.06000743140222409  1.0000
  O   O1        1.0  0.8087034531972501  0.5432751402128948  0.18747404661924488  1.0000
  N   N4        1.0  0.7376800282582942  0.6723644116439083  0.9963971372183451  1.0000
  H   H16       1.0  0.27992805459111336  0.611443752686293  0.08337330131021294  1.0000
  H   H17       1.0  0.841003089651083  0.6155867090507434  0.7659816885804442  1.0000
  H   H18       1.0  0.21007008926425608  0.5957490694049986  0.5470906782525505  1.0000
  H   H19       1.0  0.7415873302028484  0.7346580471776079  0.8986256541246376  1.0000
  H   H20       1.0  0.6771588550457952  0.6722633381439465  0.05267733922561458  1.0000
  Zn  Zn1       1.0  0.965318088234263  0.5611177149232314  0.40695895413771876  1.0000
  Zn  Zn2       1.0  0.16154200985802505  0.5609148183473969  0.4068326297628999  1.0000
  C   C24       1.0  0.06371798269456265  0.5580421770860315  0.6701535172562942  1.0000
  C   C25       1.0  0.06314424645624436  0.5639921757441901  0.1436382037227193  1.0000
  C   C26       1.0  0.06171131801068873  0.8244445470168883  0.40071695456864703  1.0000
  C   C27       1.0  0.06515085552351248  0.2975880734064582  0.4130748461623446  1.0000
  O   O2        1.0  0.13764686128845594  0.5664037285997827  0.19728751918082618  1.0000
  O   O3        1.0  0.1381447907464878  0.5554755377143825  0.6164079114116787  1.0000
  O   O4        1.0  0.13652338121332974  0.7705988373753287  0.3988359788995262  1.0000
  O   O5        1.0  0.13926820369466153  0.3512804381899403  0.41485934364903043  1.0000
  O   O6        1.0  0.9875918274360156  0.7707520951514168  0.3989322402871122  1.0000
  O   O7        1.0  0.9892132256241679  0.555630527968076  0.616504093082811  1.0000
  O   O8        1.0  0.9887152949181325  0.5665586503273083  0.1973819680350304  1.0000
  O   O9        1.0  0.9903366374896793  0.351435350737092  0.4149539005827074  1.0000
