data_image0
_chemical_formula_structural       NC11NC3H8C12SCH12C13NH12Zn2C4O8
_chemical_formula_sum              "N3 C44 H32 S1 Zn2 O8"
_cell_length_a       17.807433833752565
_cell_length_b       10.299776766347529
_cell_length_c       10.299780419254978
_cell_angle_alpha    85.57449051580878
_cell_angle_beta     88.51101288378402
_cell_angle_gamma    90.66624570658541

_space_group_name_H-M_alt    "P 1"
_space_group_IT_number       1

loop_
  _space_group_symop_operation_xyz
  'x, y, z'

loop_
  _atom_site_type_symbol
  _atom_site_label
  _atom_site_symmetry_multiplicity
  _atom_site_fract_x
  _atom_site_fract_y
  _atom_site_fract_z
  _atom_site_occupancy
  N   N1        1.0  0.7073405642049698  0.43813417750221667  0.5347712249954351  1.0000
  C   C1        1.0  0.6565186957924786  0.4034224826531582  0.6013295353634103  1.0000
  C   C2        1.0  0.5932911664592274  0.3602439948414471  0.6841195796244952  1.0000
  C   C3        1.0  0.6050137862897835  0.2967214846359815  0.8068305714555937  1.0000
  C   C4        1.0  0.5436936416667131  0.25522224778910324  0.8873368454075625  1.0000
  C   C5        1.0  0.47049650264305454  0.27693239693251415  0.8457728851633348  1.0000
  C   C6        1.0  0.4577971219182064  0.340609356110545  0.7226017206735644  1.0000
  C   C7        1.0  0.3800318862091601  0.3636489987022519  0.6782572736396137  1.0000
  C   C8        1.0  0.3612686500859524  0.3467489349857515  0.5486812987984762  1.0000
  C   C9        1.0  0.28804158157884646  0.3684203472426701  0.5070732671620035  1.0000
  C   C10       1.0  0.2326347252706315  0.40731016721672586  0.5942209815901129  1.0000
  C   C11       1.0  0.1572709940433198  0.4296397377426586  0.5512517362591702  1.0000
  N   N2        1.0  0.0966839274712535  0.44759105352738016  0.5167075903048584  1.0000
  C   C12       1.0  0.2507064293989562  0.424420688987719  0.7232658519027364  1.0000
  C   C13       1.0  0.3238807087347357  0.4027144027871929  0.7651293013899653  1.0000
  C   C14       1.0  0.5199745770925884  0.38210403166858486  0.6421118617170596  1.0000
  H   H1        1.0  0.6614783742395883  0.2793145558892671  0.8401940831801482  1.0000
  H   H2        1.0  0.5528883247386277  0.20579140452738742  0.9820672266109218  1.0000
  H   H3        1.0  0.4238552208674368  0.24239074848881992  0.9092080412564982  1.0000
  H   H4        1.0  0.4029619989499763  0.31509276427692784  0.4799661767489995  1.0000
  H   H5        1.0  0.2746159622494228  0.35451815997011926  0.40704209771637884  1.0000
  H   H6        1.0  0.2082965923014581  0.4548537438663357  0.7914661751737563  1.0000
  H   H7        1.0  0.3367776332394039  0.41816193097638865  0.8649777874613325  1.0000
  H   H8        1.0  0.5114780876476767  0.4328972531265525  0.5476158436017182  1.0000
  C   C15       1.0  0.9020866715168867  0.06149928386392701  0.5257343365173814  1.0000
  C   C16       1.0  0.9065827679343101  0.05007632814820552  0.6620335435438113  1.0000
  C   C17       1.0  0.9087886443186787  0.9271478488423736  0.7311061508164098  1.0000
  C   C18       1.0  0.9064391135819808  0.8147850657954905  0.6620553980752852  1.0000
  C   C19       1.0  0.9019450237105476  0.8242161225756032  0.5257553486059816  1.0000
  C   C20       1.0  0.8997935368317721  0.9480128464111285  0.4583578070213761  1.0000
  C   C21       1.0  0.91353672787482  0.9161273556147294  0.8752957172008823  1.0000
  C   C22       1.0  0.8705304739662362  0.8216383928339794  0.9513303895645135  1.0000
  C   C23       1.0  0.8750215394510695  0.8115018222021707  0.08702526792336496  1.0000
  C   C24       1.0  0.9223313056242238  0.8955714822634397  0.14850076720594074  1.0000
  C   C25       1.0  0.9655166560820364  0.9894913061478938  0.07383078919085706  1.0000
  C   C26       1.0  0.9611357522974209  0.9999804390338137  0.938120385313759  1.0000
  S   S1        1.0  0.9281768056190051  0.8821063421249523  0.32261212158687624  1.0000
  C   C27       1.0  0.8526819035342107  0.9963386817780621  0.34564256992431197  1.0000
  H   H9        1.0  0.9004030106264237  0.39330614837554556  0.4737967802529283  1.0000
  H   H10       1.0  0.9073435529862988  0.13693737129720085  0.714954215602873  1.0000
  H   H11       1.0  0.9091587727781457  0.7198488384197773  0.7146890600566287  1.0000
  H   H12       1.0  0.8963255032683477  0.9560566952356793  0.3532087403905808  1.0000
  H   H13       1.0  0.9001950638893417  0.5003551035912591  0.4738255338527859  1.0000
  H   H14       1.0  0.8327184331880223  0.7567456695592417  0.9059726621905404  1.0000
  H   H15       1.0  0.8414257531528818  0.7386356151231268  0.1443029638656892  1.0000
  H   H16       1.0  0.0025289171030860014  0.054420823780247256  0.12081448618009316  1.0000
  H   H17       1.0  0.9956795328001911  0.07250102815158212  0.8822116866151876  1.0000
  H   H18       1.0  0.8677277723454718  0.09302323275061972  0.29606903593695444  1.0000
  H   H19       1.0  0.8439625593386336  0.006829137796856783  0.4513216864430539  1.0000
  H   H20       1.0  0.7998236132620737  0.9595131457337573  0.30597473443588974  1.0000
  C   C28       1.0  0.9020670072486541  0.4427740760019087  0.14438830202114517  1.0000
  C   C29       1.0  0.9564409979163299  0.5431229481944433  0.13320590972922464  1.0000
  C   C30       1.0  0.9839347854923784  0.5940643931061504  0.010398473018588648  1.0000
  C   C31       1.0  0.956337785436457  0.5432926721687534  0.8979105256879544  1.0000
  C   C32       1.0  0.9019646877289901  0.4429413023451888  0.9071013231507229  1.0000
  C   C33       1.0  0.8751317059380112  0.39324731928339074  0.030780547081713076  1.0000
  C   C34       1.0  0.041460332365828245  0.7002223696729929  0.9996599210825726  1.0000
  C   C35       1.0  0.03636238260484248  0.8046751589053159  0.9040721216226139  1.0000
  C   C36       1.0  0.09053110803080244  0.9045065085578247  0.8940492944302062  1.0000
  C   C37       1.0  0.15041728546504118  0.9022580428636175  0.979945262113151  1.0000
  C   C38       1.0  0.156235473321521  0.797543913092224  0.07444286815513945  1.0000
  C   C39       1.0  0.10208228589581103  0.69768824211346  0.08463774466195817  1.0000
  C   C40       1.0  0.2097225689311022  0.00791524914844333  0.9667403099161702  1.0000
  N   N3        1.0  0.267320015414092  0.9766626509207375  0.8711895651739678  1.0000
  H   H21       1.0  0.976798138089584  0.5831228717894819  0.22013206195553467  1.0000
  H   H22       1.0  0.9781094317901663  0.5809761073580134  0.803093629272642  1.0000
  H   H23       1.0  0.8331848985214766  0.31583169334166117  0.038638677837071304  1.0000
  H   H24       1.0  0.8812317858357362  0.40472547845464407  0.5831487907901786  1.0000
  H   H25       1.0  0.990028630603428  0.8098960949143235  0.8379202035371648  1.0000
  H   H26       1.0  0.08567770286608645  0.983787916542911  0.8194367093675745  1.0000
  H   H27       1.0  0.20284806944917363  0.7929820026708638  0.14005533714293117  1.0000
  H   H28       1.0  0.10824524605712904  0.6174214946264207  0.15772366579481978  1.0000
  H   H29       1.0  0.18374648807916905  0.10230984595633653  0.9346667391012436  1.0000
  H   H30       1.0  0.23562835073642696  0.01985470668826838  0.06239530248574887  1.0000
  H   H31       1.0  0.3052161797683046  0.0552737989796319  0.8594933184652844  1.0000
  H   H32       1.0  0.29747470575116886  0.8970925370088234  0.910561482383804  1.0000
  Zn  Zn1       1.0  0.8196966480039796  0.44085975469589644  0.5295659343998877  1.0000
  Zn  Zn2       1.0  0.9843278294637638  0.44485485921639856  0.5219234662779246  1.0000
  C   C41       1.0  0.9019832923397865  0.43773607660942004  0.7629321971578507  1.0000
  C   C42       1.0  0.9020429825738715  0.4479802195531927  0.28855724757185564  1.0000
  C   C43       1.0  0.9019686055655541  0.6800451813359377  0.5205765355288233  1.0000
  C   C44       1.0  0.9020576134515157  0.2056695531985335  0.5309129810021631  1.0000
  O   O1        1.0  0.9645115961073017  0.45123790457288315  0.3340413857191016  1.0000
  O   O2        1.0  0.9644659364602375  0.4375096036900128  0.7116472286798521  1.0000
  O   O3        1.0  0.9644532343076437  0.6331772500316357  0.5159433563427469  1.0000
  O   O4        1.0  0.9645242420937654  0.25557026613673584  0.5297451632928138  1.0000
  O   O5        1.0  0.8395001791934363  0.6301443464136385  0.5217442399861671  1.0000
  O   O6        1.0  0.8395128810620763  0.434478260338235  0.7174480431231605  1.0000
  O   O7        1.0  0.8395585409770211  0.4482065156246049  0.3398406388088646  1.0000
  O   O8        1.0  0.8395711869490734  0.25253886792106045  0.5355445137471389  1.0000
