data_image0
_chemical_formula_structural       NC8NH4C10H6C6F3H5Zn2C4O8
_chemical_formula_sum              "N2 C28 H15 F3 Zn2 O8"
_cell_length_a       13.859017124695912
_cell_length_b       9.275150299802176
_cell_length_c       9.272721663655245
_cell_angle_alpha    85.5566990303468
_cell_angle_beta     90.51616873928766
_cell_angle_gamma    89.4839206584006

_space_group_name_H-M_alt    "P 1"
_space_group_IT_number       1

loop_
  _space_group_symop_operation_xyz
  'x, y, z'

loop_
  _atom_site_type_symbol
  _atom_site_label
  _atom_site_symmetry_multiplicity
  _atom_site_fract_x
  _atom_site_fract_y
  _atom_site_fract_z
  _atom_site_occupancy
  N   N1        1.0  0.8894832658206754  0.5702274592816443  0.40054351925329845  1.0000
  C   C1        1.0  0.8169306167368097  0.547047226465722  0.34448856144344586  1.0000
  C   C2        1.0  0.7266794401879693  0.5182144034211748  0.2747633958394997  1.0000
  C   C3        1.0  0.6393045154675542  0.5463234797723955  0.3427366558461596  1.0000
  C   C4        1.0  0.5514491094195219  0.5182156266111679  0.2747628093630001  1.0000
  C   C5        1.0  0.5511509571619914  0.461991078246852  0.13879483225627043  1.0000
  C   C6        1.0  0.6383442474606282  0.4339900398321961  0.07108322043656456  1.0000
  C   C7        1.0  0.7260163373526917  0.46198873421284214  0.13879602438845606  1.0000
  C   C8        1.0  0.4616907694124926  0.5470481506960019  0.34448805797876236  1.0000
  N   N2        1.0  0.389534388156955  0.5702277808472072  0.400543301330786  1.0000
  H   H1        1.0  0.6396764904240102  0.5898434654382161  0.4479791228865262  1.0000
  H   H2        1.0  0.48366640674995043  0.4398681729591343  0.08529242422429917  1.0000
  H   H3        1.0  0.6379730872913228  0.3905589407412251  0.9660538829059423  1.0000
  H   H4        1.0  0.7931226634196296  0.4398637327461321  0.08529462788678256  1.0000
  C   C9        1.0  0.1420738103848873  0.14653542826421884  0.4029573940400278  1.0000
  C   C10       1.0  0.19216206157666615  0.22798536999052743  0.29386714664304736  1.0000
  C   C11       1.0  0.23394211077390725  0.16120308285658314  0.17923307952272505  1.0000
  C   C12       1.0  0.22605598425217766  0.011996813127298273  0.17221272086786701  1.0000
  C   C13       1.0  0.17807039313796413  0.9290994550874823  0.2806549160185625  1.0000
  C   C14       1.0  0.13695318643896792  0.9939087781647309  0.39814198404486484  1.0000
  C   C15       1.0  0.2840271266868706  0.24638139406709317  0.0676485951081105  1.0000
  C   C16       1.0  0.3259609722286272  0.31772073759871033  0.974229124329182  1.0000
  C   C17       1.0  0.3750635578646486  0.401264073084442  0.8648389982712281  1.0000
  C   C18       1.0  0.41698931739180334  0.4725980333086606  0.7714374353482243  1.0000
  H   H5        1.0  0.09769292143340635  0.41012308746924164  0.6319336180932871  1.0000
  H   H6        1.0  0.1968114378804846  0.34444603344546115  0.2960947278939512  1.0000
  H   H7        1.0  0.2578688409573209  0.9593620652190772  0.08351003845516126  1.0000
  H   H8        1.0  0.17508220829047505  0.8130650300598282  0.2744295480896881  1.0000
  H   H9        1.0  0.07630952134536084  0.8653289715670313  0.7407398200698461  1.0000
  H   H10       1.0  0.4538036320949941  0.5352353072288727  0.6894231486243285  1.0000
  C   C19       1.0  0.13697469583323696  0.567881965907671  0.9771197608597535  1.0000
  C   C20       1.0  0.17875378015425092  0.44986833296711426  0.06051272526033413  1.0000
  C   C21       1.0  0.22893799912153678  0.3404368577859841  0.9952295727919421  1.0000
  C   C22       1.0  0.2343985490420091  0.34708085615292356  0.8440419956151781  1.0000
  C   C23       1.0  0.1920657702006514  0.4620905302913579  0.7596978002204973  1.0000
  C   C24       1.0  0.14205235335248112  0.5725622895363947  0.8239795897608292  1.0000
  F   F1        1.0  0.3032442076952282  0.254814763258449  0.2182964179182301  1.0000
  F   F2        1.0  0.3482764988338114  0.15320249603018055  0.01752097256149732  1.0000
  F   F3        1.0  0.20079181827076797  0.10902740591380902  0.1099276898373851  1.0000
  H   H11       1.0  0.07373636762099833  0.9114561051165286  0.051386729880500415  1.0000
  H   H12       1.0  0.17396686805034903  0.4447424580686812  0.17738748973257937  1.0000
  H   H13       1.0  0.2705744384546285  0.2623251373970621  0.7906157675130152  1.0000
  H   H14       1.0  0.19619764104191773  0.46255198610899306  0.6430405588208918  1.0000
  H   H15       1.0  0.9674282673662911  0.8159146620466117  0.7013058976249025  1.0000
  Zn  Zn1       1.0  0.03378729426778991  0.5702237459952386  0.4005518094875916  1.0000
  Zn  Zn2       1.0  0.2452304941063417  0.5702197898786099  0.4005469044267258  1.0000
  C   C25       1.0  0.1411251288072675  0.5659297504220708  0.6639376299681865  1.0000
  C   C26       1.0  0.1378949583676734  0.5745156066600088  0.13716121507195722  1.0000
  C   C27       1.0  0.13788169941136763  0.8337054435590515  0.3933062557062581  1.0000
  C   C28       1.0  0.1411383265488515  0.30673818048838425  0.40779267606132086  1.0000
  O   O1        1.0  0.2184454373112732  0.5767341212594108  0.19087076342743647  1.0000
  O   O2        1.0  0.2210551501671758  0.563707142478169  0.6102239498930475  1.0000
  O   O3        1.0  0.218434967205819  0.7799394094785506  0.39168719191440915  1.0000
  O   O4        1.0  0.22106554741078388  0.3605018639840969  0.40940741323501784  1.0000
  O   O5        1.0  0.05795216880810573  0.7799416718926309  0.39169130067338004  1.0000
  O   O6        1.0  0.060572340828942244  0.5637111379297719  0.6102279719186638  1.0000
  O   O7        1.0  0.05796261794661351  0.5767380568516135  0.19087305213188582  1.0000
  O   O8        1.0  0.06058272875272808  0.3605057898541104  0.40940981010460487  1.0000
