data_image0
_chemical_formula_structural       NC8NH4C6ClH5C10H5Zn2C4O8
_chemical_formula_sum              "N2 C28 H14 Cl1 Zn2 O8"
_cell_length_a       13.859017124695912
_cell_length_b       9.276545438789551
_cell_length_c       9.275153671780862
_cell_angle_alpha    85.73418776908572
_cell_angle_beta     89.40939075953553
_cell_angle_gamma    89.40963735980037

_space_group_name_H-M_alt    "P 1"
_space_group_IT_number       1

loop_
  _space_group_symop_operation_xyz
  'x, y, z'

loop_
  _atom_site_type_symbol
  _atom_site_label
  _atom_site_symmetry_multiplicity
  _atom_site_fract_x
  _atom_site_fract_y
  _atom_site_fract_z
  _atom_site_occupancy
  N   N1        1.0  0.9086998229300092  0.5739911415181327  0.4104245546930152  1.0000
  C   C1        1.0  0.8368916227214496  0.5509914727992269  0.3542264242638318  1.0000
  C   C2        1.0  0.7475664445564495  0.5223832480384929  0.2843231728720301  1.0000
  C   C3        1.0  0.659288787331076  0.5502733688961925  0.35247004850621244  1.0000
  C   C4        1.0  0.5723361202466043  0.522384472205706  0.284322594070443  1.0000
  C   C5        1.0  0.5738437157157389  0.4665979024045704  0.14800734640852142  1.0000
  C   C6        1.0  0.6619362637949818  0.43881497676285486  0.08012278624405722  1.0000
  C   C7        1.0  0.7487090826488352  0.46659555629559635  0.14800852383074492  1.0000
  C   C8        1.0  0.4816517810557559  0.550992397946694  0.35422592660027724  1.0000
  N   N2        1.0  0.4087509477868275  0.5739914635295276  0.4104243387903239  1.0000
  H   H1        1.0  0.658263069585717  0.5934543481536196  0.4579813165220894  1.0000
  H   H2        1.0  0.5070697129253816  0.4446473378393933  0.0943682964822059  1.0000
  H   H3        1.0  0.6629599651368931  0.395722197080259  0.974825196807005  1.0000
  H   H4        1.0  0.8165259451856508  0.44464289385754197  0.09437047228202  1.0000
  C   C9        1.0  0.16164373883241456  0.15055556829079333  0.41018676085960615  1.0000
  C   C10       1.0  0.16292016153639222  0.23386643761074422  0.27709800089056724  1.0000
  C   C11       1.0  0.15539830135392596  0.16845385395184675  0.14690594483489283  1.0000
  C   C12       1.0  0.1464145084025217  0.01886499228865747  0.14779967593896748  1.0000
  C   C13       1.0  0.14664346403653683  0.9340094569922917  0.27844558947333176  1.0000
  C   C14       1.0  0.15581627580029833  0.9974160403903446  0.41067462878821154  1.0000
  Cl  Cl1       1.0  0.1557777397540987  0.27465397866350516  0.9822901400907904  1.0000
  H   H5        1.0  0.20944008093011335  0.4140947862625682  0.6368845778982639  1.0000
  H   H6        1.0  0.16746091286523468  0.35057970042138353  0.2742431940207186  1.0000
  H   H7        1.0  0.14017316896338072  0.9678856156046988  0.047075327569531485  1.0000
  H   H8        1.0  0.14194437505183988  0.8177422025665577  0.2757941375487183  1.0000
  H   H9        1.0  0.12187451834168872  0.6992771553481029  0.6438364201998918  1.0000
  C   C15       1.0  0.16165783391220145  0.5729020973139141  0.9870004391291074  1.0000
  C   C16       1.0  0.18615041067677862  0.7003354473419352  0.050817545268244  1.0000
  C   C17       1.0  0.20161842900603255  0.8291260242848162  0.9658993389687338  1.0000
  C   C18       1.0  0.19268324678893345  0.832087368904279  0.815960528641539  1.0000
  C   C19       1.0  0.17004412382896028  0.7062623357404054  0.7505259454485103  1.0000
  C   C20       1.0  0.1558021843330324  0.5750694492492059  0.8338609668886532  1.0000
  C   C21       1.0  0.22558436309394472  0.9589313836292438  0.03308317306266529  1.0000
  C   C22       1.0  0.24565099904514853  0.06760657357044408  0.08935745814811824  1.0000
  C   C23       1.0  0.26914802854234243  0.19486043473106873  0.15526022515531301  1.0000
  C   C24       1.0  0.28921078525235644  0.3035148465418232  0.2115318471637213  1.0000
  H   H10       1.0  0.19101704098868932  0.7004084562824326  0.16743297774717705  1.0000
  H   H11       1.0  0.20416390849259677  0.9315006627549058  0.7493111197760136  1.0000
  H   H12       1.0  0.16591008485024328  0.7107770664804223  0.6336968710825079  1.0000
  H   H13       1.0  0.1703373377189006  0.22045147239046847  0.7571578543115116  1.0000
  H   H14       1.0  0.30682752481604886  0.3989223287266285  0.26094325410580277  1.0000
  Zn  Zn1       1.0  0.05300374775835471  0.573987405970549  0.4104328214080879  1.0000
  Zn  Zn2       1.0  0.26444701448905983  0.5739834668534911  0.4104278917546083  1.0000
  C   C25       1.0  0.15694638037540184  0.5689154302007702  0.6737828602384615  1.0000
  C   C26       1.0  0.16050667732774704  0.5790572623097388  0.14707799544327238  1.0000
  C   C27       1.0  0.15695253581880664  0.8373266459153452  0.4048364571793357  1.0000
  C   C28       1.0  0.16050046112318994  0.3106443143817257  0.4160244743810695  1.0000
  O   O1        1.0  0.24036199972860306  0.5811152063358667  0.20079961126712442  1.0000
  O   O2        1.0  0.23757161531447268  0.5668534076229803  0.6200570872173665  1.0000
  O   O3        1.0  0.23757549385036203  0.7835988626929762  0.40288096479563196  1.0000
  O   O4        1.0  0.240358049718032  0.3643697613054968  0.4179756255823235  1.0000
  O   O5        1.0  0.07709264037421448  0.7836011115214383  0.40288508757447117  1.0000
  O   O6        1.0  0.07708875044430874  0.5668573886677757  0.6200611341116335  1.0000
  O   O7        1.0  0.07987914725553846  0.5811191326959126  0.2008019245242343  1.0000
  O   O8        1.0  0.07987519656448062  0.3643736776288111  0.4179780469400678  1.0000
