data_image0
_chemical_formula_structural       NC6NC3H6C9H6C6BrH4Zn2C4O8
_chemical_formula_sum              "N2 C28 H16 Br1 Zn2 O8"
_cell_length_a       14.934028789175542
_cell_length_b       9.275152443626249
_cell_length_c       9.27656775626242
_cell_angle_alpha    85.92079402595407
_cell_angle_beta     90.16168567554362
_cell_angle_gamma    90.53595971611534

_space_group_name_H-M_alt    "P 1"
_space_group_IT_number       1

loop_
  _space_group_symop_operation_xyz
  'x, y, z'

loop_
  _atom_site_type_symbol
  _atom_site_label
  _atom_site_symmetry_multiplicity
  _atom_site_fract_x
  _atom_site_fract_y
  _atom_site_fract_z
  _atom_site_occupancy
  N   N1        1.0  0.849678792347412  0.5623080812951757  0.4047263734870441  1.0000
  C   C1        1.0  0.7721844875039505  0.5612029636537517  0.4040516357895906  1.0000
  C   C2        1.0  0.6757776294058125  0.5598231180431292  0.4032093523592228  1.0000
  C   C3        1.0  0.6288186516190788  0.6672853685405069  0.4686999921065455  1.0000
  C   C4        1.0  0.5352986414179461  0.6661774585361107  0.46802467040841383  1.0000
  C   C5        1.0  0.48782547046666586  0.557662140956126  0.40189233108820055  1.0000
  C   C6        1.0  0.3911971163829412  0.5599904593429341  0.40331256115473346  1.0000
  N   N2        1.0  0.3137308175107035  0.5618382767427461  0.404440020966667  1.0000
  C   C7        1.0  0.5347677589506279  0.4487131682967574  0.3354950880055425  1.0000
  C   C8        1.0  0.48556928979825176  0.3307344734225188  0.2635967187234045  1.0000
  C   C9        1.0  0.6289272909255649  0.4509515931449086  0.3368593016599379  1.0000
  H   H1        1.0  0.6644960791869852  0.7519556595316088  0.5203011304590124  1.0000
  H   H2        1.0  0.4998912473138083  0.7501956641085061  0.5192282655439733  1.0000
  H   H3        1.0  0.44294022486879286  0.37895137794860934  0.17486071577516005  1.0000
  H   H4        1.0  0.4426007724496199  0.2686548283204091  0.3438909877872167  1.0000
  H   H5        1.0  0.5324566841915096  0.25431790192154247  0.21701980792363074  1.0000
  H   H6        1.0  0.6658361034859105  0.3680510829524426  0.28633715215961164  1.0000
  C   C10       1.0  0.07907070250985598  0.1384579549977918  0.4060558251525752  1.0000
  C   C11       1.0  0.04651414699587453  0.22003097244236836  0.28366743606004063  1.0000
  C   C12       1.0  0.02227621174314964  0.15339236726629002  0.15898212136126633  1.0000
  C   C13       1.0  0.030213187532077468  0.003995746416389119  0.15421640268621384  1.0000
  C   C14       1.0  0.061016597277567114  0.9207262210867291  0.2755713634175532  1.0000
  C   C15       1.0  0.08434747463565762  0.9856774277570731  0.4031230086453932  1.0000
  C   C16       1.0  0.005684742251716333  0.9356058215486428  0.025096565006662356  1.0000
  C   C17       1.0  0.9851478803916192  0.8783118115309579  0.9169789443539645  1.0000
  C   C18       1.0  0.9602304529242115  0.8087836626951512  0.7857971731054807  1.0000
  H   H7        1.0  0.20833463971960997  0.22279794407219858  0.6937334265856305  1.0000
  H   H8        1.0  0.9981414880240003  0.218742251092553  0.06567934952866539  1.0000
  H   H9        1.0  0.16851296171323582  0.6922211996922821  0.5998874501704463  1.0000
  H   H10       1.0  0.976627815442063  0.6921771193066152  0.7992478258607028  1.0000
  H   H11       1.0  0.8873095987740863  0.8212467894988409  0.7661168516997128  1.0000
  H   H12       1.0  0.9978508813284204  0.860180307603968  0.6925089047285184  1.0000
  C   C19       1.0  0.08082855733140379  0.5579229695506012  0.9814775609121473  1.0000
  C   C20       1.0  0.0014739332568807176  0.5927310931513095  0.052017285723197526  1.0000
  C   C21       1.0  0.9261723483982907  0.6394177128244658  0.9732015942859067  1.0000
  C   C22       1.0  0.9288114219984214  0.6522417000536944  0.8226597701331019  1.0000
  C   C23       1.0  0.006400890727793037  0.6158770516589258  0.7503994605398694  1.0000
  C   C24       1.0  0.08258964280115566  0.5662124264487747  0.827701327615636  1.0000
  Br  Br1       1.0  0.8257547342485234  0.7172997852297816  0.7152485417745464  1.0000
  H   H13       1.0  0.20319526096770546  0.42677286315835267  0.272689299651792  1.0000
  H   H14       1.0  0.9982951246976296  0.5871465719115889  0.1689359715188108  1.0000
  H   H15       1.0  0.8659756852621108  0.6669825537973737  0.02946102553421071  1.0000
  H   H16       1.0  0.2298292675205981  0.5511674537066096  0.5482672424787278  1.0000
  Zn  Zn1       1.0  0.9835941894734614  0.5621687216917837  0.4046520658133599  1.0000
  Zn  Zn2       1.0  0.17981540136732443  0.5619659351634609  0.4045261494281595  1.0000
  C   C25       1.0  0.0822189436588667  0.5588987093439015  0.66776679517574  1.0000
  C   C26       1.0  0.08119280154218406  0.5652377668207793  0.14141155380845416  1.0000
  C   C27       1.0  0.08333348891191879  0.8254786463627968  0.3979357824121466  1.0000
  C   C28       1.0  0.08007817869779882  0.2986560974776187  0.41124264943174915  1.0000
  O   O1        1.0  0.15577993332782736  0.5676094298084806  0.19503910001301494  1.0000
  O   O2        1.0  0.15655916380972856  0.5563720437586228  0.6140432703498967  1.0000
  O   O3        1.0  0.1574581724919195  0.7716387299781264  0.3961528138960022  1.0000
  O   O4        1.0  0.15488085752807634  0.352342752919262  0.41292944844128465  1.0000
  O   O5        1.0  0.008528666352034532  0.7717919040066803  0.39624876683562  1.0000
  O   O6        1.0  0.007629668300501045  0.5565269501821393  0.6141391404651967  1.0000
  O   O7        1.0  0.006850433960003287  0.5677642689934654  0.19513323799757298  1.0000
  O   O8        1.0  0.005951358317136891  0.3524975828446595  0.4130236944868526  1.0000
