data_image0
_chemical_formula_structural       NC12NC2H8C6NO2H5C7N4H6Zn2C4O8
_chemical_formula_sum              "N7 C31 H19 O10 Zn2"
_cell_length_a       17.80743265337812
_cell_length_b       9.273423624067512
_cell_length_c       9.274190830515497
_cell_angle_alpha    85.10470912236539
_cell_angle_beta     91.08905223573421
_cell_angle_gamma    90.04087344610896

_space_group_name_H-M_alt    "P 1"
_space_group_IT_number       1

loop_
  _space_group_symop_operation_xyz
  'x, y, z'

loop_
  _atom_site_type_symbol
  _atom_site_label
  _atom_site_symmetry_multiplicity
  _atom_site_fract_x
  _atom_site_fract_y
  _atom_site_fract_z
  _atom_site_occupancy
  N   N1        1.0  0.7222776283305707  0.5730013353550976  0.44485557632470846  1.0000
  C   C1        1.0  0.6719461827517326  0.6063531100238231  0.36850672000086293  1.0000
  C   C2        1.0  0.6093287978057615  0.6478402690158624  0.273538352338077  1.0000
  C   C3        1.0  0.6219527904857199  0.7088009697214481  0.1328189566881086  1.0000
  C   C4        1.0  0.5612228418329586  0.7485999303518176  0.04051380684488248  1.0000
  C   C5        1.0  0.48771916361212114  0.7277358232452869  0.0881946838731349  1.0000
  C   C6        1.0  0.4741155740178045  0.6666396184840033  0.22943427897562343  1.0000
  C   C7        1.0  0.5357029326406615  0.626844397164406  0.3217210818905547  1.0000
  C   C8        1.0  0.3960240676170389  0.6445163656621964  0.28029385969549825  1.0000
  C   C9        1.0  0.3768348367760909  0.673748664060466  0.4214120583752774  1.0000
  C   C10       1.0  0.3033012844990385  0.6529304245424641  0.46913796231042854  1.0000
  C   C11       1.0  0.24800868819104172  0.6025911145935647  0.3766768544780703  1.0000
  C   C12       1.0  0.1723288818910096  0.5811482326639075  0.4259596443615066  1.0000
  N   N2        1.0  0.11148767614559221  0.5639095982455193  0.4655796171273006  1.0000
  C   C13       1.0  0.2665029630132292  0.5731670891208711  0.23616203083253692  1.0000
  C   C14       1.0  0.339984896641165  0.594003691035641  0.18815183055442875  1.0000
  H   H1        1.0  0.6786631582244267  0.7255267385718756  0.09454714596740144  1.0000
  H   H2        1.0  0.5711157282753608  0.7960982422492772  0.9318463039848188  1.0000
  H   H3        1.0  0.44155441549387975  0.761149120814935  0.015298596753011713  1.0000
  H   H4        1.0  0.5265005389416417  0.5778083764704809  0.430251573593871  1.0000
  H   H5        1.0  0.4184442546389607  0.7145462174289379  0.49422849260989987  1.0000
  H   H6        1.0  0.2895521346158337  0.6764509893134308  0.5780033794107475  1.0000
  H   H7        1.0  0.22418254443875663  0.533773965752504  0.16380323882254877  1.0000
  H   H8        1.0  0.35319492957634663  0.5687753048444901  0.07962478966447772  1.0000
  C   C15       1.0  0.9145583906955775  0.14487183273587648  0.4555769215383745  1.0000
  C   C16       1.0  0.9041961021091672  0.22990308427304407  0.3236729791044184  1.0000
  C   C17       1.0  0.9007868308921019  0.16685998770209665  0.19133547437258036  1.0000
  C   C18       1.0  0.9079852192124415  0.016239446570162963  0.19177527567254926  1.0000
  C   C19       1.0  0.9170290825607904  0.9301568404213094  0.32174163197128824  1.0000
  C   C20       1.0  0.9192139902224539  0.9920278238630997  0.45487108128363957  1.0000
  N   N3        1.0  0.8907952990409399  0.25581295019504613  0.0573248631773633  1.0000
  O   O1        1.0  0.8835886649191489  0.4035885269900643  0.05702179168535837  1.0000
  O   O2        1.0  0.8882841690351635  0.20037480038852176  0.9392715861113027  1.0000
  H   H9        1.0  0.8935567522922926  0.40490783490703924  0.6913081540916552  1.0000
  H   H10       1.0  0.9005376082412367  0.3464555221257237  0.32386351469244934  1.0000
  H   H11       1.0  0.9058612730606644  0.9645377398058187  0.09144660304440033  1.0000
  H   H12       1.0  0.9205313816365633  0.8138700190257165  0.3182936605672  1.0000
  H   H13       1.0  0.8843316197114377  0.859456844134131  0.8026948570763206  1.0000
  C   C21       1.0  0.9185985965052115  0.5713539963324621  0.03152774655633439  1.0000
  C   C22       1.0  0.9665503885546282  0.4756450975984987  0.11468653754148474  1.0000
  C   C23       1.0  0.00847790426243833  0.3726334841153054  0.05013292329891516  1.0000
  C   C24       1.0  0.003589771074830499  0.36219096381863086  0.9003750034309351  1.0000
  C   C25       1.0  0.9568976065140663  0.4593625893180613  0.8158071701523215  1.0000
  C   C26       1.0  0.9151737599306555  0.565545661304067  0.8789202622068863  1.0000
  C   C27       1.0  0.048122445860277585  0.2508127190129259  0.8341410707051162  1.0000
  N   N4        1.0  0.09710852415562776  0.1601547985746339  0.9079443369417062  1.0000
  N   N5        1.0  0.12433736523698881  0.07877999562502103  0.8104107569270127  1.0000
  N   N6        1.0  0.0936002646308598  0.11699884176616737  0.6817232265586899  1.0000
  N   N7        1.0  0.04588089726011568  0.22406095263036496  0.6937451934642049  1.0000
  H   H14       1.0  0.8649457275490455  0.7863976221307514  0.29257035539327725  1.0000
  H   H15       1.0  0.970321791205841  0.478017166604608  0.23119067678480001  1.0000
  H   H16       1.0  0.04420811027882254  0.29976772037137467  0.11823170557306062  1.0000
  H   H17       1.0  0.9542063150171823  0.45577256021664847  0.6996136358614891  1.0000
  H   H18       1.0  0.8122419145777838  0.7011016581044227  0.5835772308692242  1.0000
  H   H19       1.0  0.01375839759545228  0.2738746031127346  0.6084202376194909  1.0000
  Zn  Zn1       1.0  0.8345951892875354  0.5703737483219966  0.45084440793655456  1.0000
  Zn  Zn2       1.0  0.999170000469045  0.5665253385371635  0.45960256407047934  1.0000
  C   C28       1.0  0.9157878917827608  0.5608971949553685  0.7187496372269517  1.0000
  C   C29       1.0  0.9179791045552353  0.5760036689107424  0.19169757051619163  1.0000
  C   C30       1.0  0.9183533551106242  0.8319367693981207  0.44925475300667084  1.0000
  C   C31       1.0  0.9154135752346981  0.3049623622378659  0.4611925301151063  1.0000
  O   O3        1.0  0.9802264459692276  0.5760973971507715  0.24877570645889602  1.0000
  O   O4        1.0  0.9784490197521358  0.5578815274114612  0.6683183247081557  1.0000
  O   O5        1.0  0.9805198158435875  0.7767494209414338  0.45069925292427526  1.0000
  O   O6        1.0  0.9781555942134745  0.35722951599410413  0.46639466706353305  1.0000
  O   O7        1.0  0.8556095393818389  0.7796695721799518  0.44405230194718165  1.0000
  O   O8        1.0  0.8535387531217946  0.560803412194999  0.6616712953561086  1.0000
  O   O9        1.0  0.85531618612353  0.5790192435580337  0.2421269424540666  1.0000
  O   O10       1.0  0.8532453338708115  0.36015135134295684  0.45974601124162784  1.0000
