data_image0
_chemical_formula_structural       NC12NC2H8C6SCOC6H10C6OC6OCH11Zn2C4O8
_chemical_formula_sum              "N2 C44 H29 S1 O11 Zn2"
_cell_length_a       19.240039667572717
_cell_length_b       10.302038109246572
_cell_length_c       10.299362532796529
_cell_angle_alpha    85.5856087193975
_cell_angle_beta     90.01509071760941
_cell_angle_gamma    90.01678309981642

_space_group_name_H-M_alt    "P 1"
_space_group_IT_number       1

loop_
  _space_group_symop_operation_xyz
  'x, y, z'

loop_
  _atom_site_type_symbol
  _atom_site_label
  _atom_site_symmetry_multiplicity
  _atom_site_fract_x
  _atom_site_fract_y
  _atom_site_fract_z
  _atom_site_occupancy
  N   N1        1.0  0.6544979718197416  0.42049639158896546  0.5676842363586319  1.0000
  C   C1        1.0  0.5943496030040747  0.4204964755251046  0.5676841544354845  1.0000
  C   C2        1.0  0.5195315658619395  0.42049659274078555  0.5676840171502002  1.0000
  C   C3        1.0  0.48306232756865836  0.35607832654901866  0.6710851617074345  1.0000
  C   C4        1.0  0.4103915742850486  0.35596749818655254  0.6711716857797387  1.0000
  C   C5        1.0  0.3731993309070121  0.42049668521415806  0.5676837894845717  1.0000
  C   C6        1.0  0.4103827659729533  0.4850260592432149  0.4641960877587404  1.0000
  C   C7        1.0  0.4830534492334109  0.48491499547485306  0.4642827342933226  1.0000
  C   C8        1.0  0.29599424044159056  0.4204966065424818  0.5676836940569994  1.0000
  C   C9        1.0  0.25879457434117026  0.3072755959786551  0.6095359263175566  1.0000
  C   C10       1.0  0.186123889841339  0.30738244280299254  0.60944461864613  1.0000
  C   C11       1.0  0.1496619535067265  0.4204964774189912  0.567683754946108  1.0000
  C   C12       1.0  0.0748439163690077  0.42049636377930044  0.5676840035871  1.0000
  N   N2        1.0  0.014695599539902196  0.4204963230292446  0.5676842119986292  1.0000
  C   C13       1.0  0.18614752803315876  0.5336105878283739  0.5259228383678654  1.0000
  C   C14       1.0  0.25881822814065786  0.533717614681037  0.5258313681318616  1.0000
  H   H1        1.0  0.5107807541522571  0.3062045109142073  0.7518179059773462  1.0000
  H   H2        1.0  0.383302110640905  0.3068919188078254  0.7530200589080343  1.0000
  H   H3        1.0  0.3832856988260394  0.5341016656523785  0.3823476637866791  1.0000
  H   H4        1.0  0.5107647941360692  0.5347887109553771  0.38355026580103035  1.0000
  H   H5        1.0  0.2858782628266314  0.21815095983846966  0.6406889769774038  1.0000
  H   H6        1.0  0.1583997478797635  0.21915708858511618  0.6416307749046777  1.0000
  H   H7        1.0  0.1584418465451486  0.6218359175196835  0.49373669665570846  1.0000
  H   H8        1.0  0.28592101847850926  0.6228423299653034  0.49467827271351483  1.0000
  C   C15       1.0  0.8345342900136479  0.03921791846139211  0.5676440484820726  1.0000
  C   C16       1.0  0.7751069175723064  0.0439627167637644  0.4881252763637853  1.0000
  C   C17       1.0  0.745865181563131  0.9293648701232572  0.44807612260941254  1.0000
  C   C18       1.0  0.7753304585854399  0.8088301015682985  0.48807127071021816  1.0000
  C   C19       1.0  0.834665978660264  0.8017648445068688  0.5677356219360559  1.0000
  C   C20       1.0  0.8639976530872325  0.917611776140474  0.6070238928127796  1.0000
  S   S1        1.0  0.6704322760654253  0.9368678536160083  0.3454680683812119  1.0000
  C   C21       1.0  0.7215094562377052  0.9453167005467699  0.19904753888267132  1.0000
  O   O1        1.0  0.7382612160064875  0.8400345192102923  0.15269794899923017  1.0000
  C   C22       1.0  0.7444219803937517  0.0714624653779643  0.13355063077162077  1.0000
  C   C23       1.0  0.7935467947791618  0.07377008965824028  0.03204509621585827  1.0000
  C   C24       1.0  0.8158753639740453  0.192087027550655  0.9703226095452328  1.0000
  C   C25       1.0  0.7894549110085788  0.3093359404792324  0.008823500532475268  1.0000
  C   C26       1.0  0.7405389247360068  0.30850047772684897  0.10897600440819555  1.0000
  C   C27       1.0  0.7179787387519561  0.19048727730570375  0.17101866052631354  1.0000
  H   H9        1.0  0.9464674579844726  0.2375786093947367  0.7176963732962227  1.0000
  H   H10       1.0  0.7514564221132017  0.13647504899297003  0.45684979197375863  1.0000
  H   H11       1.0  0.751903803551068  0.7210687480889615  0.456307260070919  1.0000
  H   H12       1.0  0.9098122693289615  0.9130335556443184  0.668324237604325  1.0000
  H   H13       1.0  0.8573464938624337  0.47176401010739866  0.5977018990049365  1.0000
  H   H14       1.0  0.8150421421551499  0.9841958559161532  0.0007478277489636445  1.0000
  H   H15       1.0  0.8537772022101948  0.192816354551562  0.8926257701015893  1.0000
  H   H16       1.0  0.8068205821220812  0.40082549416386976  0.9609496854950871  1.0000
  H   H17       1.0  0.7199542139756168  0.39945705219980726  0.1385126361783875  1.0000
  H   H18       1.0  0.6796696029439095  0.1931453070974669  0.2475831732915632  1.0000
  C   C28       1.0  0.8345458602473081  0.42037087081249397  0.18632292763589908  1.0000
  C   C29       1.0  0.7685606535840483  0.36170434380749783  0.18960355174721455  1.0000
  C   C30       1.0  0.768756407971061  0.3618678623562818  0.9543492714869597  1.0000
  C   C31       1.0  0.8346543949085038  0.42061186728575994  0.9490567316335041  1.0000
  C   C32       1.0  0.8671118504791713  0.449779984349888  0.06558238578551356  1.0000
  C   C33       1.0  0.66565467110348  0.27015513648912814  0.0798820779154008  1.0000
  O   O2        1.0  0.651441083048547  0.19096755197850301  0.17576913616404832  1.0000
  C   C34       1.0  0.6124565103741522  0.29669999237695505  0.9769704636119182  1.0000
  C   C35       1.0  0.6071330631347475  0.4200429375689344  0.9091318741934823  1.0000
  C   C36       1.0  0.5562647797508665  0.44421674683098966  0.8134391975703056  1.0000
  C   C37       1.0  0.5094953807397137  0.3465758942865842  0.7843786733625939  1.0000
  C   C38       1.0  0.5140879366466551  0.2234264572382698  0.8531355021584738  1.0000
  C   C39       1.0  0.5649499696662913  0.19912547938922542  0.9489005685247998  1.0000
  O   O3        1.0  0.4594675542652846  0.37572848907762857  0.6873976326533935  1.0000
  C   C40       1.0  0.4087767678119975  0.28598878906947434  0.6480142487722951  1.0000
  H   H19       1.0  0.9591784617798095  0.5305832774515502  0.38744044832897107  1.0000
  H   H20       1.0  0.7428231607400524  0.3389688676777471  0.2821349071322943  1.0000
  H   H21       1.0  0.7439065723439541  0.3367938134110186  0.8652921923904118  1.0000
  H   H22       1.0  0.9179475222818282  0.4950925262329952  0.06223235970543439  1.0000
  H   H23       1.0  0.6417892907326409  0.4982748721402528  0.9309654669306368  1.0000
  H   H24       1.0  0.5529697283313136  0.5396532204243534  0.7618870202257959  1.0000
  H   H25       1.0  0.4786334664627048  0.1458801465909527  0.8333987676018645  1.0000
  H   H26       1.0  0.5675697190555271  0.1035071811976309  0.0003395319937491416  1.0000
  H   H27       1.0  0.3761390104407627  0.33467217909390046  0.5699367011813656  1.0000
  H   H28       1.0  0.37483256966030437  0.253783517066398  0.7315600607655766  1.0000
  H   H29       1.0  0.434670751857159  0.20068931251838373  0.6093481761300934  1.0000
  Zn  Zn1       1.0  0.7584432361212226  0.4204929077906196  0.5676917172988758  1.0000
  Zn  Zn2       1.0  0.9107503536888519  0.4204892192093961  0.5676873286305675  1.0000
  C   C41       1.0  0.8346314264455778  0.41539387340731165  0.8048830762026435  1.0000
  C   C42       1.0  0.8345638268544849  0.42558989182357654  0.330496097341326  1.0000
  C   C43       1.0  0.834636753498202  0.657625599125885  0.5625431461539723  1.0000
  C   C44       1.0  0.8345584475705939  0.18335660619569058  0.5728360964424828  1.0000
  O   O4        1.0  0.8923696129956415  0.4273343787564843  0.37888026397585683  1.0000
  O   O5        1.0  0.8924232181691287  0.41364560731838007  0.7564952047087683  1.0000
  O   O6        1.0  0.8924267408552522  0.6092507897199765  0.560803996783783  1.0000
  O   O7        1.0  0.8923660383251651  0.23172920561339705  0.5745713745293031  1.0000
  O   O8        1.0  0.7768274995099641  0.6092529213892892  0.5608076713948067  1.0000
  O   O9        1.0  0.7768239770801629  0.41364929889967533  0.7564988102619732  1.0000
  O   O10       1.0  0.7767703717229293  0.42733802459917664  0.3788823081312167  1.0000
  O   O11       1.0  0.7767667970618609  0.2317328422002509  0.5745735160508689  1.0000
