data_image0
_chemical_formula_structural       Zn4O13C48H28
_chemical_formula_sum              "Zn4 O13 C48 H28"
_cell_length_a       17.077404
_cell_length_b       21.395361
_cell_length_c       17.077396
_cell_angle_alpha    89.966749
_cell_angle_beta     89.98049900000001
_cell_angle_gamma    90.03093299999999

_space_group_name_H-M_alt    "P 1"
_space_group_IT_number       1

loop_
  _space_group_symop_operation_xyz
  'x, y, z'

loop_
  _atom_site_type_symbol
  _atom_site_label
  _atom_site_symmetry_multiplicity
  _atom_site_fract_x
  _atom_site_fract_y
  _atom_site_fract_z
  _atom_site_occupancy
  Zn  Zn1       1.0  0.20001199999999986  0.750565  0.556183  1.0000
  Zn  Zn2       1.0  0.1999010000000001  0.645784  0.68746  1.0000
  Zn  Zn3       1.0  0.06874399999999992  0.750543  0.687435  1.0000
  Zn  Zn4       1.0  0.06869400000000003  0.645821  0.5562370000000001  1.0000
  O   O1        1.0  0.13433800000000007  0.698178  0.621829  1.0000
  O   O2        1.0  0.309844  0.736659  0.573586  1.0000
  O   O3        1.0  0.182477  0.659656  0.797304  1.0000
  O   O4        1.0  0.08622400000000008  0.838224  0.6699919999999999  1.0000
  O   O5        1.0  0.3097629999999999  0.6596770000000001  0.670034  1.0000
  O   O6        1.0  0.18266599999999997  0.8382399999999999  0.573561  1.0000
  O   O7        1.0  0.08611699999999997  0.736622  0.797286  1.0000
  O   O8        1.0  0.9588899999999999  0.736658  0.6700429999999999  1.0000
  O   O9        1.0  0.08613899999999997  0.65974  0.446383  1.0000
  O   O10       1.0  0.958854  0.6597189999999999  0.573652  1.0000
  O   O11       1.0  0.18261799999999967  0.736695  0.44634300000000005  1.0000
  O   O12       1.0  0.18242899999999995  0.558111  0.670086  1.0000
  O   O13       1.0  0.08603099999999997  0.558138  0.5736760000000001  1.0000
  C   C1        1.0  0.93039  0.69819  0.6218509999999999  1.0000
  C   C2        1.0  0.8431399999999998  0.6981789999999999  0.621841  1.0000
  C   C3        1.0  0.802151  0.658057  0.571731  1.0000
  C   C4        1.0  0.720171  0.658056  0.571718  1.0000
  C   C5        1.0  0.679181  0.6981740000000001  0.621821  1.0000
  C   C6        1.0  0.720175  0.738301  0.671933  1.0000
  C   C7        1.0  0.802154  0.738305  0.671941  1.0000
  C   C8        1.0  0.549305  0.738289  0.671914  1.0000
  C   C9        1.0  0.46731999999999985  0.7382839999999999  0.671908  1.0000
  C   C10       1.0  0.467322  0.658039  0.571691  1.0000
  C   C11       1.0  0.549301  0.6580429999999999  0.5716990000000001  1.0000
  C   C12       1.0  0.59029  0.69817  0.621813  1.0000
  C   C13       1.0  0.13423399999999996  0.5353910000000001  0.621873  1.0000
  C   C14       1.0  0.13426199999999988  0.46574899999999997  0.621865  1.0000
  C   C15       1.0  0.1845000000000001  0.4330429999999999  0.672014  1.0000
  C   C16       1.0  0.18453699999999995  0.36760800000000005  0.671996  1.0000
  C   C17       1.0  0.13432099999999988  0.334881  0.621838  1.0000
  C   C18       1.0  0.08407799999999988  0.36759600000000014  0.571679  1.0000
  C   C19       1.0  0.08404900000000004  0.43303  0.571693  1.0000
  C   C20       1.0  0.06364100000000006  0.231167  0.6156869999999999  1.0000
  C   C21       1.0  0.06366899999999998  0.16573400000000005  0.615679  1.0000
  C   C22       1.0  0.13441199999999998  0.13305999999999996  0.6217920000000001  1.0000
  C   C23       1.0  0.2051289999999999  0.16582799999999998  0.62793  1.0000
  C   C24       1.0  0.2050989999999997  0.23126199999999994  0.6279429999999999  1.0000
  C   C25       1.0  0.134347  0.26392899999999997  0.621818  1.0000
  C   C26       1.0  0.1846939999999999  0.029401000000000007  0.671925  1.0000
  C   C27       1.0  0.1847319999999999  0.963965  0.671902  1.0000
  C   C28       1.0  0.08426700000000009  0.9639539999999999  0.571589  1.0000
  C   C29       1.0  0.08423599999999998  0.029389  0.571608  1.0000
  C   C30       1.0  0.13444900000000004  0.06210899999999997  0.62178  1.0000
  C   C31       1.0  0.3390819999999998  0.698167  0.621807  1.0000
  C   C32       1.0  0.4263319999999998  0.698161  0.6217969999999999  1.0000
  C   C33       1.0  0.13438499999999998  0.698225  0.41708500000000004  1.0000
  C   C34       1.0  0.1344050000000001  0.6982440000000001  0.329835  1.0000
  C   C35       1.0  0.13446299999999994  0.861602  0.6217680000000001  1.0000
  C   C36       1.0  0.13451699999999978  0.9312429999999999  0.621742  1.0000
  C   C37       1.0  0.1846439999999998  0.738318  0.28882300000000005  1.0000
  C   C38       1.0  0.18465299999999996  0.738339  0.20684199999999997  1.0000
  C   C39       1.0  0.134428  0.6982820000000001  0.16587499999999997  1.0000
  C   C40       1.0  0.08418400000000004  0.658207  0.206893  1.0000
  C   C41       1.0  0.08417099999999975  0.658189  0.288872  1.0000
  C   C42       1.0  0.08421499999999993  0.658244  0.03602300000000014  1.0000
  C   C43       1.0  0.08422899999999989  0.6582609999999999  0.9540379999999999  1.0000
  C   C44       1.0  0.18469800000000003  0.7383939999999999  0.953993  1.0000
  C   C45       1.0  0.184685  0.7383770000000001  0.035972000000000004  1.0000
  C   C46       1.0  0.13444199999999995  0.6982999999999999  0.07698400000000005  1.0000
  C   C47       1.0  0.134336  0.698178  0.825777  1.0000
  C   C48       1.0  0.1344669999999999  0.698334  0.913026  1.0000
  H   H1        1.0  0.582673  0.625372  0.5309060000000001  1.0000
  H   H2        1.0  0.2626779999999997  0.25793999999999995  0.6329389999999999  1.0000
  H   H3        1.0  0.6868009999999997  0.625383  0.5309140000000001  1.0000
  H   H4        1.0  0.83552  0.625386  0.530934  1.0000
  H   H5        1.0  0.262734  0.139227  0.632908  1.0000
  H   H6        1.0  0.22556400000000007  0.77097  0.1734540000000001  1.0000
  H   H7        1.0  0.22560599999999975  0.771027  0.9205970000000001  1.0000
  H   H8        1.0  0.22558699999999998  0.7709909999999999  0.06932500000000008  1.0000
  H   H9        1.0  0.433945  0.6253690000000001  0.5308849999999999  1.0000
  H   H10       1.0  0.43394799999999983  0.7709590000000001  0.712696  1.0000
  H   H11       1.0  0.582676  0.770969  0.712715  1.0000
  H   H12       1.0  0.22538799999999992  0.45968099999999995  0.7128650000000001  1.0000
  H   H13       1.0  0.04332899999999973  0.6256440000000001  0.920685  1.0000
  H   H14       1.0  0.686794  0.770969  0.7127239999999999  1.0000
  H   H15       1.0  0.043323999999999696  0.05602099999999999  0.530775  1.0000
  H   H16       1.0  0.04329000000000004  0.6256200000000001  0.06941200000000003  1.0000
  H   H17       1.0  0.043285999999999936  0.625594  0.173531  1.0000
  H   H18       1.0  0.006086999999999952  0.13905900000000015  0.610689  1.0000
  H   H19       1.0  0.835526  0.77098  0.712742  1.0000
  H   H20       1.0  0.22544999999999965  0.34097299999999997  0.712834  1.0000
  H   H21       1.0  0.043253999999999904  0.625564  0.32226299999999997  1.0000
  H   H22       1.0  0.2255830000000001  0.056043000000000065  0.712776  1.0000
  H   H23       1.0  0.04338299999999995  0.937309  0.530745  1.0000
  H   H24       1.0  0.22564699999999988  0.937336  0.712737  1.0000
  H   H25       1.0  0.006029000000000062  0.25776299999999996  0.610705  1.0000
  H   H26       1.0  0.04319399999999973  0.34094599999999997  0.5308390000000001  1.0000
  H   H27       1.0  0.0431379999999999  0.45965999999999996  0.5308550000000001  1.0000
  H   H28       1.0  0.22554600000000002  0.7709349999999999  0.322172  1.0000
