data_image0
_chemical_formula_structural       NC9NC5H8C7ONH7C8H6Zn2C4O8
_chemical_formula_sum              "N3 C33 H21 O9 Zn2"
_cell_length_a       17.807436237873137
_cell_length_b       10.297852080636378
_cell_length_c       9.275144076552241
_cell_angle_alpha    85.95896827245511
_cell_angle_beta     89.86257050345318
_cell_angle_gamma    88.36921327777658

_space_group_name_H-M_alt    "P 1"
_space_group_IT_number       1

loop_
  _space_group_symop_operation_xyz
  'x, y, z'

loop_
  _atom_site_type_symbol
  _atom_site_label
  _atom_site_symmetry_multiplicity
  _atom_site_fract_x
  _atom_site_fract_y
  _atom_site_fract_z
  _atom_site_occupancy
  N   N1        1.0  0.700427836092158  0.3782860022748517  0.39864616123634367  1.0000
  C   C1        1.0  0.6397965768233113  0.34301535463886124  0.3864114916332204  1.0000
  C   C2        1.0  0.5643779541621361  0.2991425530716047  0.3711928910731054  1.0000
  C   C3        1.0  0.5458145725581791  0.22700609609022804  0.2546570319162509  1.0000
  C   C4        1.0  0.47258662232999976  0.1842969111450805  0.23978904783004373  1.0000
  C   C5        1.0  0.41687326405786773  0.2133463640323556  0.3414209077235013  1.0000
  C   C6        1.0  0.3390511863729637  0.16807299170395607  0.3257111799123771  1.0000
  C   C7        1.0  0.2769779471993125  0.25001936838316663  0.354498953933835  1.0000
  C   C8        1.0  0.2036077982394161  0.20710719958901258  0.33964615411928767  1.0000
  C   C9        1.0  0.1404855913116941  0.2917478859003977  0.3688377948647612  1.0000
  N   N2        1.0  0.0897483230934965  0.3597931492858592  0.39230706775484325  1.0000
  C   C10       1.0  0.1917272802620387  0.08199045493565582  0.2959774467809988  1.0000
  C   C11       1.0  0.2529431136158176  3.01667951518856e-05  0.26718036159528946  1.0000
  C   C12       1.0  0.32619297419000476  0.04254635498851055  0.281808377744023  1.0000
  C   C13       1.0  0.4361289629620612  0.28597875819218466  0.458200074885871  1.0000
  C   C14       1.0  0.5094091026792483  0.3284964635591576  0.4728953124511919  1.0000
  H   H1        1.0  0.5878816333298856  0.20403310649071416  0.17506762329584835  1.0000
  H   H2        1.0  0.459300789481529  0.13004546153881957  0.1477609919738383  1.0000
  H   H3        1.0  0.2855888488274124  0.34769719852541736  0.3865475182498552  1.0000
  H   H4        1.0  0.1352202736976717  0.04787659999680782  0.28421893828533706  1.0000
  H   H5        1.0  0.24362812770262224  0.9031644951172602  0.2337995345983048  1.0000
  H   H6        1.0  0.3727592862701822  0.9766605845412857  0.2606679214543619  1.0000
  H   H7        1.0  0.3947848994032103  0.3084213264875495  0.5392261668388565  1.0000
  H   H8        1.0  0.5232181976625695  0.3839617033787678  0.5637673295597585  1.0000
  C   C15       1.0  0.8951717851874883  0.9875985238603817  0.3954838783079575  1.0000
  C   C16       1.0  0.8842613816212784  0.9967090703232188  0.24508187113909138  1.0000
  C   C17       1.0  0.8780661389588439  0.8842680108499054  0.1689494922419048  1.0000
  C   C18       1.0  0.884071258013382  0.7614655799130644  0.24503524064391424  1.0000
  C   C19       1.0  0.8950115748272796  0.750470400697727  0.3954816943387546  1.0000
  C   C20       1.0  0.9003126270887382  0.8640620640613449  0.46976003863664273  1.0000
  C   C21       1.0  0.8667288128653126  0.8964822574551496  0.0100724738993454  1.0000
  O   O1        1.0  0.8864988831696917  0.9981974894100418  0.9379722822310899  1.0000
  N   N3        1.0  0.8328556207072695  0.7958147338712592  0.9362043737277035  1.0000
  H   H9        1.0  0.9160641900412048  0.1776396571982859  0.6796628561324849  1.0000
  H   H10       1.0  0.879903139889745  0.09167834503194473  0.18705014660780714  1.0000
  H   H11       1.0  0.8817047054276546  0.6740152549310375  0.1872626904015804  1.0000
  H   H12       1.0  0.9087195367813186  0.8562869925550421  0.585676764852979  1.0000
  H   H13       1.0  0.9168911081339371  0.5223746623237859  0.679513253405642  1.0000
  H   H14       1.0  0.8286001492558877  0.8043814076831076  0.8236528446453386  1.0000
  H   H15       1.0  0.8074323566786077  0.7172339037622818  0.9920039987144094  1.0000
  C   C22       1.0  0.893322759176506  0.36646048111101925  0.9722261304290956  1.0000
  C   C23       1.0  0.844324553007401  0.4534989507862939  0.03899713517349611  1.0000
  C   C24       1.0  0.8013529134048912  0.5466868800167153  0.9567610828599155  1.0000
  C   C25       1.0  0.8066021813510409  0.5547380072418129  0.8062450817935578  1.0000
  C   C26       1.0  0.8540408287194935  0.46767836227307374  0.737743638169603  1.0000
  C   C27       1.0  0.8968606296473994  0.37160847618672527  0.8187395380489111  1.0000
  C   C28       1.0  0.7625386966681293  0.6515484376027372  0.7216568706077333  1.0000
  C   C29       1.0  0.7256488514303461  0.732601442072895  0.650820528113965  1.0000
  H   H16       1.0  0.049529446304488856  0.18852897379875366  0.0882878153934592  1.0000
  H   H17       1.0  0.840567338723641  0.45149389389534256  0.15572844857077858  1.0000
  H   H18       1.0  0.7645336941259081  0.6133821330708282  0.010798571934344631  1.0000
  H   H19       1.0  0.8561934046651142  0.47297352554411654  0.6206239446708118  1.0000
  H   H20       1.0  0.0004069753174686911  0.2477605343566247  0.5472401419482211  1.0000
  H   H21       1.0  0.6932672251229322  0.8037486987556544  0.5886394484369957  1.0000
  Zn  Zn1       1.0  0.8127773532280905  0.3729459491221169  0.39682517154166086  1.0000
  Zn  Zn2       1.0  0.9773988395058157  0.36512268632539197  0.3941399067598861  1.0000
  C   C30       1.0  0.8961913053816604  0.3654607907384091  0.6587303832386329  1.0000
  C   C31       1.0  0.8939866852608651  0.372609399068633  0.13223480720209024  1.0000
  C   C32       1.0  0.8950140096910123  0.6062366302873969  0.38973862342836435  1.0000
  C   C33       1.0  0.8951639254265441  0.1318320020592756  0.4012266447764902  1.0000
  O   O2        1.0  0.9566825022200012  0.3716984778348926  0.18491613684995456  1.0000
  O   O3        1.0  0.9584393858971262  0.360433054096703  0.6040105848494142  1.0000
  O   O4        1.0  0.9574878688357045  0.5548626386947735  0.38679784937491757  1.0000
  O   O5        1.0  0.9576339626536488  0.17726890454113503  0.40212876517088136  1.0000
  O   O6        1.0  0.8325421739029912  0.5607997335774368  0.3888363140394331  1.0000
  O   O7        1.0  0.8334936903121163  0.36637170911079914  0.6060489726585663  1.0000
  O   O8        1.0  0.831736799452085  0.3776370770437134  0.18695279176082935  1.0000
  O   O9        1.0  0.8326882603362408  0.1832074951167062  0.4041655281440943  1.0000
