data_image0
_chemical_formula_structural       NC6NCNCH5C6NH5C9H9Zn2C4O8
_chemical_formula_sum              "N4 C27 H19 Zn2 O8"
_cell_length_a       14.933214217465613
_cell_length_b       9.274771166103582
_cell_length_c       10.297187173949778
_cell_angle_alpha    85.46307945309522
_cell_angle_beta     89.94016841995526
_cell_angle_gamma    90.63112361825276

_space_group_name_H-M_alt    "P 1"
_space_group_IT_number       1

loop_
  _space_group_symop_operation_xyz
  'x, y, z'

loop_
  _atom_site_type_symbol
  _atom_site_label
  _atom_site_symmetry_multiplicity
  _atom_site_fract_x
  _atom_site_fract_y
  _atom_site_fract_z
  _atom_site_occupancy
  N   N1        1.0  0.853901830272523  0.5793515681952506  0.5637760437484263  1.0000
  C   C1        1.0  0.7764182984762713  0.5803484329047128  0.5628818010382846  1.0000
  C   C2        1.0  0.6800282461483669  0.5815912685371103  0.5617667911151556  1.0000
  C   C3        1.0  0.6315573897761204  0.4858107319904183  0.6477046025715516  1.0000
  C   C4        1.0  0.5380312750800644  0.48689380345077543  0.6467328577311187  1.0000
  C   C5        1.0  0.4920732924015905  0.5837025340019399  0.5598725459149173  1.0000
  C   C6        1.0  0.39548352970043144  0.5815934256149016  0.5617649214130118  1.0000
  N   N2        1.0  0.3179860127887624  0.5798339632121225  0.563343244354142  1.0000
  C   C7        1.0  0.5406510777350307  0.6806925175623062  0.4728496896077756  1.0000
  N   N3        1.0  0.49601853681487484  0.7813139783784182  0.3825686679197158  1.0000
  C   C8        1.0  0.6346510283901198  0.6786431365344963  0.47468857425830513  1.0000
  H   H1        1.0  0.6660452836172506  0.41029422038431473  0.7154607487035194  1.0000
  H   H2        1.0  0.5014424507378032  0.4120125484918522  0.7139189131606946  1.0000
  H   H3        1.0  0.5328537852725057  0.8523825233337341  0.31880332525624366  1.0000
  H   H4        1.0  0.4263131968009483  0.7866678982568763  0.3777649989246099  1.0000
  H   H5        1.0  0.6723592039830261  0.7527709628445463  0.40817837462146067  1.0000
  C   C9        1.0  0.0831987341247733  0.1559934387313644  0.5642702476644944  1.0000
  C   C10       1.0  0.06262840260511983  0.2392649293696056  0.4481272289863474  1.0000
  C   C11       1.0  0.050419142190011784  0.17418687243253572  0.33123941461056416  1.0000
  C   C12       1.0  0.058827421862424734  0.024459785168410957  0.32964786306463423  1.0000
  C   C13       1.0  0.07774233591441872  0.9398669276849877  0.44419669644525817  1.0000
  C   C14       1.0  0.08869760606359384  0.003181000870688952  0.5628603429854715  1.0000
  N   N4        1.0  0.030399389074231127  0.2605582587738675  0.2138191926074262  1.0000
  H   H6        1.0  0.18389044953205125  0.23579727550052576  0.8484609936458921  1.0000
  H   H7        1.0  0.04985745880012796  0.9729509433787775  0.2397140875118489  1.0000
  H   H8        1.0  0.15288743142095185  0.7062078474723162  0.7562146979476703  1.0000
  H   H9        1.0  0.02422959213708187  0.37262574147603567  0.21378275557984353  1.0000
  H   H10       1.0  0.0215130673686379  0.2130670036919482  0.1260215719028961  1.0000
  C   C15       1.0  0.08606621073120535  0.5795351817915264  0.18211210468880568  1.0000
  C   C16       1.0  0.9955733776317323  0.6190617617298245  0.178648882227082  1.0000
  C   C17       1.0  0.9492112304650853  0.6393121517366125  0.06025816791499916  1.0000
  C   C18       1.0  0.9952225793500364  0.6192144328343046  0.9434262305070164  1.0000
  C   C19       1.0  0.0858301249213389  0.5796392483590834  0.945018461564224  1.0000
  C   C20       1.0  0.1306602306223692  0.5600566422066708  0.0647504979191682  1.0000
  C   C21       1.0  0.8513367071559105  0.682062677774034  0.06594461583482047  1.0000
  C   C22       1.0  0.7882674559794416  0.62397778160561  0.9658277928419023  1.0000
  C   C23       1.0  0.8159288484636211  0.7831455606112958  0.9544386119442178  1.0000
  H   H11       1.0  0.9606382503642261  0.6343215516985338  0.26873424589069717  1.0000
  H   H12       1.0  0.9612568342927968  0.6340470815071471  0.8508261500400214  1.0000
  H   H13       1.0  0.20047717174914048  0.5295603377249227  0.06669510091335451  1.0000
  H   H14       1.0  0.25695874888252035  0.5048744066668864  0.7408106229984974  1.0000
  H   H15       1.0  0.8198783795841325  0.6958046396281214  0.16202839252549994  1.0000
  H   H16       1.0  0.818171339455647  0.558901619717439  0.8913828859693336  1.0000
  H   H17       1.0  0.7185424064672575  0.6043872651322397  0.0010437568894503515  1.0000
  H   H18       1.0  0.862635953355124  0.8147549411422057  0.8730763287287507  1.0000
  H   H19       1.0  0.7623698690021641  0.8565820365565255  0.9829956841516917  1.0000
  Zn  Zn1       1.0  0.9878264737362007  0.5794869074348998  0.563658662757716  1.0000
  Zn  Zn2       1.0  0.184061274551237  0.579686791552388  0.5634713122874044  1.0000
  C   C24       1.0  0.08583544443312886  0.5738729731975869  0.8008223871021005  1.0000
  C   C25       1.0  0.08605445850634433  0.5853025480598097  0.32630771036272055  1.0000
  C   C26       1.0  0.08765518390289989  0.8430437766166776  0.5579505118042618  1.0000
  C   C27       1.0  0.08423464080497527  0.31613001150129766  0.5691796578626969  1.0000
  O   O1        1.0  0.16052055772841456  0.5873076907159347  0.3746299848162571  1.0000
  O   O2        1.0  0.16030701151790638  0.5720184496998377  0.7523575458590125  1.0000
  O   O3        1.0  0.16177546984314595  0.7893772767518056  0.5562367866594664  1.0000
  O   O4        1.0  0.15905203253864866  0.3699488739014406  0.5707506466663774  1.0000
  O   O5        1.0  0.012835648783494642  0.7892248250192059  0.5563793284358414  1.0000
  O   O6        1.0  0.011367201724558297  0.5718677310400175  0.7525000154903476  1.0000
  O   O7        1.0  0.011580748151662554  0.5871569215758727  0.37477089278552134  1.0000
  O   O8        1.0  0.010112222861128567  0.36979809445726364  0.570891652042166  1.0000
