data_image0
_chemical_formula_structural       NC5NC4H6C6ClH5C6FH2Zn2C4O8
_chemical_formula_sum              "N2 C25 H13 Cl1 F1 Zn2 O8"
_cell_length_a       13.854160002989762
_cell_length_b       9.276545438789551
_cell_length_c       9.275646106892307
_cell_angle_alpha    84.98577803735094
_cell_angle_beta     90.02253834339291
_cell_angle_gamma    89.40960627284836

_space_group_name_H-M_alt    "P 1"
_space_group_IT_number       1

loop_
  _space_group_symop_operation_xyz
  'x, y, z'

loop_
  _atom_site_type_symbol
  _atom_site_label
  _atom_site_symmetry_multiplicity
  _atom_site_fract_x
  _atom_site_fract_y
  _atom_site_fract_z
  _atom_site_occupancy
  N   N1        1.0  0.8974850542908489  0.5950010253831836  0.40889485388380375  1.0000
  C   C1        1.0  0.824958546594067  0.6208376314299141  0.34979181944198845  1.0000
  C   C2        1.0  0.734734547308273  0.6529790771519046  0.2762653813938798  1.0000
  C   C3        1.0  0.6473908985402953  0.6227367925775449  0.34805808547953254  1.0000
  C   C4        1.0  0.5595921348303635  0.6529790917256324  0.2762653582016876  1.0000
  C   C5        1.0  0.4698504062767924  0.62083748316239  0.3497919110877181  1.0000
  N   N2        1.0  0.3977114841309954  0.5950009618996055  0.40889485375943424  1.0000
  C   C6        1.0  0.5591654777868519  0.7140697438338336  0.13269930376172012  1.0000
  C   C7        1.0  0.6464615273862472  0.746462834988562  0.06080430828195094  1.0000
  C   C8        1.0  0.6459966845970068  0.8079170921964236  0.9057354710029651  1.0000
  C   C9        1.0  0.7342425668012151  0.7140697434714677  0.13269921337327206  1.0000
  H   H1        1.0  0.6477471952131715  0.5753425407707731  0.4591755095993366  1.0000
  H   H2        1.0  0.4911234582548169  0.7364453762905022  0.07699516896336367  1.0000
  H   H3        1.0  0.7103727592627099  0.8763180278379115  0.8819603683983188  1.0000
  H   H4        1.0  0.5806642816130395  0.8763180290203555  0.8819604335631622  1.0000
  H   H5        1.0  0.6465970307253178  0.718173488440266  0.8340409534627895  1.0000
  H   H6        1.0  0.801946416532093  0.7364454896630144  0.07699508350007989  1.0000
  C   C10       1.0  0.15051592582471351  0.17156837997630903  0.4086569483142741  1.0000
  C   C11       1.0  0.15082715463303523  0.2566383860548922  0.27544007799791514  1.0000
  C   C12       1.0  0.14235803329884966  0.1929466586502591  0.14512269588017257  1.0000
  C   C13       1.0  0.1333775752438109  0.043345991492956815  0.14601728312648654  1.0000
  C   C14       1.0  0.13455452818794544  0.9567636071615243  0.2767889562270234  1.0000
  C   C15       1.0  0.14468995949493377  0.01842240850517229  0.4091452831641593  1.0000
  Cl  Cl1       1.0  0.14154321508358955  0.3013226384010724  0.9803484325114562  1.0000
  H   H7        1.0  0.19997385820452784  0.4321111155738857  0.6355730062968397  1.0000
  H   H8        1.0  0.15534878453597376  0.3733893792077041  0.27258252520072457  1.0000
  H   H9        1.0  0.12640323007247597  0.9936979723192699  0.04519597483671857  1.0000
  H   H10       1.0  0.1298345537979546  0.8405314030414188  0.27413494984418074  1.0000
  H   H11       1.0  0.1124280354554219  0.7172016712716567  0.6425314998657138  1.0000
  C   C16       1.0  0.1474595469132547  0.5995084923540922  0.9850632683966075  1.0000
  C   C17       1.0  0.23573429691946923  0.6145788501709655  0.05713281835246731  1.0000
  C   C18       1.0  0.32290576978054264  0.6161100122293894  0.981687890689336  1.0000
  C   C19       1.0  0.32333441440227806  0.6024529837697047  0.8333037610872824  1.0000
  C   C20       1.0  0.2365556488091063  0.5897868433286773  0.7593036385800445  1.0000
  C   C21       1.0  0.14774627783158767  0.5904822762799198  0.832738946564207  1.0000
  F   F1        1.0  0.4073436026291904  0.6291281923549177  0.053130618049162415  1.0000
  H   H12       1.0  0.9244485305415007  0.48236205225008866  0.09814860661747327  1.0000
  H   H13       1.0  0.3910162637155443  0.6030561978275162  0.7749887520464394  1.0000
  Zn  Zn1       1.0  0.04183963139138802  0.5949970577478587  0.40890319539801095  1.0000
  Zn  Zn2       1.0  0.2533569933907988  0.5949930038260308  0.40889835893983184  1.0000
  C   C22       1.0  0.14772947349722831  0.5864440908412702  0.6725067825248541  1.0000
  C   C23       1.0  0.14746944857953315  0.6035477885333493  0.14529491447027865  1.0000
  C   C24       1.0  0.14578425832914021  0.8584101807264121  0.4033014922708469  1.0000
  C   C25       1.0  0.1494146035157135  0.33157996543187296  0.4145002806759692  1.0000
  O   O1        1.0  0.22774255149293868  0.6048955841359878  0.19906827958871065  1.0000
  O   O2        1.0  0.22799316150568705  0.585092135047484  0.618729330542104  1.0000
  O   O3        1.0  0.2264212940901149  0.8047081761507174  0.40134415487918296  1.0000
  O   O4        1.0  0.22931434662439076  0.38527955450136964  0.41645334704100034  1.0000
  O   O5        1.0  0.06588220597728811  0.8047105070755542  0.40134820729090226  1.0000
  O   O6        1.0  0.06745406144425936  0.5850961991916892  0.6187333069961998  1.0000
  O   O7        1.0  0.06720345125434511  0.6048996165102662  0.1990705207368593  1.0000
  O   O8        1.0  0.06877524648940914  0.3852835754100669  0.4164556963938409  1.0000
