data_image0
_chemical_formula_structural       NC8NC6H8C12NH8C12NCOCH12Zn2C4O8
_chemical_formula_sum              "N4 C44 H28 O9 Zn2"
_cell_length_a       17.457602349358154
_cell_length_b       10.299770795358612
_cell_length_c       10.299158637457994
_cell_angle_alpha    85.57628442395506
_cell_angle_beta     92.85709877509845
_cell_angle_gamma    91.70596819880058

_space_group_name_H-M_alt    "P 1"
_space_group_IT_number       1

loop_
  _space_group_symop_operation_xyz
  'x, y, z'

loop_
  _atom_site_type_symbol
  _atom_site_label
  _atom_site_symmetry_multiplicity
  _atom_site_fract_x
  _atom_site_fract_y
  _atom_site_fract_z
  _atom_site_occupancy
  N   N1        1.0  0.7229487580609889  0.452351156733701  0.626402771228223  1.0000
  C   C1        1.0  0.6618644542456338  0.4064221669028571  0.6157904918262671  1.0000
  C   C2        1.0  0.5858729965091204  0.34929222129176085  0.6025983577532141  1.0000
  C   C3        1.0  0.5273375697791923  0.3894804319370353  0.677492797866927  1.0000
  C   C4        1.0  0.4527844651153536  0.33446896694169265  0.6649149425305736  1.0000
  C   C5        1.0  0.3906577173958986  0.37690188228211063  0.7442310045919521  1.0000
  C   C6        1.0  0.3161249327558655  0.3953507071931723  0.6884663163153144  1.0000
  C   C7        1.0  0.2575894493028502  0.435355030126864  0.7634687233889309  1.0000
  C   C8        1.0  0.18161903743806032  0.45440893019192274  0.7054885368151582  1.0000
  N   N2        1.0  0.1205517416145901  0.4697218861942389  0.6588726183305769  1.0000
  C   C9        1.0  0.2730945362470252  0.45715384853906305  0.8947443165423931  1.0000
  C   C10       1.0  0.3468426147195429  0.43909414687089954  0.9508965727318905  1.0000
  C   C11       1.0  0.405366439788635  0.39927003925704174  0.8763518720300072  1.0000
  C   C12       1.0  0.4380555796524409  0.23859136773445755  0.5760097825964905  1.0000
  C   C13       1.0  0.49657926363143745  0.198681977895399  0.5015153237407732  1.0000
  C   C14       1.0  0.5703475194479263  0.25380601183869866  0.5146431186416035  1.0000
  H   H1        1.0  0.5396827566705259  0.4646982501692793  0.7441176993096685  1.0000
  H   H2        1.0  0.30379643591806216  0.38034456946926354  0.5864432986713155  1.0000
  H   H3        1.0  0.22822810273136923  0.48805732087375775  0.9535776580136678  1.0000
  H   H4        1.0  0.3586577548568401  0.4556578153827506  0.05254621553537586  1.0000
  H   H5        1.0  0.4618406293170598  0.38429441437092526  0.922459278261217  1.0000
  H   H6        1.0  0.3815646681658347  0.19325203392916987  0.5653613426690103  1.0000
  H   H7        1.0  0.4847483159676132  0.12458020127374447  0.4336920223454963  1.0000
  H   H8        1.0  0.6152137419730226  0.2220330202960213  0.4563209649075328  1.0000
  C   C15       1.0  0.9216843865239821  0.07966510341186117  0.6426719095744715  1.0000
  C   C16       1.0  0.8994416364478588  0.08782263174647743  0.5094437446337051  1.0000
  C   C17       1.0  0.8882414359214487  0.9748230203208759  0.4419066347778963  1.0000
  C   C18       1.0  0.8995820735974774  0.8525471298303242  0.5093866597518253  1.0000
  C   C19       1.0  0.9218234351973327  0.8423982492145505  0.6426152618569997  1.0000
  C   C20       1.0  0.9327504128161594  0.9565063180854596  0.7085117295415149  1.0000
  C   C21       1.0  0.8647102332067225  0.9845066316742164  0.30095899640483315  1.0000
  C   C22       1.0  0.8088549036813006  0.07322847636050711  0.25121000951457995  1.0000
  C   C23       1.0  0.7867402320505694  0.08221490288943545  0.1185517178393456  1.0000
  C   C24       1.0  0.8200623196486988  0.0028799140866651043  0.03352807104625844  1.0000
  C   C25       1.0  0.8757337161614074  0.9143478036137408  0.08237146940916795  1.0000
  C   C26       1.0  0.8979098518724387  0.9051080261002944  0.21500480716769332  1.0000
  N   N3        1.0  0.7974091867131966  0.012201826550660723  0.8978412708067113  1.0000
  H   H9        1.0  0.8917924284723313  0.18237578673698082  0.4574663184338581  1.0000
  H   H10       1.0  0.8900068754512271  0.7650822231247074  0.4581920622318121  1.0000
  H   H11       1.0  0.9499091037810047  0.9494450928905142  0.8112913090918756  1.0000
  H   H12       1.0  0.781551171711449  0.1344698724389437  0.3151841773555264  1.0000
  H   H13       1.0  0.743492323470898  0.15079511366111875  0.0821080178972835  1.0000
  H   H14       1.0  0.9417461793050746  0.83706329042285  0.25005700258552066  1.0000
  H   H15       1.0  0.8219226650140612  0.9534543312073247  0.833702852162602  1.0000
  H   H16       1.0  0.755957193412663  0.07792012101476906  0.8605210542417399  1.0000
  C   C27       1.0  0.9218258166618346  0.46089684556677724  0.26127640180136913  1.0000
  C   C28       1.0  0.9236332887715927  0.5976789295793361  0.25009828343741947  1.0000
  C   C29       1.0  0.9244895134266483  0.667166566238851  0.12726826275348735  1.0000
  C   C30       1.0  0.9234864878601359  0.5980323854417651  0.014774784442212141  1.0000
  C   C31       1.0  0.9216820121068104  0.4611665235341015  0.0240108488248627  1.0000
  C   C32       1.0  0.9208661414160276  0.3934404569658019  0.14765065414194556  1.0000
  C   C33       1.0  0.9264025165305528  0.8118652668432669  0.11641679881777689  1.0000
  C   C34       1.0  0.973503619142614  0.8817568780320243  0.20282460146507608  1.0000
  C   C35       1.0  0.9753101084477002  0.01792625988218122  0.19248245493488514  1.0000
  C   C36       1.0  0.9305378564417499  0.0869555195151066  0.09467029351656886  1.0000
  C   C37       1.0  0.8825231704565033  0.01738438285081178  0.009970931271565897  1.0000
  C   C38       1.0  0.8807481839186516  0.8812442867301786  0.020054661099600628  1.0000
  N   N4        1.0  0.9302704055145602  0.22698966341484095  0.08340059650099851  1.0000
  C   C39       1.0  0.9960162355849189  0.3088498104761692  0.11199419186156878  1.0000
  O   O1        1.0  0.06215431863233767  0.2623266704421563  0.12591582761326459  1.0000
  C   C40       1.0  0.9870430828938558  0.45227278652718933  0.11585115466968099  1.0000
  H   H17       1.0  0.9233075422349803  0.6504818905906378  0.337017830818761  1.0000
  H   H18       1.0  0.9251594187689058  0.6511190207635782  0.9199350708201033  1.0000
  H   H19       1.0  0.9194746222586172  0.28793735460899317  0.1555579153302762  1.0000
  H   H20       1.0  0.9187419120399379  0.20284433970110974  0.8341892575385033  1.0000
  H   H21       1.0  0.009401401053904742  0.8310982114749526  0.2779533509156702  1.0000
  H   H22       1.0  0.010721321809910707  0.06881285222419375  0.2624013965152614  1.0000
  H   H23       1.0  0.846647392546874  0.0689190171436156  0.9354131913660758  1.0000
  H   H24       1.0  0.8428235244244706  0.8302011056462753  0.9536147075301956  1.0000
  H   H25       1.0  0.8805467751685441  0.27227225864636884  0.044389004704869395  1.0000
  H   H26       1.0  0.9331006854818609  0.47163077993682556  0.16286187061584934  1.0000
  H   H27       1.0  0.9849888979935597  0.49885033479626306  0.014960448516838198  1.0000
  H   H28       1.0  0.03599645514581429  0.4951790863008817  0.1725000107871555  1.0000
  Zn  Zn1       1.0  0.837688388400981  0.4573604939519187  0.6357803664080669  1.0000
  Zn  Zn2       1.0  0.005812093078802592  0.46470190484121376  0.6495056564207473  1.0000
  C   C41       1.0  0.9217065371606729  0.4559417393380012  0.8798379249621139  1.0000
  C   C42       1.0  0.9217957804994453  0.46612237829912373  0.40544837509072496  1.0000
  C   C43       1.0  0.9217941833122562  0.6982234400915959  0.6374505376334083  1.0000
  C   C44       1.0  0.9217080766814771  0.22383911475149398  0.6478358270900533  1.0000
  O   O2        1.0  0.9855877687972151  0.470656476211614  0.45904248280417015  1.0000
  O   O3        1.0  0.9855165504875179  0.45697862256033556  0.8366606210150404  1.0000
  O   O4        1.0  0.9855864655263407  0.6526241229095942  0.6409310204994647  1.0000
  O   O5        1.0  0.985517796409213  0.27501098261309065  0.6547719812613129  1.0000
  O   O6        1.0  0.8579826276982031  0.6470514136761899  0.6305140368769027  1.0000
  O   O7        1.0  0.8579127129533981  0.45140747361711514  0.8262435680312566  1.0000
  O   O8        1.0  0.8579839316002559  0.4650852814623343  0.44862386843421204  1.0000
  O   O9        1.0  0.8579139591890653  0.26943977860922436  0.6443534642591893  1.0000
