data_image0
_chemical_formula_structural       NC10NC3NCH9C13OH12C12NH11Zn2C4O8
_chemical_formula_sum              "N4 C43 H32 O9 Zn2"
_cell_length_a       19.437513618241372
_cell_length_b       10.29915010939255
_cell_length_c       10.299774167527172
_cell_angle_alpha    85.55710761189597
_cell_angle_beta     90.34073838346129
_cell_angle_gamma    89.50394211810362

_space_group_name_H-M_alt    "P 1"
_space_group_IT_number       1

loop_
  _space_group_symop_operation_xyz
  'x, y, z'

loop_
  _atom_site_type_symbol
  _atom_site_label
  _atom_site_symmetry_multiplicity
  _atom_site_fract_x
  _atom_site_fract_y
  _atom_site_fract_z
  _atom_site_occupancy
  N   N1        1.0  0.6476924184875018  0.4101764288603764  0.5753027851869494  1.0000
  C   C1        1.0  0.5887562708288718  0.4271870467630898  0.5723222145809737  1.0000
  C   C2        1.0  0.5153122850336699  0.4484402620329384  0.5686225068178721  1.0000
  C   C3        1.0  0.4735672133847715  0.3472399789380896  0.5569916411634446  1.0000
  C   C4        1.0  0.3976757004212115  0.3573038164515632  0.5497678387300136  1.0000
  C   C5        1.0  0.3580864507741524  0.4381736793415225  0.6154851357111593  1.0000
  C   C6        1.0  0.2819058440246128  0.4295628178015795  0.6070437819434007  1.0000
  C   C7        1.0  0.2487904183107403  0.30821013239614786  0.611720414370309  1.0000
  C   C8        1.0  0.1770569444655353  0.30183624337617454  0.6045544314882527  1.0000
  C   C9        1.0  0.13746834347623613  0.41634240243449677  0.5930741621599522  1.0000
  C   C10       1.0  0.0636204563743547  0.40963026957688764  0.5857401886156  1.0000
  N   N2        1.0  0.004251853066182799  0.40423430497393625  0.5798441321084857  1.0000
  C   C11       1.0  0.16986721301898713  0.5373846628002839  0.5891428583753366  1.0000
  C   C12       1.0  0.24158504790700944  0.5440125760907752  0.5963707898945372  1.0000
  C   C13       1.0  0.3867534338237452  0.5304856773461187  0.7053756367327353  1.0000
  N   N3        1.0  0.4437283598983315  0.5936983595175782  0.6849549190213169  1.0000
  C   C14       1.0  0.48757201363229796  0.5844114677478298  0.571854950402191  1.0000
  H   H1        1.0  0.4959670281694967  0.2521740227098406  0.5448971848099737  1.0000
  H   H2        1.0  0.3729736824994836  0.28777356333060644  0.491471467942094  1.0000
  H   H3        1.0  0.2782554284386153  0.2182940792623753  0.6227655596472343  1.0000
  H   H4        1.0  0.1524788530450157  0.20760388429228605  0.6084674084704169  1.0000
  H   H5        1.0  0.1397170002772508  0.6266462690401141  0.5804099384153363  1.0000
  H   H6        1.0  0.2656815497673884  0.6386577618527951  0.5924422400003599  1.0000
  H   H7        1.0  0.3567458435091137  0.5508913417283977  0.7897329085021205  1.0000
  H   H8        1.0  0.5303129700700475  0.6547303668319895  0.5775987082845591  1.0000
  H   H9        1.0  0.457901381988507  0.6125023481444393  0.4812056672768059  1.0000
  C   C15       1.0  0.8260402691207256  0.025804601732139384  0.5777184641028905  1.0000
  C   C16       1.0  0.8247645543232183  0.014061141065122122  0.7145063849109206  1.0000
  C   C17       1.0  0.8240578920584339  0.890973278587013  0.7835963201733076  1.0000
  C   C18       1.0  0.8246319280095429  0.7788079017604087  0.7141413181306395  1.0000
  C   C19       1.0  0.8259105978696382  0.7885959319130109  0.5774398297886958  1.0000
  C   C20       1.0  0.8266091882251949  0.9125550204318663  0.5100272997877087  1.0000
  C   C21       1.0  0.8227023372800338  0.8795318530083763  0.9282122363821713  1.0000
  C   C22       1.0  0.7803925636034493  0.787376337033919  0.9956914998730892  1.0000
  C   C23       1.0  0.7790941940640266  0.7766917561673831  0.1317746421776108  1.0000
  C   C24       1.0  0.8205333825011848  0.8569976336977215  0.20284434933507933  1.0000
  C   C25       1.0  0.8621848875475913  0.9501179398515363  0.1359992424825741  1.0000
  C   C26       1.0  0.8634992275809189  0.9609780515129814  0.9999160148895723  1.0000
  C   C27       1.0  0.817691574947959  0.8478946741735377  0.3488874205435841  1.0000
  O   O1        1.0  0.7662665031330447  0.9319387047966722  0.3884711633994601  1.0000
  H   H10       1.0  0.8280012583037368  0.2552712191182127  0.3195191604627792  1.0000
  H   H11       1.0  0.8233637916841715  0.10087182336095511  0.7674945796062509  1.0000
  H   H12       1.0  0.8250212190915565  0.6836927272567058  0.7669772578928573  1.0000
  H   H13       1.0  0.8275935177399607  0.920821061981733  0.40458532660108704  1.0000
  H   H14       1.0  0.826356111611891  0.4648860553266151  0.5248590531829291  1.0000
  H   H15       1.0  0.7474930398851211  0.7249024276044115  0.9431662742292555  1.0000
  H   H16       1.0  0.7456230868130673  0.7059330422511945  0.1817214777802154  1.0000
  H   H17       1.0  0.8938170675405762  0.014166134217688196  0.18925449635664204  1.0000
  H   H18       1.0  0.8969933369976444  0.03218202488614173  0.95077607684376  1.0000
  H   H19       1.0  0.8682966559431078  0.8748909535217588  0.3897000407572573  1.0000
  H   H20       1.0  0.8065084667814008  0.7460695791400237  0.38655575386998564  1.0000
  H   H21       1.0  0.7665153864745687  0.9222824381406147  0.4850963810102721  1.0000
  C   C28       1.0  0.8259988611026632  0.4070853703176846  0.1962273847028704  1.0000
  C   C29       1.0  0.7586256487978119  0.3589023021000557  0.19820794394648145  1.0000
  C   C30       1.0  0.7244630000296438  0.33460378886429404  0.08206334057327358  1.0000
  C   C31       1.0  0.7585783429631393  0.3591344102598237  0.9629025463862009  1.0000
  C   C32       1.0  0.8259519932883226  0.40731524450004447  0.9589308491682842  1.0000
  C   C33       1.0  0.859284867570422  0.43102142160215545  0.07610775737114106  1.0000
  C   C34       1.0  0.6531860460525761  0.28362946204106576  0.08521200590720679  1.0000
  C   C35       1.0  0.6338670388793446  0.1854895759027435  0.18030044228645403  1.0000
  C   C36       1.0  0.5667779648739438  0.1375681214747457  0.18313020067511454  1.0000
  C   C37       1.0  0.5179466616822187  0.1869115210587593  0.09118602809314647  1.0000
  C   C38       1.0  0.5368117275248796  0.2846687799760634  0.9962513163973035  1.0000
  C   C39       1.0  0.603880125215904  0.33269184903727855  0.9931549777824019  1.0000
  N   N4        1.0  0.4493301191177714  0.13783937557792414  0.09421695890528281  1.0000
  H   H22       1.0  0.8516828495822288  0.4253914597187118  0.5229304702427033  1.0000
  H   H23       1.0  0.73221444920063  0.34183789409382026  0.29016359357714916  1.0000
  H   H24       1.0  0.7328155918829954  0.3388865318930958  0.8732515084058764  1.0000
  H   H25       1.0  0.9112603484680202  0.46819155099499965  0.07381186220652203  1.0000
  H   H26       1.0  0.8516140718723203  0.4257295831735192  0.6299596942899743  1.0000
  H   H27       1.0  0.6708830397392782  0.14460124565106747  0.2514363468876226  1.0000
  H   H28       1.0  0.5529120543718318  0.061746394285894235  0.25679956186841646  1.0000
  H   H29       1.0  0.49950879458952957  0.3238964468616743  0.9248423089250335  1.0000
  H   H30       1.0  0.6169415895639332  0.40939354755862634  0.9198070737683737  1.0000
  H   H31       1.0  0.412570319337489  0.17401129204080878  0.026071307225532296  1.0000
  H   H32       1.0  0.4347824860415654  0.0649745188471007  0.16462943260967822  1.0000
  Zn  Zn1       1.0  0.7505877748397645  0.4084581730198784  0.5766208297011659  1.0000
  Zn  Zn2       1.0  0.9013565040821624  0.4059418935920287  0.5785367608845928  1.0000
  C   C40       1.0  0.8259602056762338  0.40209768247045846  0.8147654636242905  1.0000
  C   C41       1.0  0.8259857193491148  0.41230399545823765  0.34039227474543443  1.0000
  C   C42       1.0  0.8259318845291058  0.644410671873161  0.5723174954000032  1.0000
  C   C43       1.0  0.8260139893104284  0.1699894465024847  0.5828403121215069  1.0000
  O   O2        1.0  0.8831972568294633  0.41309483258562335  0.3895024167753405  1.0000
  O   O3        1.0  0.8831786453294693  0.3993960675633157  0.7671090955597004  1.0000
  O   O4        1.0  0.8831550042637047  0.5950668842516318  0.5713306355640391  1.0000
  O   O5        1.0  0.8832208464524756  0.21742402601759703  0.5852807787435443  1.0000
  O   O6        1.0  0.7687233810194835  0.5969760414544047  0.5698768111815697  1.0000
  O   O7        1.0  0.7687470218210948  0.4013067851792338  0.7656552013648015  1.0000
  O   O8        1.0  0.7687656334704601  0.41500550447053536  0.38804696126714266  1.0000
  O   O9        1.0  0.7687892230862569  0.21933468864231398  0.5838254206021596  1.0000
