data_image0
_chemical_formula_structural       NC8NH4C10H6C7NH4Zn2C4O8
_chemical_formula_sum              "N3 C29 H14 Zn2 O8"
_cell_length_a       13.859017124695912
_cell_length_b       9.275150299802176
_cell_length_c       9.275157849593905
_cell_angle_alpha    85.78415629139576
_cell_angle_beta     89.74086887057864
_cell_angle_gamma    89.4839206584006

_space_group_name_H-M_alt    "P 1"
_space_group_IT_number       1

loop_
  _space_group_symop_operation_xyz
  'x, y, z'

loop_
  _atom_site_type_symbol
  _atom_site_label
  _atom_site_symmetry_multiplicity
  _atom_site_fract_x
  _atom_site_fract_y
  _atom_site_fract_z
  _atom_site_occupancy
  N   N1        1.0  0.9040019052905306  0.5636621784098037  0.40150794886879937  1.0000
  C   C1        1.0  0.8319580801307516  0.5402518570940005  0.3454867907040507  1.0000
  C   C2        1.0  0.7423398151700444  0.5111328335172497  0.27580366751605234  1.0000
  C   C3        1.0  0.6543478813171478  0.5395209193626893  0.34373594145913255  1.0000
  C   C4        1.0  0.5671094897251809  0.5111340542999361  0.27580308139318227  1.0000
  C   C5        1.0  0.5680455505036544  0.45435139887236026  0.1399170893516668  1.0000
  C   C6        1.0  0.6558534748931629  0.4260724249494656  0.07224630582865976  1.0000
  C   C7        1.0  0.7429109198730924  0.4543490597316888  0.13991828076502902  1.0000
  C   C8        1.0  0.4767182373765008  0.5402527792577114  0.3454862875429432  1.0000
  N   N2        1.0  0.40405302960494366  0.563662499080862  0.4015077310776889  1.0000
  H   H1        1.0  0.6537645458576782  0.5834728932470592  0.44891495009769594  1.0000
  H   H2        1.0  0.5010466539261101  0.4320088825228359  0.08644694184533533  1.0000
  H   H3        1.0  0.6564356905135215  0.3822102124715587  0.967280298188429  1.0000
  H   H4        1.0  0.8105028905926309  0.4320044513551964  0.08644914417906979  1.0000
  C   C9        1.0  0.15657053855038705  0.13998005561192417  0.40392036815338805  1.0000
  C   C10       1.0  0.20764902735769253  0.2209822151552463  0.29489589926718196  1.0000
  C   C11       1.0  0.2504696367149115  0.15372939014972742  0.18033095343312613  1.0000
  C   C12       1.0  0.24264723562584312  0.004494303990021378  0.17331482786736996  1.0000
  C   C13       1.0  0.1936772894174681  0.922042068076436  0.2816916352655183  1.0000
  C   C14       1.0  0.15149362520394938  0.9873336397235493  0.3991078617220707  1.0000
  C   C15       1.0  0.30156753101446854  0.2384496810952668  0.06881375148770963  1.0000
  C   C16       1.0  0.34434936687795625  0.30940556620088455  0.9754506101590469  1.0000
  C   C17       1.0  0.3944449121980427  0.39249988859321744  0.8661264434307046  1.0000
  C   C18       1.0  0.4372184994931448  0.46345046389772104  0.7727811991600064  1.0000
  H   H5        1.0  0.11011117901579491  0.40450759235783607  0.6327585256481751  1.0000
  H   H6        1.0  0.2122781833870231  0.33745202215159764  0.2971221373459803  1.0000
  H   H7        1.0  0.2752652672647604  0.9514954586329886  0.08466563080729728  1.0000
  H   H8        1.0  0.19074561368642895  0.805982089812745  0.2754700210675334  1.0000
  H   H9        1.0  0.08774011965874284  0.8601600927188204  0.741499120385775  1.0000
  H   H10       1.0  0.4747772770027037  0.5257510941928475  0.6908163648644599  1.0000
  C   C19       1.0  0.15533685150068013  0.5595786596908924  0.978339503712857  1.0000
  C   C20       1.0  0.23822064311892532  0.6066130654967328  0.04776837339809626  1.0000
  C   C21       1.0  0.3160868450894098  0.664992525777145  0.9675586138686569  1.0000
  C   C22       1.0  0.3119755185528101  0.6772656927720546  0.816829963364404  1.0000
  C   C23       1.0  0.23108248959242036  0.6290629724972565  0.7460661864448133  1.0000
  C   C24       1.0  0.15272736915622476  0.5677350254438918  0.8246887515135747  1.0000
  C   C25       1.0  0.3999043011415009  0.7140361889465343  0.04028366382642434  1.0000
  N   N3        1.0  0.46727207811750127  0.7534540699124397  0.09874236363698775  1.0000
  H   H11       1.0  0.9208600227588313  0.5109324373560864  0.08645348845711176  1.0000
  H   H12       1.0  0.3717857485862266  0.7229029395413401  0.7537479485070594  1.0000
  H   H13       1.0  0.23082358621848445  0.6366482990088927  0.6289586662064266  1.0000
  H   H14       1.0  0.9959028909140878  0.5289244651823672  0.5475027337515628  1.0000
  Zn  Zn1       1.0  0.04830585848525515  0.5636584991522805  0.40151623410430287  1.0000
  Zn  Zn2       1.0  0.259749102848188  0.5636545229018737  0.40151133200105815  1.0000
  C   C26       1.0  0.15325287851051494  0.5604456220152385  0.6647432399571587  1.0000
  C   C27       1.0  0.15480438043347822  0.5668692217853791  0.13828445719496285  1.0000
  C   C28       1.0  0.15246603321017282  0.8271104559283826  0.3942750491987288  1.0000
  C   C29       1.0  0.15559116373185322  0.30020265519357997  0.40875273462853356  1.0000
  O   O1        1.0  0.2348673252815603  0.5693081976944185  0.19196162012470963  1.0000
  O   O2        1.0  0.23367047147052378  0.5580025358022502  0.6110619477990684  1.0000
  O   O3        1.0  0.23303399762422972  0.7733377760849801  0.39265696165918135  1.0000
  O   O4        1.0  0.23550372724790236  0.3539729666927472  0.41036649815876464  1.0000
  O   O5        1.0  0.07255116193035294  0.7733400553642618  0.3926610679406802  1.0000
  O   O6        1.0  0.07318762562342607  0.5580065477630414  0.6110659673995108  1.0000
  O   O7        1.0  0.0743844851417963  0.5693121426810545  0.19196390744913172  1.0000
  O   O8        1.0  0.07502088683290231  0.3539769024011795  0.4103688935831034  1.0000
