data_image0
_chemical_formula_structural       NC6NC2H4C6BrH3C6BrH4Zn2C4O8
_chemical_formula_sum              "N2 C24 H11 Br2 Zn2 O8"
_cell_length_a       14.927258858638513
_cell_length_b       9.276564384272257
_cell_length_c       9.27656775626242
_cell_angle_alpha    86.06955747846486
_cell_angle_beta     90.18620734994761
_cell_angle_gamma    90.58593300640023

_space_group_name_H-M_alt    "P 1"
_space_group_IT_number       1

loop_
  _space_group_symop_operation_xyz
  'x, y, z'

loop_
  _atom_site_type_symbol
  _atom_site_label
  _atom_site_symmetry_multiplicity
  _atom_site_fract_x
  _atom_site_fract_y
  _atom_site_fract_z
  _atom_site_occupancy
  N   N1        1.0  0.8502867310432953  0.5626497431841521  0.4093191139037955  1.0000
  C   C1        1.0  0.77276023971653  0.5626497147785563  0.40931912451157393  1.0000
  C   C2        1.0  0.6763277327997461  0.5626498293869622  0.4093190745778619  1.0000
  C   C3        1.0  0.6288612162305584  0.5377191685214682  0.2827128207102505  1.0000
  C   C4        1.0  0.5351499047721734  0.5377191928504372  0.2827126872933423  1.0000
  C   C5        1.0  0.48851166771877724  0.5626496520219142  0.4093190933481213  1.0000
  C   C6        1.0  0.3920790938104644  0.5626497666332262  0.4093190434084857  1.0000
  N   N2        1.0  0.3145526024836988  0.562649738227631  0.4093190540162641  1.0000
  C   C7        1.0  0.5359781172964363  0.5875803128903154  0.5359253472098089  1.0000
  C   C8        1.0  0.6296894287548205  0.5875802885613457  0.5359254806267173  1.0000
  H   H1        1.0  0.6642351869819152  0.5183217075008923  0.18420588889886247  1.0000
  H   H2        1.0  0.4991315327155717  0.5183219049872705  0.1842058837993399  1.0000
  H   H3        1.0  0.5006042136922833  0.6069777646516277  0.6344323870641275  1.0000
  H   H4        1.0  0.6657078016565398  0.6069776748290743  0.6344323940157384  1.0000
  C   C9        1.0  0.07972569094834905  0.13917237522776427  0.40968755368580934  1.0000
  C   C10       1.0  0.06797109153787664  0.22138182214284163  0.277994898688954  1.0000
  C   C11       1.0  0.06455622725590149  0.15511515881331545  0.14753231811781764  1.0000
  C   C12       1.0  0.07287089758816961  0.005695782952985781  0.14628517725743362  1.0000
  C   C13       1.0  0.08304316277655999  0.9217735024613525  0.27598641706487936  1.0000
  C   C14       1.0  0.08512218996949145  0.9861160815431211  0.40896305767219676  1.0000
  Br  Br1       1.0  0.06885679069603734  0.91558465163511  0.9672677221532546  1.0000
  H   H5        1.0  0.05629693080836076  0.22035237423845272  0.04716638310340903  1.0000
  H   H6        1.0  0.08718162493160532  0.8055030935584471  0.2728798972472326  1.0000
  H   H7        1.0  0.13500842017799486  0.6903813975813209  0.6333764248915867  1.0000
  C   C15       1.0  0.0815424311295263  0.5585000216530209  0.9862021226131041  1.0000
  C   C16       1.0  0.0021560498912398572  0.5932162875188953  0.05678326977185689  1.0000
  C   C17       1.0  0.9268262205907691  0.6398112109453341  0.9780424284185005  1.0000
  C   C18       1.0  0.9294682860873167  0.6526336150127172  0.8275356166579431  1.0000
  C   C19       1.0  0.007088482878335082  0.6163595542626374  0.7552287397438904  1.0000
  C   C20       1.0  0.0833054760030405  0.5667885110383296  0.8324485556070855  1.0000
  Br  Br2       1.0  0.8263731044705102  0.7175658200568837  0.7202298551492543  1.0000
  H   H8        1.0  0.20394737859079082  0.4275172625282813  0.27714834209584094  1.0000
  H   H9        1.0  0.9989750029667565  0.5876304016870241  0.1736854509204877  1.0000
  H   H10       1.0  0.8666056277981761  0.6673059858146182  0.03433630131968223  1.0000
  H   H11       1.0  0.23061088385580109  0.5518975432378446  0.5530665514545698  1.0000
  Zn  Zn1       1.0  0.9842638335498596  0.5626459591431245  0.40932742563460534  1.0000
  Zn  Zn2       1.0  0.18057546022037996  0.5626418259362377  0.40932257204070455  1.0000
  C   C21       1.0  0.08293359340952833  0.559476844911859  0.6724947580078533  1.0000
  C   C22       1.0  0.08190785596585348  0.565812761053753  0.14615537948022972  1.0000
  C   C23       1.0  0.08408556049683402  0.8259694785924117  0.40335826494844196  1.0000
  C   C24       1.0  0.0807558110116098  0.29931839554506423  0.41529195084253345  1.0000
  O   O1        1.0  0.1565296950273699  0.5682591233498634  0.19983531714367997  1.0000
  O   O2        1.0  0.15730772885319078  0.557026253647231  0.6188107227328061  1.0000
  O   O3        1.0  0.15823695568073326  0.7722224402989438  0.40148109914423813  1.0000
  O   O4        1.0  0.15560040105262352  0.35306294595741355  0.41716483268931737  1.0000
  O   O5        1.0  0.009238825726086261  0.7722248391248543  0.40148516498006814  1.0000
  O   O6        1.0  0.008309609773952122  0.5570303843041841  0.6188147102598203  1.0000
  O   O7        1.0  0.007531572078447018  0.5682631867866847  0.19983757236255895  1.0000
  O   O8        1.0  0.006602278259375546  0.3530670001378782  0.41716719594520413  1.0000
