data_image0
_chemical_formula_structural       NC8NC6H8C7OC3FC3H9C7OC6H10Zn2C4O8
_chemical_formula_sum              "N2 C44 H27 O10 F1 Zn2"
_cell_length_a       17.457602349358154
_cell_length_b       10.29937835083307
_cell_length_c       10.299382801718286
_cell_angle_alpha    85.56292937340861
_cell_angle_beta     92.85617812018302
_cell_angle_gamma    91.70902404556999

_space_group_name_H-M_alt    "P 1"
_space_group_IT_number       1

loop_
  _space_group_symop_operation_xyz
  'x, y, z'

loop_
  _atom_site_type_symbol
  _atom_site_label
  _atom_site_symmetry_multiplicity
  _atom_site_fract_x
  _atom_site_fract_y
  _atom_site_fract_z
  _atom_site_occupancy
  N   N1        1.0  0.7230085989982723  0.4526495257471585  0.6263265140141803  1.0000
  C   C1        1.0  0.6619230571983454  0.40672030530399006  0.6157171664911616  1.0000
  C   C2        1.0  0.5859300594636142  0.34959007143992205  0.6025286792313791  1.0000
  C   C3        1.0  0.5273949216245108  0.3897673105666868  0.6774199223359261  1.0000
  C   C4        1.0  0.4528403325538098  0.3347555467040435  0.6648455773782724  1.0000
  C   C5        1.0  0.3907138869746055  0.3771768371125346  0.7441582615670865  1.0000
  C   C6        1.0  0.3161823263910988  0.39563597747529866  0.6883929734739122  1.0000
  C   C7        1.0  0.2576471250506999  0.4356293023441886  0.7633921938284535  1.0000
  C   C8        1.0  0.1816779820686431  0.45469392201337966  0.7054113914869222  1.0000
  N   N2        1.0  0.12061170623524921  0.4700154962685432  0.6587949783166598  1.0000
  C   C9        1.0  0.27315127113357074  0.45740673143781496  0.894665180193088  1.0000
  C   C10       1.0  0.3468981324342289  0.43933666557993206  0.9508180084939681  1.0000
  C   C11       1.0  0.4054216752107734  0.39952348607868404  0.8762764790017736  1.0000
  C   C12       1.0  0.43810967097210607  0.23888883408824735  0.5759471803931377  1.0000
  C   C13       1.0  0.49663306951294933  0.198990360021444  0.5014558975177458  1.0000
  C   C14       1.0  0.5704028064270529  0.25411460417078846  0.5145801698103312  1.0000
  H   H1        1.0  0.5397415397256509  0.46497711989698126  0.7440395481785094  1.0000
  H   H2        1.0  0.3038546183344792  0.38064654868273196  0.5863718625116624  1.0000
  H   H3        1.0  0.22828504472999533  0.4883015555260475  0.9534960513096126  1.0000
  H   H4        1.0  0.3587125346503961  0.45588375785607377  0.05246565224947841  1.0000
  H   H5        1.0  0.4618948609421489  0.3845393445082619  0.9223843640307376  1.0000
  H   H6        1.0  0.3816175394821001  0.1935493019924106  0.5653016363635707  1.0000
  H   H7        1.0  0.48480073835322623  0.12489684591188556  0.4336378144991161  1.0000
  H   H8        1.0  0.6152687897810664  0.22235013523674274  0.4562605350816707  1.0000
  C   C15       1.0  0.9217329423825672  0.07994416534775217  0.6426184571970666  1.0000
  C   C16       1.0  0.8416898658997701  0.07645295413012732  0.6200572808137674  1.0000
  C   C17       1.0  0.801220644160522  0.957400267758032  0.6101474223870533  1.0000
  C   C18       1.0  0.8418774592625474  0.8412171458747587  0.6200794750430385  1.0000
  C   C19       1.0  0.9218946754115963  0.842711181589413  0.6425148704598743  1.0000
  C   C20       1.0  0.9613356910066752  0.9625735135920268  0.6539945410299894  1.0000
  C   C21       1.0  0.7167957567720925  0.9536800730748577  0.5849589394246979  1.0000
  O   O1        1.0  0.6871756806552797  0.8676840818800979  0.5158790054192944  1.0000
  C   C22       1.0  0.6659730776200935  0.04741808473446785  0.6381477739674337  1.0000
  C   C23       1.0  0.5976446013403167  0.08442051216366764  0.5687870521596354  1.0000
  C   C24       1.0  0.548898632175957  0.17155795654481643  0.6188674458411676  1.0000
  F   F1        1.0  0.4834504755720492  0.20737844956789872  0.5508032948287905  1.0000
  C   C25       1.0  0.5675479220621286  0.22169037358084218  0.738995685344211  1.0000
  C   C26       1.0  0.6347747421743021  0.18438769778806186  0.8094810109223365  1.0000
  C   C27       1.0  0.6836792665239122  0.09732885853392514  0.7598182779603275  1.0000
  H   H9        1.0  0.07291799067957051  0.294012706665036  0.6832089365924631  1.0000
  H   H10       1.0  0.8108224958801802  0.16661463891713832  0.6087234826747101  1.0000
  H   H11       1.0  0.810820012722881  0.749390998242725  0.6114909862810174  1.0000
  H   H12       1.0  0.023042954797922725  0.9644609745387613  0.6713867893258914  1.0000
  H   H13       1.0  0.952706061118533  0.5159162611623378  0.6500433713273607  1.0000
  H   H14       1.0  0.5823774218792639  0.046735437096740766  0.47538175691455775  1.0000
  H   H15       1.0  0.5297921452820199  0.2890368016024487  0.7777915982830143  1.0000
  H   H16       1.0  0.6488557992138284  0.2225081682712502  0.9030030175660886  1.0000
  H   H17       1.0  0.7347979106343678  0.06800909980061864  0.8171449299198412  1.0000
  C   C28       1.0  0.9218903326091645  0.46125777566386356  0.2612031330357645  1.0000
  C   C29       1.0  0.0024903574321204474  0.4656416086005988  0.2664811851373179  1.0000
  C   C30       1.0  0.04314240874942724  0.4663645374725125  0.15208537149792556  1.0000
  C   C31       1.0  0.0023034092972711293  0.4656614812374318  0.031220345876212148  1.0000
  C   C32       1.0  0.9217372698506873  0.46139755194860643  0.02393014558339268  1.0000
  C   C33       1.0  0.8819979988091615  0.4588756939310365  0.1395255724422737  1.0000
  C   C34       1.0  0.1282458517034042  0.47237731759242196  0.1574061189498408  1.0000
  O   O2        1.0  0.1620621576374491  0.5345656616821424  0.06563142541575996  1.0000
  C   C35       1.0  0.17498657525830819  0.4078328667671467  0.26673934936665433  1.0000
  C   C36       1.0  0.24710841793201244  0.46144476130933954  0.30372254776095975  1.0000
  C   C37       1.0  0.2919787865395218  0.4004680846163183  0.40565073047901423  1.0000
  C   C38       1.0  0.2656666612539984  0.28501060026803704  0.4708835088843602  1.0000
  C   C39       1.0  0.19456184960758388  0.2299961038883076  0.4339605643743967  1.0000
  C   C40       1.0  0.14947284685713047  0.29058450350865095  0.3321166465746479  1.0000
  H   H18       1.0  0.7697864470644654  0.4549966219716463  0.4584069289351476  1.0000
  H   H19       1.0  0.03374599550054746  0.4699573428677928  0.3596319292499116  1.0000
  H   H20       1.0  0.033566333768396676  0.4671982952042899  0.9428217835483097  1.0000
  H   H21       1.0  0.819861452662208  0.4554968877860561  0.13465235653950391  1.0000
  H   H22       1.0  0.8907875468546711  0.46086457166898387  0.6935876113736175  1.0000
  H   H23       1.0  0.2684270296376843  0.5510525639545181  0.2545143817571321  1.0000
  H   H24       1.0  0.34721243458414275  0.44276588199778066  0.4340277240008879  1.0000
  H   H25       1.0  0.3005082027384389  0.2379031015698707  0.5496795269778919  1.0000
  H   H26       1.0  0.17449193574139255  0.13998691268514407  0.4838995314836114  1.0000
  H   H27       1.0  0.09515972937284654  0.24504460821902357  0.30362910538618665  1.0000
  Zn  Zn1       1.0  0.8377482648362861  0.45765748820687535  0.6357037102900731  1.0000
  Zn  Zn2       1.0  0.005872021756015311  0.4649968873908572  0.6494284158642113  1.0000
  C   C41       1.0  0.9217634164635525  0.4561971070489608  0.8797590067907746  1.0000
  C   C42       1.0  0.9218587063568657  0.46645898742181857  0.40537339647896614  1.0000
  C   C43       1.0  0.9218612056448146  0.6985308372105172  0.6373590256987545  1.0000
  C   C44       1.0  0.9217608594619395  0.22412369438587107  0.6477734423372707  1.0000
  O   O3        1.0  0.9856501806628952  0.4709841593099786  0.4589667089101107  1.0000
  O   O4        1.0  0.9855739834079096  0.45724138947801696  0.8365820546146392  1.0000
  O   O5        1.0  0.9856520890548709  0.6529289040125466  0.6408422844658783  1.0000
  O   O6        1.0  0.9855720176681909  0.27529665154386485  0.6547063770010051  1.0000
  O   O7        1.0  0.8580482115517252  0.6473577215507036  0.6304257444628797  1.0000
  O   O8        1.0  0.8579701062460422  0.45167176738740095  0.826165445154956  1.0000
  O   O9        1.0  0.8580463038557303  0.4654144916771797  0.4485485380821062  1.0000
  O   O10       1.0  0.8579681408363836  0.2697269746394859  0.6442883035404678  1.0000
