data_image0
_chemical_formula_structural       NC10NC4H8C6NO2H5C7OIH5Zn2C4O8
_chemical_formula_sum              "N3 C31 H18 O11 I1 Zn2"
_cell_length_a       19.240039092071726
_cell_length_b       10.299485455225872
_cell_length_c       10.297413674417344
_cell_angle_alpha    85.55272828315375
_cell_angle_beta     90.01513813472472
_cell_angle_gamma    89.9979212120009

_space_group_name_H-M_alt    "P 1"
_space_group_IT_number       1

loop_
  _space_group_symop_operation_xyz
  'x, y, z'

loop_
  _atom_site_type_symbol
  _atom_site_label
  _atom_site_symmetry_multiplicity
  _atom_site_fract_x
  _atom_site_fract_y
  _atom_site_fract_z
  _atom_site_occupancy
  N   N1        1.0  0.6542474266816066  0.4215111249276077  0.5671898933207855  1.0000
  C   C1        1.0  0.5940990560714556  0.42151448862699115  0.5671902011330039  1.0000
  C   C2        1.0  0.5192810167179033  0.42151854142278283  0.5671907435130481  1.0000
  C   C3        1.0  0.4828243248454158  0.42312675013602824  0.6846279515824416  1.0000
  C   C4        1.0  0.4101536454617004  0.423080682821815  0.6847588298797942  1.0000
  C   C5        1.0  0.3729487255381765  0.4215232769188228  0.5671921126314635  1.0000
  C   C6        1.0  0.2957436848643967  0.42152273507077015  0.567193004999074  1.0000
  C   C7        1.0  0.2585714767119288  0.34607029390634947  0.6635541048332971  1.0000
  C   C8        1.0  0.18590076702705485  0.3461100608175587  0.6634217675357965  1.0000
  C   C9        1.0  0.1494114454863335  0.4215177687172267  0.5671922470415522  1.0000
  C   C10       1.0  0.07459340599434199  0.42151402125944903  0.5671910870534094  1.0000
  N   N2        1.0  0.014445087268945393  0.42151099229281924  0.5671902058160383  1.0000
  C   C11       1.0  0.18586953310998433  0.49692845777746547  0.4709635794753404  1.0000
  C   C12       1.0  0.2585402643982868  0.4969731361034843  0.4708319930918039  1.0000
  C   C13       1.0  0.41011964208450524  0.4199642832256653  0.44962465634545135  1.0000
  C   C14       1.0  0.4827902995498501  0.419913619365033  0.44975416198031515  1.0000
  H   H1        1.0  0.5105524596335692  0.424748786349828  0.7760825133560227  1.0000
  H   H2        1.0  0.38307361504499204  0.426025493331878  0.7766444137465496  1.0000
  H   H3        1.0  0.28567686189002517  0.2856750531687231  0.7379973268024527  1.0000
  H   H4        1.0  0.15819797289510878  0.2870761080531825  0.7381733968339212  1.0000
  H   H5        1.0  0.15814250207593247  0.5559600376188668  0.3962112815629264  1.0000
  H   H6        1.0  0.2856214635905702  0.5573698036120751  0.39638870723070535  1.0000
  H   H7        1.0  0.3830130881739202  0.4170205198764316  0.3577396690198803  1.0000
  H   H8        1.0  0.5104919898295269  0.4182892113932745  0.3582991096490029  1.0000
  C   C15       1.0  0.8343509354148324  0.04013451484101305  0.5671964945565315  1.0000
  C   C16       1.0  0.903940050471816  0.035942061894739696  0.6085173537801363  1.0000
  C   C17       1.0  0.9392279360326047  0.9167432745151917  0.6294705744120261  1.0000
  C   C18       1.0  0.9039333540991098  0.8006725870199692  0.6085132087326505  1.0000
  C   C19       1.0  0.834348255080671  0.8028775822867011  0.5671948466021388  1.0000
  C   C20       1.0  0.7999523123904376  0.9230913125188692  0.5467712288754674  1.0000
  N   N3        1.0  0.010596887463157007  0.9138597284043426  0.671848101721286  1.0000
  O   O1        1.0  0.045118203000534374  0.02750542209585127  0.6923464028633419  1.0000
  O   O2        1.0  0.042344168080098  0.8083372830533352  0.6906990698524369  1.0000
  H   H9        1.0  0.8077721499104518  0.36920007523326664  0.5514144474068772  1.0000
  H   H10       1.0  0.930789150503803  0.12567776291848487  0.6244598621287478  1.0000
  H   H11       1.0  0.9308059019154542  0.7084617256940756  0.6244697323592358  1.0000
  H   H12       1.0  0.7462771852370785  0.9255662613445634  0.5148998068041135  1.0000
  H   H13       1.0  0.8077813139204021  0.4762603267623541  0.5514197655542306  1.0000
  C   C21       1.0  0.8342952736960664  0.42155844356103267  0.1857432295395136  1.0000
  C   C22       1.0  0.7693442894983917  0.48411358452065806  0.17967195925414114  1.0000
  C   C23       1.0  0.7363567138366415  0.5158842573358458  0.05947315072069049  1.0000
  C   C24       1.0  0.7694695106720599  0.4839928429713558  0.9444841262544963  1.0000
  C   C25       1.0  0.8344039073723838  0.4214536306186232  0.9486481348287032  1.0000
  C   C26       1.0  0.8664190219899013  0.3906195382206452  0.0697382358268588  1.0000
  C   C27       1.0  0.6676732153616831  0.5820341033119554  0.05559177595858046  1.0000
  O   O3        1.0  0.6389274712839138  0.6097188545644467  0.15985565912232258  1.0000
  I   I1        1.0  0.6134376214119923  0.6342701184312749  0.8801409876786922  1.0000
  H   H14       1.0  0.9569280054072927  0.3034482311161195  0.4044203723910256  1.0000
  H   H15       1.0  0.7443845050907155  0.5081527477689167  0.2689838765553678  1.0000
  H   H16       1.0  0.7450084504134822  0.5075513505494789  0.8511774093591229  1.0000
  H   H17       1.0  0.916486061709477  0.34239935440359104  0.0736112818752368  1.0000
  H   H18       1.0  0.859542076576229  0.39724309390066703  0.6227041034562523  1.0000
  Zn  Zn1       1.0  0.7581926947227353  0.4215076006372917  0.567197479291256  1.0000
  Zn  Zn2       1.0  0.9104998175176252  0.4215038600498193  0.5671932409032414  1.0000
  C   C28       1.0  0.8343818287185725  0.4162996696444359  0.804442744943099  1.0000
  C   C29       1.0  0.8343123467231762  0.42671342963657083  0.32994810269588903  1.0000
  C   C30       1.0  0.8343444282732881  0.6587036078648065  0.5620188338449046  1.0000
  C   C31       1.0  0.8343496952120766  0.18430793107427118  0.5723720830527416  1.0000
  O   O4        1.0  0.8921178359525417  0.4284364046670581  0.3783429670212073  1.0000
  O   O5        1.0  0.8921739214938338  0.414572875903938  0.756044289853592  1.0000
  O   O6        1.0  0.8921429411851752  0.6103171214666867  0.5602852664711325  1.0000
  O   O7        1.0  0.8921487642751966  0.23269216840937257  0.5741018930091015  1.0000
  O   O8        1.0  0.776543695990217  0.6103192922804296  0.5602888271800096  1.0000
  O   O9        1.0  0.7765746762803127  0.4145766070623009  0.7560477812984248  1.0000
  O   O10       1.0  0.7765185905630511  0.42844009078309203  0.3783448967235281  1.0000
  O   O11       1.0  0.7765495188967629  0.232695845223035  0.5741039201006015  1.0000
