data_image0
_chemical_formula_structural       NC8NH4C9H10C6NCH7Zn2C4O8
_chemical_formula_sum              "N3 C28 H21 Zn2 O8"
_cell_length_a       13.859017124695912
_cell_length_b       10.297183801781406
_cell_length_c       9.273390368590329
_cell_angle_alpha    86.14107260812962
_cell_angle_beta     89.99082906418701
_cell_angle_gamma    89.9976557662862

_space_group_name_H-M_alt    "P 1"
_space_group_IT_number       1

loop_
  _space_group_symop_operation_xyz
  'x, y, z'

loop_
  _atom_site_type_symbol
  _atom_site_label
  _atom_site_symmetry_multiplicity
  _atom_site_fract_x
  _atom_site_fract_y
  _atom_site_fract_z
  _atom_site_occupancy
  N   N1        1.0  0.908717001081455  0.4064611296488985  0.4094784398209883  1.0000
  C   C1        1.0  0.8363691483710298  0.385332733582287  0.3533289201707137  1.0000
  C   C2        1.0  0.7463727146490324  0.3590520911514048  0.28348613391541577  1.0000
  C   C3        1.0  0.6587494519563515  0.38467304260788904  0.3515740629172668  1.0000
  C   C4        1.0  0.5711423948177251  0.3590531897968053  0.2834855540900323  1.0000
  C   C5        1.0  0.5713410117628853  0.3078054298409907  0.14728821571021533  1.0000
  C   C6        1.0  0.6587816831402953  0.2822829549471748  0.07946237544508317  1.0000
  C   C7        1.0  0.7462063705757344  0.3078033247886778  0.14728939506468897  1.0000
  C   C8        1.0  0.4811293096808072  0.38533356343094166  0.3533284217598234  1.0000
  N   N2        1.0  0.4087681266840548  0.406461418180182  0.4094782236768697  1.0000
  H   H1        1.0  0.6587369207068579  0.42434079128926516  0.45699406544966176  1.0000
  H   H2        1.0  0.5040519426799922  0.28764075044710635  0.09369556113482091  1.0000
  H   H3        1.0  0.65879425502068  0.24269621655192888  0.9742558658799196  1.0000
  H   H4        1.0  0.8135081591890666  0.28763676267747523  0.09369774061854286  1.0000
  C   C9        1.0  0.15875053599266487  0.024987681263592514  0.4096825616776185  1.0000
  C   C10       1.0  0.1559537301820959  0.03339603982587614  0.2580162649375728  1.0000
  C   C11       1.0  0.154520621594179  0.9210874004112783  0.18031318592590617  1.0000
  C   C12       1.0  0.15594248863190052  0.7982193207119965  0.25742842882941597  1.0000
  C   C13       1.0  0.1587438383606876  0.7879250176554903  0.4092865612714127  1.0000
  C   C14       1.0  0.16012865943638732  0.9017758384230378  0.48442233251431926  1.0000
  C   C15       1.0  0.15149541165858182  0.9396138287319546  0.016275376615303868  1.0000
  C   C16       1.0  0.09500512262150251  0.8401289616018559  0.9360430416551062  1.0000
  C   C17       1.0  0.2049318933191706  0.8403934210884879  0.9314644149680563  1.0000
  H   H5        1.0  0.15983739693848986  0.34928612500443795  0.4681244505299194  1.0000
  H   H6        1.0  0.1548742114548718  0.12806449547550658  0.1994647067274846  1.0000
  H   H7        1.0  0.15489060706416713  0.7100747705696601  0.20050283606288533  1.0000
  H   H8        1.0  0.1622859702313426  0.894561170356931  0.6014360653329947  1.0000
  H   H9        1.0  0.16402198181912908  0.5612655278806432  0.6961038136711633  1.0000
  H   H10       1.0  0.15052394184906692  0.03982475639650729  0.9635507410093895  1.0000
  H   H11       1.0  0.06280052853923035  0.7571192137054158  0.0016339613771316774  1.0000
  H   H12       1.0  0.06097514525316105  0.8800259095191127  0.8340699347496345  1.0000
  H   H13       1.0  0.2395019092667119  0.757545125043746  0.9942748172524811  1.0000
  H   H14       1.0  0.23514927589994739  0.8804425538816754  0.826813972436677  1.0000
  C   C18       1.0  0.15879193638588432  0.40240541635535765  0.9862409068010249  1.0000
  C   C19       1.0  0.24741229673922027  0.3998243574515022  0.059844700018733876  1.0000
  C   C20       1.0  0.3344868124907969  0.40931920858086  0.9844249520875379  1.0000
  C   C21       1.0  0.33515332474868287  0.4217470439636428  0.8327905129493796  1.0000
  C   C22       1.0  0.24712110186685532  0.4221373427712982  0.7583782545735396  1.0000
  C   C23       1.0  0.15870244411486834  0.4105073032620288  0.8327282363213602  1.0000
  N   N3        1.0  0.4238586441721306  0.43273761705553665  0.7519965050199433  1.0000
  C   C24       1.0  0.5191261250014583  0.4328907823038078  0.818984588667308  1.0000
  H   H15       1.0  0.00649628662471646  0.34000532928973365  0.27211334435575973  1.0000
  H   H16       1.0  0.4009672475881201  0.4081239075431829  0.045546552711756  1.0000
  H   H17       1.0  0.9338384763304296  0.3095853457160056  0.737289614138716  1.0000
  H   H18       1.0  0.4207278569695317  0.44134692039893963  0.6391162043659118  1.0000
  H   H19       1.0  0.5253874820606881  0.5162227044191507  0.888409870164848  1.0000
  H   H20       1.0  0.5308965702497346  0.34003321969398836  0.8845867180708282  1.0000
  H   H21       1.0  0.5756716833545263  0.442711380575909  0.7340889042485514  1.0000
  Zn  Zn1       1.0  0.05302095639030546  0.40645782433316135  0.40948670681316335  1.0000
  Zn  Zn2       1.0  0.26446416258278505  0.4064542397999542  0.40948178342877917  1.0000
  C   C25       1.0  0.1587172329728408  0.403800753769904  0.6727266988240704  1.0000
  C   C26       1.0  0.15877019492410205  0.4091129507476632  0.14624193197583502  1.0000
  C   C27       1.0  0.1587407315435374  0.6436586467805526  0.403618026154964  1.0000
  C   C28       1.0  0.1587466242082276  0.16925349774257437  0.4153506822977675  1.0000
  O   O1        1.0  0.2390044931453097  0.41135703295459997  0.19993787219457548  1.0000
  O   O2        1.0  0.23896343584146784  0.4015529670225944  0.6190266074843569  1.0000
  O   O3        1.0  0.23898132938092487  0.5952412634079555  0.401719449639696  1.0000
  O   O4        1.0  0.23898652746595506  0.21766874482891432  0.41724492196957286  1.0000
  O   O5        1.0  0.07849851935194696  0.5952433193067661  0.4017235682664684  1.0000
  O   O6        1.0  0.07848062580247904  0.40155658291841045  0.619030648452402  1.0000
  O   O7        1.0  0.07852168335413913  0.4113605869966966  0.19994018034179906  1.0000
  O   O8        1.0  0.07850371765949382  0.21767229061390062  0.4172473381805586  1.0000
