data_image0
_chemical_formula_structural       NC8NH4C10H6C6SCH7Zn2C4O8
_chemical_formula_sum              "N2 C29 H17 S1 Zn2 O8"
_cell_length_a       13.859017124695912
_cell_length_b       9.275150299802176
_cell_length_c       9.275274088470228
_cell_angle_alpha    85.77620997522486
_cell_angle_beta     89.7257703154182
_cell_angle_gamma    89.4839206584006

_space_group_name_H-M_alt    "P 1"
_space_group_IT_number       1

loop_
  _space_group_symop_operation_xyz
  'x, y, z'

loop_
  _atom_site_type_symbol
  _atom_site_label
  _atom_site_symmetry_multiplicity
  _atom_site_fract_x
  _atom_site_fract_y
  _atom_site_fract_z
  _atom_site_occupancy
  N   N1        1.0  0.9042825530837657  0.5638808230619159  0.4015099412285752  1.0000
  C   C1        1.0  0.8322485635777843  0.5404781644220886  0.3454888528885727  1.0000
  C   C2        1.0  0.7426425329067219  0.511368672229755  0.27580581655358805  1.0000
  C   C3        1.0  0.6546386721613782  0.5397474661751244  0.3437380058259125  1.0000
  C   C4        1.0  0.5674122075647644  0.5113698930926123  0.2758052304314491  1.0000
  C   C5        1.0  0.5683721258930898  0.45460582439834907  0.1399194077581729  1.0000
  C   C6        1.0  0.6561919312650836  0.42633610660839  0.07224870857999965  1.0000
  C   C7        1.0  0.7432374950533513  0.4546034850947145  0.13992059917005006  1.0000
  C   C8        1.0  0.4770087209118737  0.5404790866546225  0.34548834972809256  1.0000
  N   N2        1.0  0.4043336774364163  0.5638811437627638  0.40150972343773583  1.0000
  H   H1        1.0  0.6540368703875793  0.5836850534832597  0.44891688336940644  1.0000
  H   H2        1.0  0.5013826170875343  0.4322706217929203  0.08644932689700924  1.0000
  H   H3        1.0  0.656792575803114  0.38248825157205335  0.9672828317693529  1.0000
  H   H4        1.0  0.8108388533673907  0.4322661903240413  0.08645152922799816  1.0000
  C   C9        1.0  0.15685076279434718  0.14019837028893534  0.40392235750632555  1.0000
  C   C10       1.0  0.20794839306474633  0.2212154423975441  0.2948980245081687  1.0000
  C   C11       1.0  0.25078911662848125  0.15397828779383183  0.18033322146780972  1.0000
  C   C12       1.0  0.24296794736296556  0.00474416131255007  0.1733171046469495  1.0000
  C   C13       1.0  0.19397897340164505  0.9222771014219959  0.28169377696429354  1.0000
  C   C14       1.0  0.1517746943813012  0.9875526126639496  0.39910985707331403  1.0000
  C   C15       1.0  0.3019065900411224  0.23871383226522164  0.06881615851738389  1.0000
  C   C16       1.0  0.34470481770309624  0.3096824877512372  0.9754531335564987  1.0000
  C   C17       1.0  0.39481955710432803  0.3927917637020719  0.8661291030897492  1.0000
  C   C18       1.0  0.43760953305572325  0.46375510693898175  0.7727839751645211  1.0000
  H   H5        1.0  0.11035122606659153  0.4046946061351653  0.6327602297773358  1.0000
  H   H6        1.0  0.21257715823270007  0.3376849448849988  0.2971242598121846  1.0000
  H   H7        1.0  0.27560154317156926  0.9517574415540386  0.08466801807919633  1.0000
  H   H8        1.0  0.19104839000152718  0.8062179741620188  0.2754721705209262  1.0000
  H   H9        1.0  0.08796107508632733  0.8603322327596867  0.7415006889807076  1.0000
  H   H10       1.0  0.4751827011591248  0.5260669485333238  0.6908192430299064  1.0000
  C   C19       1.0  0.1556917951217962  0.5598551860931267  0.978342023509593  1.0000
  C   C20       1.0  0.2375567050775649  0.6106398721494299  0.04740190613741623  1.0000
  C   C21       1.0  0.31399361638287204  0.6729191468593239  0.9669840988900155  1.0000
  C   C22       1.0  0.3098462293526421  0.684552107639687  0.8163579057259784  1.0000
  C   C23       1.0  0.2300497337252605  0.6326753057146037  0.7458013128757348  1.0000
  C   C24       1.0  0.15293369608802232  0.5678958510927452  0.8246901819743124  1.0000
  S   S1        1.0  0.41723166430399017  0.7383342270165352  0.057300889336553196  1.0000
  C   C25       1.0  0.36655455880680693  0.9189232575188762  0.06800742792468695  1.0000
  H   H11       1.0  0.9223934256602986  0.5004902057818142  0.08738398649215195  1.0000
  H   H12       1.0  0.36884630014439734  0.7328932955127101  0.7535854583422523  1.0000
  H   H13       1.0  0.22972143366414466  0.6401503494359386  0.6286993954136089  1.0000
  H   H14       1.0  0.9970488818660956  0.5220407758467129  0.5480358737210556  1.0000
  H   H15       1.0  0.35245959551954775  0.9693433470652607  0.9577589837928326  1.0000
  H   H16       1.0  0.2983719574993404  0.9135035226873666  0.13140380298038545  1.0000
  H   H17       1.0  0.4188632916227808  0.9862415465808805  0.1226243968785732  1.0000
  Zn  Zn1       1.0  0.04858650482384852  0.5638771426711231  0.40151822645375185  1.0000
  Zn  Zn2       1.0  0.26002975004744533  0.5638731670912351  0.4015133243566169  1.0000
  C   C26       1.0  0.15348730999413895  0.5606282608651304  0.664744904220586  1.0000
  C   C27       1.0  0.15513124246469734  0.5671238706257657  0.13828677763638075  1.0000
  C   C28       1.0  0.15274795088606385  0.8273300899096766  0.39427705057358764  1.0000
  C   C29       1.0  0.1558705395555875  0.3004203088907098  0.4087547179584119  1.0000
  O   O1        1.0  0.23518476319502216  0.569555504474764  0.1919638736629359  1.0000
  O   O2        1.0  0.23391432779687493  0.558192517276987  0.6110636789708342  1.0000
  O   O3        1.0  0.2333161993883004  0.7735576313912319  0.39265896505082365  1.0000
  O   O4        1.0  0.23578281974262483  0.354190399656364  0.4103684794772484  1.0000
  O   O5        1.0  0.07283336297348209  0.7735599101088497  0.39266307132720435  1.0000
  O   O6        1.0  0.07343148124405464  0.5581965286879698  0.6110676985662662  1.0000
  O   O7        1.0  0.07470192265367182  0.569559449148536  0.19196616098450692  1.0000
  O   O8        1.0  0.07529997890705942  0.3541943350371459  0.4103708748986017  1.0000
