data_image0
_chemical_formula_structural       NC8NC6H8C6FH4C7F3H3Zn2C4O8
_chemical_formula_sum              "N2 C31 H15 F4 Zn2 O8"
_cell_length_a       17.457602349358154
_cell_length_b       9.275642734913903
_cell_length_c       9.272291681409872
_cell_angle_alpha    85.97357626748611
_cell_angle_beta     93.27365386630078
_cell_angle_gamma    92.2944494432906

_space_group_name_H-M_alt    "P 1"
_space_group_IT_number       1

loop_
  _space_group_symop_operation_xyz
  'x, y, z'

loop_
  _atom_site_type_symbol
  _atom_site_label
  _atom_site_symmetry_multiplicity
  _atom_site_fract_x
  _atom_site_fract_y
  _atom_site_fract_z
  _atom_site_occupancy
  N   N1        1.0  0.7255654104148699  0.6002934666235401  0.4732375525716755  1.0000
  C   C1        1.0  0.6641563299366895  0.5491710494867985  0.46149698885280505  1.0000
  C   C2        1.0  0.5877609272724328  0.485581205152917  0.446902317803453  1.0000
  C   C3        1.0  0.5298034641306022  0.5309387262125582  0.5300329837962268  1.0000
  C   C4        1.0  0.45486195367005244  0.46970809878034553  0.5161184211039598  1.0000
  C   C5        1.0  0.3933465191214087  0.517601326560782  0.6041570830277045  1.0000
  C   C6        1.0  0.3186754009938371  0.5375644017181505  0.5422132898502645  1.0000
  C   C7        1.0  0.2607172545169918  0.5827186752576672  0.6254640290115774  1.0000
  C   C8        1.0  0.1846022412549146  0.6033328066340491  0.5610593685294225  1.0000
  N   N2        1.0  0.12341864807480683  0.6198994827170636  0.5092781959095898  1.0000
  C   C9        1.0  0.2769417577103552  0.6081850161455555  0.7712230076853577  1.0000
  C   C10       1.0  0.3508322541176905  0.5886579000448895  0.833596815538985  1.0000
  C   C11       1.0  0.408781879619709  0.5437081833660671  0.750854180227015  1.0000
  C   C12       1.0  0.4391561903713691  0.362353212420895  0.41748266659905275  1.0000
  C   C13       1.0  0.49710538493699424  0.31730923656918697  0.3347959064142083  1.0000
  C   C14       1.0  0.5712651886028284  0.3786701529313665  0.3493210619823457  1.0000
  H   H1        1.0  0.5429010467404941  0.6151309462294701  0.6039466799597881  1.0000
  H   H2        1.0  0.3057994797993347  0.5199225485302734  0.4289324032242592  1.0000
  H   H3        1.0  0.23252532087411162  0.6430753566028544  0.8365269599030916  1.0000
  H   H4        1.0  0.36320254898167553  0.6080264166633889  0.9464615734109296  1.0000
  H   H5        1.0  0.46537212584289506  0.5275113952786131  0.8020703310926459  1.0000
  H   H6        1.0  0.3823438998481337  0.31188548432529495  0.40570137900140857  1.0000
  H   H7        1.0  0.48452341252139636  0.2343453815232073  0.2595503262712968  1.0000
  H   H8        1.0  0.6156784544588684  0.34281875607235307  0.28458561529671944  1.0000
  C   C15       1.0  0.9221241144204677  0.18644122231875326  0.491663264707423  1.0000
  C   C16       1.0  0.9067611968552199  0.2678580612125008  0.36003247067244026  1.0000
  C   C17       1.0  0.8986415625901844  0.20104585657607063  0.22950255605395967  1.0000
  C   C18       1.0  0.905818557319828  0.05209260161755758  0.22830352983210808  1.0000
  C   C19       1.0  0.9197861694499392  0.9689998783427912  0.35779119463895426  1.0000
  C   C20       1.0  0.9268672836268059  0.033741062317673924  0.49086561292264275  1.0000
  F   F1        1.0  0.8846843276609807  0.28136699747845184  0.10353619618303922  1.0000
  H   H9        1.0  0.0026985881183849638  0.27237375535181574  0.8209817726504973  1.0000
  H   H10       1.0  0.9028343132106724  0.38427379048224464  0.35783167357751533  1.0000
  H   H11       1.0  0.8998235211169459  0.0004540953360956414  0.12693343866520168  1.0000
  H   H12       1.0  0.9232377302558393  0.8529753948221711  0.3541416613503665  1.0000
  C   C21       1.0  0.9228590973024858  0.6063082618943398  0.06776084678545513  1.0000
  C   C22       1.0  0.9739810600145851  0.5180566101514541  0.1527427649384705  1.0000
  C   C23       1.0  0.02934692937833994  0.44293795617432163  0.08907400893770001  1.0000
  C   C24       1.0  0.03582237012830536  0.45583131385174896  0.9387500462319588  1.0000
  C   C25       1.0  0.9831440072495908  0.5392280734803852  0.8524638628547767  1.0000
  C   C26       1.0  0.9261322713478399  0.6138740648137184  0.9147680086932404  1.0000
  C   C27       1.0  0.09427066683143016  0.3713627788861734  0.8695859761613827  1.0000
  F   F2        1.0  0.1584136446323009  0.3501708843587377  0.9623509747334675  1.0000
  F   F3        1.0  0.11765230997921906  0.44469257552602054  0.7435270623545809  1.0000
  F   F4        1.0  0.06190581743065283  0.2383382246253667  0.83688548629291  1.0000
  H   H13       1.0  0.8163848657277311  0.8925095309317036  0.13778394174707076  1.0000
  H   H14       1.0  0.06763164441322833  0.37558220464854675  0.15785580274591227  1.0000
  H   H15       1.0  0.7529315141155355  0.7435052178549448  0.7855356256987007  1.0000
  Zn  Zn1       1.0  0.8403772712537458  0.6059475448659486  0.48364643428027904  1.0000
  Zn  Zn2       1.0  0.008606752398793832  0.61423368148063  0.4988811325744258  1.0000
  C   C28       1.0  0.925479693864686  0.6066965093821799  0.7546708055220366  1.0000
  C   C29       1.0  0.9235061775855937  0.6134866290244188  0.22785706753078336  1.0000
  C   C30       1.0  0.9259445494786015  0.8735318311674187  0.4852691034118537  1.0000
  C   C31       1.0  0.923041255160838  0.3466495717880639  0.4972588429624432  1.0000
  O   O1        1.0  0.9875655197656238  0.6190340063059012  0.28736831624131964  1.0000
  O   O2        1.0  0.9891026276116455  0.6074370259997539  0.7067219261848217  1.0000
  O   O3        1.0  0.9894771495702132  0.822909893939303  0.48917806631859473  1.0000
  O   O4        1.0  0.9871909400416321  0.40356114489330536  0.5049120627663723  1.0000
  O   O5        1.0  0.8617930262024215  0.816620078627124  0.477615498881891  1.0000
  O   O6        1.0  0.861418513646207  0.6011489433125417  0.6951592802201989  1.0000
  O   O7        1.0  0.8598813988692724  0.6127458578593364  0.2758039364201226  1.0000
  O   O8        1.0  0.8595068195022182  0.39727298709363845  0.49334779107990734  1.0000
