data_image0
_chemical_formula_structural       NC11NC3H8C12NCOCH13C10NCOCH13Zn2C4O8
_chemical_formula_sum              "N4 C44 H34 O10 Zn2"
_cell_length_a       17.807433833752565
_cell_length_b       10.299155265289649
_cell_length_c       10.299158637457994
_cell_angle_alpha    85.56442242627145
_cell_angle_beta     88.50589662061446
_cell_angle_gamma    90.66237101144993

_space_group_name_H-M_alt    "P 1"
_space_group_IT_number       1

loop_
  _space_group_symop_operation_xyz
  'x, y, z'

loop_
  _atom_site_type_symbol
  _atom_site_label
  _atom_site_symmetry_multiplicity
  _atom_site_fract_x
  _atom_site_fract_y
  _atom_site_fract_z
  _atom_site_occupancy
  N   N1        1.0  0.7073654621186506  0.43805260171552335  0.5342437104620963  1.0000
  C   C1        1.0  0.6565414149866761  0.40334718061046654  0.6008163741986543  1.0000
  C   C2        1.0  0.5933111756581234  0.36017649640404414  0.6836242727110462  1.0000
  C   C3        1.0  0.6050297624428775  0.2966655926278632  0.8063615784924468  1.0000
  C   C4        1.0  0.5437069658739763  0.25517398507221567  0.8868850609680922  1.0000
  C   C5        1.0  0.47051118625551164  0.2768802192403539  0.8453121268718908  1.0000
  C   C6        1.0  0.4578158565671397  0.34054552143802663  0.7221145760432157  1.0000
  C   C7        1.0  0.38005207540668584  0.3635809768517129  0.6777605933922408  1.0000
  C   C8        1.0  0.36129597176899975  0.34666161321049166  0.5481831892793492  1.0000
  C   C9        1.0  0.28807026622192394  0.36832910116064377  0.5065661936586527  1.0000
  C   C10       1.0  0.23265767098226975  0.40723421025958095  0.5937062308349892  1.0000
  C   C11       1.0  0.1572953490437925  0.4295597238309947  0.5507277442137015  1.0000
  N   N2        1.0  0.0967094154385374  0.44750777811671383  0.5161761689451334  1.0000
  C   C12       1.0  0.2507222622868539  0.4243639763133867  0.7227524367657234  1.0000
  C   C13       1.0  0.3238951669366534  0.4026616467435627  0.7646248744557134  1.0000
  C   C14       1.0  0.5199959630131539  0.3820325695875939  0.6416075108476593  1.0000
  H   H1        1.0  0.6614932585141581  0.27926180811002754  0.8397322873173318  1.0000
  H   H2        1.0  0.5528985489578331  0.20575206879099128  0.981635879276234  1.0000
  H   H3        1.0  0.4238678779146925  0.24234442778978352  0.9087614206655465  1.0000
  H   H4        1.0  0.4029938796699009  0.31499330397014447  0.4794744319941831  1.0000
  H   H5        1.0  0.2746501823674482  0.35441194280258737  0.4065341893486547  1.0000
  H   H6        1.0  0.20830793404886222  0.4548089960794732  0.7909467524075263  1.0000
  H   H7        1.0  0.3367865123225262  0.41812425043460544  0.8644737008775712  1.0000
  H   H8        1.0  0.5115025150789522  0.4328170106889815  0.54709064021049  1.0000
  C   C15       1.0  0.9021249156247181  0.061384867674714405  0.5253245629746823  1.0000
  C   C16       1.0  0.889316669721961  0.07073780029713016  0.39099295738892975  1.0000
  C   C17       1.0  0.8827498814826347  0.9583404530267688  0.32276965438660565  1.0000
  C   C18       1.0  0.8891370960493906  0.8354735874222824  0.3906935039307049  1.0000
  C   C19       1.0  0.9019571661860953  0.8241657299747556  0.5251061518529412  1.0000
  C   C20       1.0  0.9083754931538774  0.93763654945648  0.591594025802761  1.0000
  C   C21       1.0  0.8692012312961552  0.9692084182314287  0.18066299309587852  1.0000
  C   C22       1.0  0.9073162111053915  0.06422315066213202  0.09747618662786506  1.0000
  C   C23       1.0  0.8945722202750853  0.0743198947591941  0.9637440617427577  1.0000
  C   C24       1.0  0.8439255929506392  0.9887326989248237  0.9103434425735815  1.0000
  C   C25       1.0  0.8048929606345482  0.8955119487320701  0.9935046730528514  1.0000
  C   C26       1.0  0.8176643205909234  0.8851598398758717  0.12719819218401462  1.0000
  N   N3        1.0  0.8287645591877676  0.9985686851347192  0.7734851340109938  1.0000
  C   C27       1.0  0.8836377350915793  0.03681149134502503  0.6727204306571397  1.0000
  O   O1        1.0  0.9525526840235152  0.041026855442988897  0.6973809962576816  1.0000
  C   C28       1.0  0.8596965270172857  0.06263973265071286  0.5352907295814098  1.0000
  H   H9        1.0  0.9070748350665278  0.3852640814111436  0.5769874679398121  1.0000
  H   H10       1.0  0.8833823920403235  0.16562490748771586  0.33945839852487514  1.0000
  H   H11       1.0  0.8851055431381732  0.7485625042394315  0.33825183284939886  1.0000
  H   H12       1.0  0.91825729004022  0.9297076332689165  0.6952062375754395  1.0000
  H   H13       1.0  0.9266042559095571  0.5955503136218877  0.7786512979881106  1.0000
  H   H14       1.0  0.9474250482684258  0.1302562923462507  0.13570748096642204  1.0000
  H   H15       1.0  0.9234040845596868  0.150459750385898  0.9028253308922688  1.0000
  H   H16       1.0  0.7647121864789945  0.8301808781424693  0.9544096759723857  1.0000
  H   H17       1.0  0.7864182844757193  0.8125779276244811  0.18906190548720028  1.0000
  H   H18       1.0  0.7758564384824602  0.9684069168577711  0.7448667222209324  1.0000
  H   H19       1.0  0.8054671895635841  0.1147672556452708  0.5333535878793252  1.0000
  H   H20       1.0  0.8527530511178351  0.9688493650347157  0.49038861068778905  1.0000
  H   H21       1.0  0.9024746151388359  0.12375502779197232  0.4779099908092874  1.0000
  C   C29       1.0  0.9021114924977657  0.44263901413222584  0.14383904463267205  1.0000
  C   C30       1.0  0.90382694455085  0.5793941583563744  0.13240535644180285  1.0000
  C   C31       1.0  0.9046377082752454  0.6488693436663453  0.009453382195962373  1.0000
  C   C32       1.0  0.9036830495907987  0.5797505605550353  0.8971004486182386  1.0000
  C   C33       1.0  0.9019705650906817  0.44291157323300734  0.9065917178299913  1.0000
  C   C34       1.0  0.9011986158261364  0.3751972710626976  0.030348014984827858  1.0000
  C   C35       1.0  0.9064533463529718  0.7935395269767574  0.9983314398828886  1.0000
  C   C36       1.0  0.9525490310098969  0.8624979316267561  0.07873962641831089  1.0000
  C   C37       1.0  0.9542637648131956  0.9986403527239274  0.06814215074520202  1.0000
  C   C38       1.0  0.8617189062169495  0.8638321601842774  0.9077587223925702  1.0000
  N   N4        1.0  0.91007553477674  0.20861437247939163  0.9647452010307656  1.0000
  C   C39       1.0  0.9744242128149502  0.2891708695498094  0.9849672294637668  1.0000
  O   O2        1.0  0.03920816251642023  0.24132777620092893  0.9904917026242859  1.0000
  C   C40       1.0  0.9655801417675128  0.4327819981946215  0.9899375529175637  1.0000
  H   H22       1.0  0.9014751934706041  0.3900358456801134  0.4757116118296161  1.0000
  H   H23       1.0  0.9034869171921289  0.6322070984785708  0.2193563279127404  1.0000
  H   H24       1.0  0.9053001047937628  0.6328073980811084  0.8020380795354347  1.0000
  H   H25       1.0  0.899878019334494  0.26971489570922724  0.03845206933384393  1.0000
  H   H26       1.0  0.8991944251719813  0.18463084048350709  0.7171926154839716  1.0000
  H   H27       1.0  0.9877219542778872  0.8111211529031942  0.14931544688522513  1.0000
  H   H28       1.0  0.9889197530810581  0.048825238676054365  0.13355081738349162  1.0000
  H   H29       1.0  0.8282510777338954  0.052198287153268005  0.8274158997807565  1.0000
  H   H30       1.0  0.8246016998997415  0.8135407203651939  0.8461485248687164  1.0000
  H   H31       1.0  0.8613658559789781  0.2548900107371148  0.9320447781945216  1.0000
  H   H32       1.0  0.9127495856737425  0.45321531947765076  0.043800529103614094  1.0000
  H   H33       1.0  0.9635500299497951  0.4794035286753404  0.8892991265369834  1.0000
  H   H34       1.0  0.013500406304902011  0.4747164256742762  0.04035647394963559  1.0000
  Zn  Zn1       1.0  0.8197217159346742  0.44077768917598115  0.5290372939197869  1.0000
  Zn  Zn2       1.0  0.984353147241947  0.4447720741092072  0.5213931747473277  1.0000
  C   C41       1.0  0.9019966631722749  0.4376859550738053  0.7624166641492465  1.0000
  C   C42       1.0  0.9020799973904629  0.447865490608893  0.28801384804406016  1.0000
  C   C43       1.0  0.9019859428550084  0.6799819388076879  0.5199723571865513  1.0000
  C   C44       1.0  0.9020906618609512  0.20556794512578455  0.5304582273018994  1.0000
  O   O3        1.0  0.9645461987882124  0.45112972598918993  0.3334993273560185  1.0000
  O   O4        1.0  0.9644819091093099  0.43745238550991533  0.711129101685501  1.0000
  O   O5        1.0  0.964472409851288  0.6331094366741086  0.5153536471989097  1.0000
  O   O6        1.0  0.9645556418846266  0.25547268271805823  0.5292746870718104  1.0000
  O   O7        1.0  0.8395191651113677  0.6300770792054544  0.5211557841970351  1.0000
  O   O8        1.0  0.8395286640355414  0.4344215884288103  0.7169311689902129  1.0000
  O   O9        1.0  0.8395929540628596  0.44809888309228335  0.33929983324035895  1.0000
  O   O10       1.0  0.839602397140255  0.2524418305664138  0.5350752903286815  1.0000
