data_image0
_chemical_formula_structural       NC6NH4C6H6C12H8Zn2C4O8
_chemical_formula_sum              "N2 C28 H18 Zn2 O8"
_cell_length_a       15.260246347498025
_cell_length_b       10.30227716192359
_cell_length_c       14.994061290378351
_cell_angle_alpha    85.55822981339365
_cell_angle_beta     92.81337431084009
_cell_angle_gamma    90.13031605327042

_space_group_name_H-M_alt    "P 1"
_space_group_IT_number       1

loop_
  _space_group_symop_operation_xyz
  'x, y, z'

loop_
  _atom_site_type_symbol
  _atom_site_label
  _atom_site_symmetry_multiplicity
  _atom_site_fract_x
  _atom_site_fract_y
  _atom_site_fract_z
  _atom_site_occupancy
  N   N1        1.0  0.8262713169248382  0.4191335398769509  0.05750093115535039  1.0000
  C   C1        1.0  0.7517007268077824  0.41995176000506107  0.03922598330940554  1.0000
  C   C2        1.0  0.6590257306470537  0.42097009136082103  0.016480355945102106  1.0000
  C   C3        1.0  0.6010901234846766  0.41811351992305773  0.08029655017043526  1.0000
  C   C4        1.0  0.5061363787633061  0.41913208971152505  0.057540673043720035  1.0000
  C   C5        1.0  0.4482008372248265  0.4162752366721836  0.12135680006338267  1.0000
  C   C6        1.0  0.3555257754434387  0.4172933650594109  0.09861123386816331  1.0000
  N   N2        1.0  0.28095518532832536  0.4181112944454558  0.08033628240026691  1.0000
  H   H1        1.0  0.6373511469354246  0.42410420711288666  0.9464642400256656  1.0000
  H   H2        1.0  0.6240322594238357  0.4149888075907578  0.15010051475054997  1.0000
  H   H3        1.0  0.4831942428359118  0.4222570051625267  0.9877366439958081  1.0000
  H   H4        1.0  0.46987542091227913  0.41314081159673527  0.1913730461257318  1.0000
  C   C7        1.0  0.05361746844544577  0.03734929733052761  0.0689226810440269  1.0000
  C   C8        1.0  0.012357719639485955  0.9164794148222702  0.08665738506304203  1.0000
  C   C9        1.0  0.05361742620381871  0.79988553158705  0.06892270114868149  1.0000
  C   C10       1.0  0.1370526656139559  0.8054393762497297  0.033059643804517536  1.0000
  C   C11       1.0  0.17832035907258761  0.9250791697422259  0.015321471872384867  1.0000
  C   C12       1.0  0.1370526526949078  0.04044231968339073  0.03305958259524835  1.0000
  H   H5        1.0  0.896277922869121  0.23871213091199242  0.13655213764910856  1.0000
  H   H6        1.0  0.9480736709091562  0.9131484301691991  0.11428858072199255  1.0000
  H   H7        1.0  0.8962782149564358  0.5822166205847473  0.1365528499560475  1.0000
  H   H8        1.0  0.1704680357644206  0.7173785083083607  0.01869670849475247  1.0000
  H   H9        1.0  0.2425778993376863  0.9284089436996891  0.9877015903495013  1.0000
  H   H10       1.0  0.17046804822169756  0.13196615817145219  0.01869661346290974  1.0000
  C   C13       1.0  0.05365456083739417  0.41863383323336656  0.8069578497642295  1.0000
  C   C14       1.0  0.10149776436286008  0.3244248337951747  0.7667656676085225  1.0000
  C   C15       1.0  0.10145218418548119  0.3243741761308086  0.6735452593601898  1.0000
  C   C16       1.0  0.053639122298370985  0.418565722327106  0.6184634541517876  1.0000
  C   C17       1.0  0.005845237130862831  0.512767628071052  0.6587579912477923  1.0000
  C   C18       1.0  0.005830980894568701  0.5127534693429545  0.7519824206921212  1.0000
  C   C19       1.0  0.05361824230740719  0.41855646017690146  0.5193890393305594  1.0000
  C   C20       1.0  0.05859234491167476  0.5361420245463113  0.4656858616925241  1.0000
  C   C21       1.0  0.05860968469082417  0.536141905990654  0.37246228049101665  1.0000
  C   C22       1.0  0.053580366217348185  0.4186009706404761  0.3308875481128155  1.0000
  C   C23       1.0  0.04856763916390226  0.30096945568280753  0.38449179890376195  1.0000
  C   C24       1.0  0.04862424128784659  0.3009641423118432  0.47771574928421584  1.0000
  H   H11       1.0  0.13921902941174258  0.2508081224106289  0.8073307812222346  1.0000
  H   H12       1.0  0.13984224926452637  0.25157350780131765  0.6445353637407126  1.0000
  H   H13       1.0  0.967441378458275  0.5855576966256877  0.6181697467758636  1.0000
  H   H14       1.0  0.9681178208132358  0.5863896887494657  0.7809161806991017  1.0000
  H   H15       1.0  0.0636667862496052  0.6281990316584981  0.4958372483611801  1.0000
  H   H16       1.0  0.06279326079110747  0.6283441559380768  0.33302902176835963  1.0000
  H   H17       1.0  0.04437011907706822  0.2087768515955275  0.3544243774926894  1.0000
  H   H18       1.0  0.04356523373011844  0.20890933157976388  0.5171629495225387  1.0000
  Zn  Zn1       1.0  0.9574832686601101  0.4188350704852857  0.06409587625643676  1.0000
  Zn  Zn2       1.0  0.14974324994095034  0.4183991560059808  0.07374865904296372  1.0000
  C   C25       1.0  0.05359242558695732  0.4134348306647691  0.231853493072483  1.0000
  C   C26       1.0  0.05363619247468156  0.4238010292687733  0.9059912351925664  1.0000
  C   C27       1.0  0.053613441460156785  0.6557501870724791  0.06536759876757314  1.0000
  C   C28       1.0  0.05361511098988878  0.18148411309622373  0.07247717376411891  1.0000
  O   O1        1.0  0.12659168880925642  0.42536409586997403  0.9428909247850121  1.0000
  O   O2        1.0  0.12655780648778592  0.41153993559986424  0.20227978546749636  1.0000
  O   O3        1.0  0.12657379338171704  0.6072126525669359  0.06784119851882353  1.0000
  O   O4        1.0  0.1265756363194901  0.22969138834373057  0.07732944155253989  1.0000
  O   O5        1.0  0.9806508166726751  0.6075428382977063  0.06051509044814729  1.0000
  O   O6        1.0  0.9806348297814413  0.4118716812456442  0.19495362983146416  1.0000
  O   O7        1.0  0.9806687123131645  0.42569579633824106  0.9355636966154346  1.0000
  O   O8        1.0  0.9806526598103386  0.23002307952133938  0.07000228026539468  1.0000
