data_image0
_chemical_formula_structural       NC12NC2H8C9H10C7N4H6Zn2C4O8
_chemical_formula_sum              "N6 C34 H24 Zn2 O8"
_cell_length_a       17.80743265337812
_cell_length_b       10.297183801781406
_cell_length_c       9.274190830515497
_cell_angle_alpha    85.13732271728584
_cell_angle_beta     91.08905223573421
_cell_angle_gamma    89.43536064670782

_space_group_name_H-M_alt    "P 1"
_space_group_IT_number       1

loop_
  _space_group_symop_operation_xyz
  'x, y, z'

loop_
  _atom_site_type_symbol
  _atom_site_label
  _atom_site_symmetry_multiplicity
  _atom_site_fract_x
  _atom_site_fract_y
  _atom_site_fract_z
  _atom_site_occupancy
  N   N1        1.0  0.7136262790072573  0.41663578973882465  0.4454296109472922  1.0000
  C   C1        1.0  0.6631114020182057  0.44667220266809604  0.36909292567057483  1.0000
  C   C2        1.0  0.6002658418655106  0.4840352950709643  0.274139697896814  1.0000
  C   C3        1.0  0.6125545568156004  0.5389361450868323  0.13344254860610524  1.0000
  C   C4        1.0  0.5516057178775106  0.5747788559327573  0.04115192257848598  1.0000
  C   C5        1.0  0.47821679014978513  0.5559887632712135  0.08882518567814235  1.0000
  C   C6        1.0  0.4649492235440307  0.5009658790964149  0.23004248497194202  1.0000
  C   C7        1.0  0.5267554518863827  0.4651265358518702  0.32231476543585086  1.0000
  C   C8        1.0  0.3869793928113193  0.48104180717835976  0.2808939922637792  1.0000
  C   C9        1.0  0.3676293872658097  0.5073682439057421  0.42202285867218703  1.0000
  C   C10       1.0  0.29421033321474  0.4886194593257854  0.4697411654171797  1.0000
  C   C11       1.0  0.2391945980544575  0.4432841716171658  0.3772616872845946  1.0000
  C   C12       1.0  0.1636327254509217  0.4239728377397292  0.4265366520274164  1.0000
  N   N2        1.0  0.1028863304630404  0.40844782454716283  0.4661503339066235  1.0000
  C   C13       1.0  0.2578507020608553  0.4167850666094799  0.2367361259435632  1.0000
  C   C14       1.0  0.3312180364714709  0.4355503882564194  0.18873352955659395  1.0000
  H   H1        1.0  0.6691729345058731  0.5539992745526856  0.09517684161219964  1.0000
  H   H2        1.0  0.5612373683760794  0.6175555574356386  0.9325017532545935  1.0000
  H   H3        1.0  0.4318682722515557  0.5860805833647229  0.015941292056670824  1.0000
  H   H4        1.0  0.5178227513751011  0.42096498281306977  0.4308273624476624  1.0000
  H   H5        1.0  0.4090144226836083  0.5441102815229637  0.4948541811383862  1.0000
  H   H6        1.0  0.2803318225881323  0.5098019422013638  0.5786151658659153  1.0000
  H   H7        1.0  0.21574694170754014  0.3813078504247731  0.16436295821996483  1.0000
  H   H8        1.0  0.3445668229963015  0.4128298514123295  0.08019728208377574  1.0000
  C   C15       1.0  0.9082617106274805  0.03106486718359627  0.4559947190669846  1.0000
  C   C16       1.0  0.9066799830220867  0.041908152361694206  0.30405006149098934  1.0000
  C   C17       1.0  0.9058694439798395  0.930847000711766  0.22620436083474704  1.0000
  C   C18       1.0  0.9066735399011989  0.8067408772380603  0.3034611298584242  1.0000
  C   C19       1.0  0.9082580515581599  0.7940085512602869  0.4555980169235189  1.0000
  C   C20       1.0  0.9090410805134438  0.9066531165811288  0.5308716587419687  1.0000
  C   C21       1.0  0.9041584860702274  0.9520069784727959  0.0618654735622306  1.0000
  C   C22       1.0  0.8604991367642906  0.8547109937456946  0.9792063749891406  1.0000
  C   C23       1.0  0.9460885634537219  0.8532475451238003  0.9791779354597896  1.0000
  H   H9        1.0  0.908878333048085  0.35442490557314654  0.5145442489266294  1.0000
  H   H10       1.0  0.9060695066274912  0.13751662070589732  0.24539104903668063  1.0000
  H   H11       1.0  0.9060781940924918  0.7195102741509463  0.2464309698315539  1.0000
  H   H12       1.0  0.9102610401076713  0.8975598594183838  0.6481001327509968  1.0000
  H   H13       1.0  0.9112407703455793  0.5627445325613386  0.7429412271948972  1.0000
  H   H14       1.0  0.9036092436982547  0.05306436071823995  0.00904410291379864  1.0000
  H   H15       1.0  0.8351722758496342  0.7711953673014519  0.04353307884513423  1.0000
  H   H16       1.0  0.8344091550167403  0.8967715124665468  0.87571391472795  1.0000
  H   H17       1.0  0.9727526800679006  0.7688437472934029  0.04348811703322041  1.0000
  H   H18       1.0  0.970021840311387  0.89445038341884  0.875667522302733  1.0000
  C   C24       1.0  0.9099563073810335  0.4151522058633079  0.032101180016279374  1.0000
  C   C25       1.0  0.9584344887587276  0.32895733221915147  0.11522504399893574  1.0000
  C   C26       1.0  0.0009285579923172805  0.23618567644297195  0.0506338377776836  1.0000
  C   C27       1.0  0.9960978576173026  0.22678120382438793  0.9008721071257811  1.0000
  C   C28       1.0  0.9488712588779941  0.314293400626507  0.8163397346418382  1.0000
  C   C29       1.0  0.9065634160656375  0.4099212533554637  0.8794915760339163  1.0000
  C   C30       1.0  0.04124310156030431  0.12647460888152032  0.8345975291905257  1.0000
  N   N3        1.0  0.09072778931071945  0.04482861670746585  0.9083677116757064  1.0000
  N   N4        1.0  0.11840418363352366  0.9715429457735995  0.8108044355932166  1.0000
  N   N5        1.0  0.0874568832130207  0.005962614765073766  0.6821308524100789  1.0000
  N   N6        1.0  0.039148684987808435  0.102382124759304  0.6941918894403435  1.0000
  H   H19       1.0  0.8551207200859076  0.6088192357722744  0.2932222646204068  1.0000
  H   H20       1.0  0.962192845268701  0.3310936036731278  0.23173004888025514  1.0000
  H   H21       1.0  0.03705951838931765  0.17056319638131126  0.11870602918362616  1.0000
  H   H22       1.0  0.9461997121805193  0.31106024144414857  0.7001448902434078  1.0000
  H   H23       1.0  0.8028860263480977  0.5320021901384924  0.5841980130811271  1.0000
  H   H24       1.0  0.0067522152496897175  0.14724400663109224  0.6088851120671985  1.0000
  Zn  Zn1       1.0  0.8259582914289407  0.4142694002462793  0.4514174836750633  1.0000
  Zn  Zn2       1.0  0.9905542684776624  0.4108035449337371  0.46017423541065194  1.0000
  C   C31       1.0  0.9072031140156838  0.4057348717873408  0.7193192546913871  1.0000
  C   C32       1.0  0.9093112426989757  0.4193396737547271  0.19227270077891934  1.0000
  C   C33       1.0  0.908277886912304  0.6498315250838906  0.44992328081296273  1.0000
  C   C34       1.0  0.9082364133367729  0.17524146042187327  0.4616687494038356  1.0000
  O   O1        1.0  0.9715580686170631  0.41942408485874255  0.2493508709258254  1.0000
  O   O2        1.0  0.969880827853601  0.4030189792597048  0.6688868416664809  1.0000
  O   O3        1.0  0.9707478725177481  0.600130122289543  0.4513476412379737  1.0000
  O   O4        1.0  0.9706909682205627  0.22231295297222986  0.46688996017960505  1.0000
  O   O5        1.0  0.8458215355175416  0.6027599933919732  0.4447017559102708  1.0000
  O   O6        1.0  0.8449544911504784  0.4056504115826267  0.6622408785964464  1.0000
  O   O7        1.0  0.8466317389096497  0.42205548262021503  0.24270317318900392  1.0000
  O   O8        1.0  0.8457646380770036  0.2249443407745642  0.46024237062167206  1.0000
