data_image0
_chemical_formula_structural       NC8NC6H8C12ClH9C12NH11Zn2C4O8
_chemical_formula_sum              "N3 C42 H28 Cl1 Zn2 O8"
_cell_length_a       17.457602349358154
_cell_length_b       10.299768534541528
_cell_length_c       10.299774167527174
_cell_angle_alpha    85.57901690489705
_cell_angle_beta     92.86883644785563
_cell_angle_gamma    91.7063886151948

_space_group_name_H-M_alt    "P 1"
_space_group_IT_number       1

loop_
  _space_group_symop_operation_xyz
  'x, y, z'

loop_
  _atom_site_type_symbol
  _atom_site_label
  _atom_site_symmetry_multiplicity
  _atom_site_fract_x
  _atom_site_fract_y
  _atom_site_fract_z
  _atom_site_occupancy
  N   N1        1.0  0.7227945177855509  0.4524169391437988  0.6266246704728409  1.0000
  C   C1        1.0  0.6617085975647359  0.4064889084164646  0.6160078199344681  1.0000
  C   C2        1.0  0.585715130208718  0.34936015534848425  0.6028099995647462  1.0000
  C   C3        1.0  0.5271890005792854  0.3895438374472635  0.6777054702019747  1.0000
  C   C4        1.0  0.4526339758456193  0.3345335137392609  0.6651221337657627  1.0000
  C   C5        1.0  0.3905170731585532  0.3769616341858928  0.744439273120715  1.0000
  C   C6        1.0  0.31597772563079407  0.3954134493244157  0.6886791376524961  1.0000
  C   C7        1.0  0.25745155088354266  0.43541323909113866  0.7636825501387985  1.0000
  C   C8        1.0  0.18147431444085418  0.45447024919257606  0.7057070831885557  1.0000
  N   N2        1.0  0.12040153162754222  0.4697857057059516  0.6590949585727812  1.0000
  C   C9        1.0  0.2729725723245773  0.45720450359526166  0.8949545996445509  1.0000
  C   C10       1.0  0.3467272631423919  0.43914178683586425  0.9511023282824528  1.0000
  C   C11       1.0  0.4052418358375866  0.3993221852293063  0.8765566212740825  1.0000
  C   C12       1.0  0.43789369601820466  0.23866167028751953  0.576210452495381  1.0000
  C   C13       1.0  0.4964081330259008  0.19875678430336796  0.501714975679765  1.0000
  C   C14       1.0  0.5701783758229273  0.25387964514686145  0.514848239172482  1.0000
  H   H1        1.0  0.5395427513582335  0.46475731578686946  0.7443356290918699  1.0000
  H   H2        1.0  0.30363685941590873  0.38041316697888655  0.5866590868504848  1.0000
  H   H3        1.0  0.2281134371951197  0.48810442378675584  0.9537886773527128  1.0000
  H   H4        1.0  0.35855473937279453  0.4556996086771343  0.05274919244403142  1.0000
  H   H5        1.0  0.46172145376638624  0.3843440857656186  0.9226602937510269  1.0000
  H   H6        1.0  0.3814011681640939  0.19332329296711964  0.5655575079202613  1.0000
  H   H7        1.0  0.4845684857841713  0.12465940615828441  0.43388659381925865  1.0000
  H   H8        1.0  0.6150373549173067  0.22211018386207473  0.45652523043414744  1.0000
  C   C15       1.0  0.9215293309955467  0.07973291122718407  0.6428520833201161  1.0000
  C   C16       1.0  0.9265917007380369  0.08947996884826571  0.5068029128164364  1.0000
  C   C17       1.0  0.9292306000916016  0.9772827373135785  0.43787912789962413  1.0000
  C   C18       1.0  0.9267382298794717  0.854198656769134  0.5068303682466766  1.0000
  C   C19       1.0  0.9216740552947078  0.8424599912512108  0.6428793293124213  1.0000
  C   C20       1.0  0.9190985305116488  0.9557852734547821  0.7101283579050157  1.0000
  C   C21       1.0  0.9345871853493265  0.9886480240915491  0.2939505304247918  1.0000
  C   C22       1.0  0.8909457831981646  0.08026000141636946  0.21592624425866735  1.0000
  C   C23       1.0  0.8960559108843035  0.09076452669401824  0.08047012479386129  1.0000
  C   C24       1.0  0.9447334680827559  0.010175484890498913  0.02134047136391581  1.0000
  C   C25       1.0  0.988362401483421  0.9188747667973446  0.09785258898033056  1.0000
  C   C26       1.0  0.983388517471761  0.9079839461026258  0.23333447726727627  1.0000
  Cl  Cl1       1.0  0.9510593984956902  0.023597281352987665  0.8513799978448149  1.0000
  H   H9        1.0  0.9195609539560111  0.4034708322288114  0.6946870467992268  1.0000
  H   H10       1.0  0.929553229706544  0.1846063346441835  0.45431462460121974  1.0000
  H   H11       1.0  0.9276975966595725  0.7673913440344766  0.4539650295767133  1.0000
  H   H12       1.0  0.915192368295598  0.9474976445266825  0.8150839667682194  1.0000
  H   H13       1.0  0.9197749145313654  0.510534600140964  0.694727747540409  1.0000
  H   H14       1.0  0.852151582459999  0.14255489381877062  0.259499439155223  1.0000
  H   H15       1.0  0.8619962059542412  0.16137425275016337  0.02157951201795072  1.0000
  H   H16       1.0  0.026301103934618375  0.8564953959454296  0.05252013098148911  1.0000
  H   H17       1.0  0.018421874701186166  0.837709625734558  0.2908103669185691  1.0000
  C   C27       1.0  0.9216277707563222  0.4609830924543057  0.26151576548572164  1.0000
  C   C28       1.0  0.8464797707815505  0.4083989473770966  0.2581986233793796  1.0000
  C   C29       1.0  0.8083748440568295  0.3818687890207288  0.13936779238219632  1.0000
  C   C30       1.0  0.8464271067780268  0.4086279458919291  0.022889616266230203  1.0000
  C   C31       1.0  0.9215755943540158  0.4612098857911595  0.024215653785161655  1.0000
  C   C32       1.0  0.9587549920286864  0.4870935038793503  0.14401354310216052  1.0000
  C   C33       1.0  0.7288726155309265  0.32623837790478305  0.1369117969531981  1.0000
  C   C34       1.0  0.7072922352962044  0.2268426660202023  0.2304461937754263  1.0000
  C   C35       1.0  0.6324611849921633  0.17453869146617573  0.22800061742744004  1.0000
  C   C36       1.0  0.5780267691393426  0.22068608112499313  0.13225165425566066  1.0000
  C   C37       1.0  0.5991008017674695  0.31966951683816824  0.03883526369978063  1.0000
  C   C38       1.0  0.6739088338849958  0.37207374685758765  0.0410126822358392  1.0000
  N   N3        1.0  0.5014919601304606  0.1671316396710203  0.1298871180173311  1.0000
  H   H18       1.0  0.9502756370092666  0.48096696312950526  0.590238412777849  1.0000
  H   H19       1.0  0.8170214423353828  0.3896091250504159  0.34807825915975243  1.0000
  H   H20       1.0  0.8176906736837267  0.38669727904549034  0.9312120419125849  1.0000
  H   H21       1.0  0.016728380532850192  0.5276588712803969  0.14580459196291584  1.0000
  H   H22       1.0  0.9501990693365163  0.48130056543907096  0.6972623891893384  1.0000
  H   H23       1.0  0.7485542889833647  0.18837728865199432  0.30446483173429484  1.0000
  H   H24       1.0  0.6169701680495342  0.09781600894490805  0.3005523605059168  1.0000
  H   H25       1.0  0.5575181523512058  0.3564555937627085  0.9645203576283672  1.0000
  H   H26       1.0  0.688503124525843  0.4496237447862106  0.9687197440757971  1.0000
  H   H27       1.0  0.4605138144477223  0.2008976975631667  0.05887684818108352  1.0000
  H   H28       1.0  0.4852418570719689  0.0933210430074305  0.19912979567579384  1.0000
  Zn  Zn1       1.0  0.8375353120548  0.45742570951773015  0.6360023921929434  1.0000
  Zn  Zn2       1.0  0.0056607203609506706  0.46476629068325487  0.6497278684707866  1.0000
  C   C39       1.0  0.9215827732585634  0.45599324217773435  0.8800487493725497  1.0000
  C   C40       1.0  0.9216150953836046  0.46620047683809357  0.40568178869170196  1.0000
  C   C41       1.0  0.9216430978252602  0.6982866614840832  0.637698978708997  1.0000
  C   C42       1.0  0.9215547131466773  0.22390549474640212  0.6480316238510699  1.0000
  O   O1        1.0  0.9854135565969933  0.47073152525920037  0.459273969566311  1.0000
  O   O2        1.0  0.9853876066320814  0.4570325451790574  0.8368735135444092  1.0000
  O   O3        1.0  0.9854354592991125  0.6526875083361727  0.6411742888996574  1.0000
  O   O4        1.0  0.9853656465685714  0.2750765688585064  0.6549730921579908  1.0000
  O   O5        1.0  0.8578303284742295  0.6471154288389103  0.6307571638150771  1.0000
  O   O6        1.0  0.8577824761044791  0.45146202596356955  0.8264563192733523  1.0000
  O   O7        1.0  0.8578084262186139  0.4651609603258154  0.44885521397470524  1.0000
  O   O8        1.0  0.8577605161786335  0.26950599466513214  0.6445544339287952  1.0000
