data_image0
_chemical_formula_structural       NC6NC3H6C7NH3C7NH4Zn2C4O8
_chemical_formula_sum              "N4 C27 H13 Zn2 O8"
_cell_length_a       14.934028789175542
_cell_length_b       9.275154477615127
_cell_length_c       9.275157849593905
_cell_angle_alpha    86.33461140486662
_cell_angle_beta     89.71635168279133
_cell_angle_gamma    89.3962875590186

_space_group_name_H-M_alt    "P 1"
_space_group_IT_number       1

loop_
  _space_group_symop_operation_xyz
  'x, y, z'

loop_
  _atom_site_type_symbol
  _atom_site_label
  _atom_site_symmetry_multiplicity
  _atom_site_fract_x
  _atom_site_fract_y
  _atom_site_fract_z
  _atom_site_occupancy
  N   N1        1.0  0.8380485415736149  0.5617914790789815  0.4160434280400167  1.0000
  C   C1        1.0  0.7605711676153594  0.5606870077539421  0.41536037814730653  1.0000
  C   C2        1.0  0.664185448430836  0.5593079691016332  0.4145077161746946  1.0000
  C   C3        1.0  0.6155806871792003  0.6667073903206976  0.48080661774936445  1.0000
  C   C4        1.0  0.5220776452328217  0.6656001280911605  0.48012296304388524  1.0000
  C   C5        1.0  0.4762663851205412  0.5571482554686453  0.413174441416023  1.0000
  C   C6        1.0  0.3796023666588118  0.5594752123720534  0.4146121838123813  1.0000
  N   N2        1.0  0.3021077619821894  0.5613219492104375  0.41575354194562864  1.0000
  C   C7        1.0  0.5248772288682565  0.4482629814059751  0.3459577542457235  1.0000
  C   C8        1.0  0.4774855961659948  0.3303532641910487  0.273172025436895  1.0000
  C   C9        1.0  0.6190024791341395  0.450500097520236  0.34733880389882543  1.0000
  H   H1        1.0  0.6499613871240558  0.7513281775739187  0.5330445915907027  1.0000
  H   H2        1.0  0.48538351087999065  0.7495692111986767  0.5319584890774414  1.0000
  H   H3        1.0  0.4346882696508483  0.37856037844723267  0.18477857228887284  1.0000
  H   H4        1.0  0.4348976161751465  0.26829151336806634  0.353019479223299  1.0000
  H   H5        1.0  0.5255433406824125  0.2539813716859445  0.22602035731719708  1.0000
  H   H6        1.0  0.6571809130510072  0.36764805627164193  0.29619313013445203  1.0000
  C   C10       1.0  0.07267842552170961  0.13814871745084445  0.4142291477207618  1.0000
  C   C11       1.0  0.048463970708852555  0.22012863778607494  0.2871761003137994  1.0000
  C   C12       1.0  0.016946792469554328  0.1529632568684678  0.16685860560810606  1.0000
  C   C13       1.0  0.00912350716766097  0.00290181930099864  0.17217725223647395  1.0000
  C   C14       1.0  0.03417618335254819  0.9196854833267384  0.2963333581581733  1.0000
  C   C15       1.0  0.06748651890720647  0.984953728792887  0.41758026210792454  1.0000
  C   C16       1.0  0.9915454262339085  0.23851144210677488  0.03827479681917856  1.0000
  N   N3        1.0  0.9711297815059862  0.30727658707776495  0.934926350657456  1.0000
  H   H7        1.0  0.08902662417277174  0.2182098988021479  0.7679747816455456  1.0000
  H   H8        1.0  0.9844234493113896  0.9499095899072991  0.07970599908074649  1.0000
  H   H9        1.0  0.08229741063808538  0.6884510600597169  0.654597489437504  1.0000
  C   C17       1.0  0.0712956253137284  0.5574744469282961  0.9926900423406231  1.0000
  C   C18       1.0  0.14818707406438225  0.6044002490440813  0.06252386857819725  1.0000
  C   C19       1.0  0.22041564850389717  0.6626684113865315  0.9828312338381298  1.0000
  C   C20       1.0  0.21659328153902047  0.6749374263778138  0.8322231649276528  1.0000
  C   C21       1.0  0.1415499699970626  0.6268422020761242  0.7610420263580209  1.0000
  C   C22       1.0  0.06886933944101799  0.5656279380140218  0.8391193537926322  1.0000
  C   C23       1.0  0.2981724206741078  0.7116012812806536  0.05598005005272033  1.0000
  N   N4        1.0  0.3606689597538059  0.7509301132536615  0.1147793430064592  1.0000
  H   H10       1.0  0.8537231702884286  0.5090803334404193  0.10047137438848397  1.0000
  H   H11       1.0  0.2720727121556801  0.7204886642275943  0.7695460188326768  1.0000
  H   H12       1.0  0.141305400721756  0.6344228180109168  0.6440077084116433  1.0000
  H   H13       1.0  0.9233545236321249  0.5269900928850488  0.5616504194078265  1.0000
  Zn  Zn1       1.0  0.9719660217167476  0.5616521992994152  0.41596807400128033  1.0000
  Zn  Zn2       1.0  0.16819035054301706  0.5614495316963404  0.415840631989423  1.0000
  C   C24       1.0  0.06936115757891415  0.5583428013684764  0.6791033354412905  1.0000
  C   C25       1.0  0.07079734588480945  0.5647607480249124  0.15270551780979558  1.0000
  C   C26       1.0  0.06847974945128321  0.8248342196591869  0.41120377975624245  1.0000
  C   C27       1.0  0.07167869745556654  0.2982675982453986  0.42060514351893064  1.0000
  O   O1        1.0  0.14509626748138105  0.5671228956466141  0.20635978466471316  1.0000
  O   O2        1.0  0.14399196909780076  0.5558257420096708  0.6253519238774239  1.0000
  O   O3        1.0  0.14327921275339273  0.7710209479955155  0.4090211438127518  1.0000
  O   O4        1.0  0.14580895711423347  0.35192769900331244  0.4226904567545811  1.0000
  O   O5        1.0  0.9943473481838102  0.7711740320631001  0.4091182492720376  1.0000
  O   O6        1.0  0.9950600941233706  0.555980557636716  0.6254489593485377  1.0000
  O   O7        1.0  0.9961643978414657  0.5672776443378809  0.20645508721148986  1.0000
  O   O8        1.0  0.9968770872241527  0.35208243842269327  0.42278586731207746  1.0000
