data_image0
_chemical_formula_structural       NC8NC6H8C8H4C9H8Zn2C4O8
_chemical_formula_sum              "N2 C35 H20 Zn2 O8"
_cell_length_a       17.457602349358154
_cell_length_b       9.27514070457351
_cell_length_c       9.272679976505533
_cell_angle_alpha    86.15343735439215
_cell_angle_beta     93.25957942520282
_cell_angle_gamma    92.27341969939751

_space_group_name_H-M_alt    "P 1"
_space_group_IT_number       1

loop_
  _space_group_symop_operation_xyz
  'x, y, z'

loop_
  _atom_site_type_symbol
  _atom_site_label
  _atom_site_symmetry_multiplicity
  _atom_site_fract_x
  _atom_site_fract_y
  _atom_site_fract_z
  _atom_site_occupancy
  N   N1        1.0  0.7256500204772967  0.6010262117294811  0.47939244257300967  1.0000
  C   C1        1.0  0.6642469634940001  0.5499231846023127  0.467455870098638  1.0000
  C   C2        1.0  0.5878590519844827  0.48635745255333185  0.45261738876666935  1.0000
  C   C3        1.0  0.529885758868257  0.5316463437232788  0.5359212234504438  1.0000
  C   C4        1.0  0.4549514416442992  0.47043883594658165  0.5217718945612835  1.0000
  C   C5        1.0  0.3934192545706411  0.5182594127942148  0.609993403510092  1.0000
  C   C6        1.0  0.3187553780268547  0.5382619679376123  0.5481268250362417  1.0000
  C   C7        1.0  0.2607814014770334  0.5833475707436353  0.6315499519263106  1.0000
  C   C8        1.0  0.1846739295188029  0.6040027813442903  0.5672250288183442  1.0000
  N   N2        1.0  0.12349640012203555  0.6206024865368682  0.5155079378623786  1.0000
  C   C9        1.0  0.2769827283110519  0.6087053020434792  0.7774051534712618  1.0000
  C   C10       1.0  0.3508658841953822  0.5891383072887195  0.8397034147914813  1.0000
  C   C11       1.0  0.40883124917178776  0.5442568576300946  0.756789171370607  1.0000
  C   C12       1.0  0.4392689958667314  0.363176990296461  0.42272527974752094  1.0000
  C   C13       1.0  0.4972339298337208  0.3182012623890971  0.3398665492685653  1.0000
  C   C14       1.0  0.571386441175988  0.3795385990039335  0.3546269646909417  1.0000
  H   H1        1.0  0.542965551050408  0.6157680306466145  0.6101571684248983  1.0000
  H   H2        1.0  0.30589728689680296  0.5207040576218014  0.43477940454717556  1.0000
  H   H3        1.0  0.23255391884911816  0.6435418903613606  0.8428422983888515  1.0000
  H   H4        1.0  0.36321826274158914  0.6084228008884629  0.9526413349718527  1.0000
  H   H5        1.0  0.46541548175833836  0.5280273598249384  0.8079426653484922  1.0000
  H   H6        1.0  0.3824626792539604  0.3127285390338628  0.4107504954776855  1.0000
  H   H7        1.0  0.4846698358585745  0.23530861601331268  0.2643034463512217  1.0000
  H   H8        1.0  0.6158120790849732  0.3437407606314973  0.2897546325160585  1.0000
  C   C15       1.0  0.9222411237508258  0.18725068546584112  0.49623025158903045  1.0000
  C   C16       1.0  0.9327138254772819  0.27014430891766716  0.3656694410471162  1.0000
  C   C17       1.0  0.9499004507356065  0.20465359845985853  0.24088527683722674  1.0000
  C   C18       1.0  0.9570277351081417  0.055096549600896834  0.2442730332447929  1.0000
  C   C19       1.0  0.9455630605426449  0.9705541679230695  0.372380986592197  1.0000
  C   C20       1.0  0.9269125991230873  0.034367345580782915  0.49868326903548055  1.0000
  C   C21       1.0  0.9752467193275676  0.9878731505288589  0.11555279826761322  1.0000
  C   C22       1.0  0.9905012226391224  0.9315751329641104  0.007786475269257355  1.0000
  H   H9        1.0  0.93611514476671  0.267303544666159  0.8517330606064215  1.0000
  H   H10       1.0  0.9583829805058897  0.2710058831447173  0.14198908317264314  1.0000
  H   H11       1.0  0.9333080831962971  0.738086010802967  0.7379386809439401  1.0000
  H   H12       1.0  0.0038914006677817073  0.8821555984225316  0.913190268346627  1.0000
  C   C23       1.0  0.9230016696308874  0.6073264727518084  0.07394292101783484  1.0000
  C   C24       1.0  0.9746784986581575  0.5206723583271018  0.1586865390611718  1.0000
  C   C25       1.0  0.030200127906509163  0.44589253734714923  0.09493994118570859  1.0000
  C   C26       1.0  0.03592281175139613  0.45531013334509485  0.9446190688507223  1.0000
  C   C27       1.0  0.9833137498336288  0.5399613376670915  0.8584018597962899  1.0000
  C   C28       1.0  0.9261520612134752  0.6142915785424732  0.920970615754881  1.0000
  C   C29       1.0  0.0985514752630217  0.3715281367114345  0.8839479930713705  1.0000
  C   C30       1.0  0.079908543366946  0.3046196131195733  0.7399976665437498  1.0000
  C   C31       1.0  0.1346152594965473  0.43642665852440693  0.7474546632398407  1.0000
  H   H13       1.0  0.8079537515021393  0.6991607027348941  0.3366836277570593  1.0000
  H   H14       1.0  0.06957283887925982  0.3811905764234489  0.1639868468739738  1.0000
  H   H15       1.0  0.7526194333224954  0.7414083669456379  0.7908400393008219  1.0000
  H   H16       1.0  0.1383152166272017  0.30861709918003505  0.9595885104785018  1.0000
  H   H17       1.0  0.0230237378528082  0.32642784567217165  0.6852111583276761  1.0000
  H   H18       1.0  0.10915313638522345  0.20224856596717358  0.7281097140560084  1.0000
  H   H19       1.0  0.1109983231755385  0.5382361973570331  0.6970843341886366  1.0000
  H   H20       1.0  0.1958424475096559  0.4110820473532007  0.7399219563829078  1.0000
  Zn  Zn1       1.0  0.8404599013612403  0.606671702210321  0.48982291029619246  1.0000
  Zn  Zn2       1.0  0.008686483689710473  0.6149452672458435  0.5050892434183942  1.0000
  C   C32       1.0  0.9255231774630406  0.607228824494962  0.7608474084821566  1.0000
  C   C33       1.0  0.9236250551795293  0.61439005639001  0.2340650587629316  1.0000
  C   C34       1.0  0.9260042792199804  0.8741968116066595  0.49247213216872515  1.0000
  C   C35       1.0  0.9231438867481806  0.3474203341516968  0.5024404017391555  1.0000
  O   O1        1.0  0.9876753456367259  0.619894141795027  0.29359698656129396  1.0000
  O   O2        1.0  0.98915296295035  0.608003091981022  0.7129018559741986  1.0000
  O   O3        1.0  0.9895406036723197  0.823583087850315  0.4961868477941298  1.0000
  O   O4        1.0  0.9872876471651242  0.4043141525314313  0.5103118814263767  1.0000
  O   O5        1.0  0.8618586804783311  0.8173028141028794  0.48460026707097814  1.0000
  O   O6        1.0  0.861471049023273  0.601724550538348  0.7013152033710235  1.0000
  O   O7        1.0  0.8599934250343368  0.6136155358335169  0.282008599866832  1.0000
  O   O8        1.0  0.8596057269048714  0.39803553714237006  0.49872360282966927  1.0000
