data_image0
_chemical_formula_structural       NC8NH4C10H6C6BrH3Zn2C4O8
_chemical_formula_sum              "N2 C28 H13 Br1 Zn2 O8"
_cell_length_a       13.859017124695912
_cell_length_b       9.275150299802176
_cell_length_c       9.275428193871798
_cell_angle_alpha    85.84136921910526
_cell_angle_beta     89.9409138534418
_cell_angle_gamma    89.4839206584006

_space_group_name_H-M_alt    "P 1"
_space_group_IT_number       1

loop_
  _space_group_symop_operation_xyz
  'x, y, z'

loop_
  _atom_site_type_symbol
  _atom_site_label
  _atom_site_symmetry_multiplicity
  _atom_site_fract_x
  _atom_site_fract_y
  _atom_site_fract_z
  _atom_site_occupancy
  N   N1        1.0  0.9002760643731859  0.5621110674812142  0.401683251370861  1.0000
  C   C1        1.0  0.8281016624468976  0.5386463855380932  0.3456682369020958  1.0000
  C   C2        1.0  0.7383209767650873  0.5094597443251845  0.27599275568256254  1.0000
  C   C3        1.0  0.6504873826710194  0.5379137488547006  0.3439175796683003  1.0000
  C   C4        1.0  0.563090649954061  0.5094609645391208  0.2759921696239711  1.0000
  C   C5        1.0  0.5637099812318254  0.45254645093486623  0.14012107984886568  1.0000
  C   C6        1.0  0.651360175356751  0.42420181206744234  0.07245771760622044  1.0000
  C   C7        1.0  0.7385753533782663  0.4525441129502937  0.1401222711315686  1.0000
  C   C8        1.0  0.4728618185198551  0.5386473072135571  0.3456677337961689  1.0000
  N   N2        1.0  0.40032718817996094  0.5621113879409367  0.4016830336036348  1.0000
  H   H1        1.0  0.6501492034222133  0.581967784122261  0.4490850535961557  1.0000
  H   H2        1.0  0.49658645390413464  0.4301520493538254  0.08665679627575584  1.0000
  H   H3        1.0  0.6516977312392526  0.3802377448937511  0.9675032213174269  1.0000
  H   H4        1.0  0.8060426957039591  0.43014762032323994  0.08665899836796576  1.0000
  C   C9        1.0  0.1528503206140721  0.13843128559576745  0.4040954060916462  1.0000
  C   C10       1.0  0.2036746900299924  0.21932765227946766  0.29508289363785933  1.0000
  C   C11       1.0  0.24622826598996683  0.1519636581634165  0.18053051184604452  1.0000
  C   C12       1.0  0.23838951138340986  0.002721763844086402  0.17351515572069087  1.0000
  C   C13       1.0  0.18967217496637473  0.9203746923260588  0.281880077713786  1.0000
  C   C14       1.0  0.14776219004990487  0.9857801998491259  0.39928342743550194  1.0000
  C   C15       1.0  0.29706623071796145  0.2365757374037172  0.0690255397046553  1.0000
  C   C16       1.0  0.3396304513534678  0.3074410267577077  0.9756726372709958  1.0000
  C   C17       1.0  0.38947117873225556  0.39042926547596046  0.8663604598421624  1.0000
  C   C18       1.0  0.43202719251468547  0.46128926239540663  0.773025452503743  1.0000
  H   H5        1.0  0.10692434788615256  0.4031808774759026  0.6329084674956851  1.0000
  H   H6        1.0  0.208309035080388  0.3357996195256683  0.2973088875708665  1.0000
  H   H7        1.0  0.27080091527872163  0.9496368969530252  0.08487568058950679  1.0000
  H   H8        1.0  0.18672599760254083  0.8043086768638908  0.27565914582418927  1.0000
  H   H9        1.0  0.08480674625318652  0.8589388952367137  0.741637136932612  1.0000
  H   H10       1.0  0.46939492250969095  0.5235103573871531  0.6910696070802538  1.0000
  C   C19       1.0  0.1506246695459963  0.557616923511179  0.9785612140072977  1.0000
  C   C20       1.0  0.23949191962987082  0.560302992616158  0.05159124711769602  1.0000
  C   C21       1.0  0.3259745703232369  0.5761554015630024  0.9749644506519065  1.0000
  C   C22       1.0  0.32495181319376854  0.589742162731838  0.8243300505219735  1.0000
  C   C23       1.0  0.23778327629425022  0.584974636129241  0.7498046903712208  1.0000
  C   C24       1.0  0.1499878967493793  0.5665946016060139  0.8248176202692497  1.0000
  Br  Br1       1.0  0.4455762910263095  0.5816711885224449  0.07649700857495945  1.0000
  H   H11       1.0  0.9180687263062576  0.6291077850382157  0.07672067648109371  1.0000
  H   H12       1.0  0.3918671966686685  0.6026353807681488  0.7646769350467579  1.0000
  H   H13       1.0  0.9931288074714798  0.6086247043468915  0.540842897530192  1.0000
  Zn  Zn1       1.0  0.044580036879529494  0.5621073962633425  0.40169153569774396  1.0000
  Zn  Zn2       1.0  0.2560232698164078  0.5621034152561366  0.40168663413210015  1.0000
  C   C25       1.0  0.15014059886657893  0.5591499437843022  0.6648896741235117  1.0000
  C   C26       1.0  0.15046500574535848  0.5650626896088027  0.1384886267387211  1.0000
  C   C27       1.0  0.1487233335079987  0.8255523264914963  0.39445114491424915  1.0000
  C   C28       1.0  0.15188220930399798  0.2986585743070599  0.40892724261361924  1.0000
  O   O1        1.0  0.23065306386493178  0.5675537516286093  0.19215990303239838  1.0000
  O   O2        1.0  0.23043306893049542  0.556654767453713  0.6112142690543334  1.0000
  O   O3        1.0  0.22928752640704617  0.7717780765225086  0.3928332348261907  1.0000
  O   O4        1.0  0.23179853425645106  0.35243045173597065  0.4105408291665642  1.0000
  O   O5        1.0  0.06880470028428465  0.771780359786358  0.3928373406573642  1.0000
  O   O6        1.0  0.06995023245247256  0.5566587833149594  0.6112182882139561  1.0000
  O   O7        1.0  0.07017022905657222  0.5675576988347715  0.19216219010597535  1.0000
  O   O8        1.0  0.07131569942481919  0.35243438976882385  0.4105432243282032  1.0000
