data_image0
_chemical_formula_structural       NC8NH4C6ClH5C6IH3Zn2C4O8
_chemical_formula_sum              "N2 C24 H12 Cl1 I1 Zn2 O8"
_cell_length_a       14.927258825633057
_cell_length_b       9.276545438789551
_cell_length_c       9.275433903346869
_cell_angle_alpha    86.20108945286073
_cell_angle_beta     89.9656238394683
_cell_angle_gamma    89.40960858786079

_space_group_name_H-M_alt    "P 1"
_space_group_IT_number       1

loop_
  _space_group_symop_operation_xyz
  'x, y, z'

loop_
  _atom_site_type_symbol
  _atom_site_label
  _atom_site_symmetry_multiplicity
  _atom_site_fract_x
  _atom_site_fract_y
  _atom_site_fract_z
  _atom_site_occupancy
  N   N1        1.0  0.8341639056012127  0.561163408724463  0.4114584503301646  1.0000
  C   C1        1.0  0.7566374814187754  0.5611633823787108  0.41145845996385044  1.0000
  C   C2        1.0  0.6602048396505836  0.5611633826746494  0.41145851502816955  1.0000
  C   C3        1.0  0.613757554000736  0.47190533809053853  0.32169563479854113  1.0000
  C   C4        1.0  0.5200462430325328  0.47190524796725275  0.32169560629021854  1.0000
  C   C5        1.0  0.4723888419409011  0.5611634347775343  0.4114584272684474  1.0000
  C   C6        1.0  0.5188361275760388  0.6504214885260609  0.5012211994677327  1.0000
  C   C7        1.0  0.6125475055357945  0.650421578646444  0.5012212279819763  1.0000
  C   C8        1.0  0.3759562008466087  0.5611633365854145  0.41145837229022875  1.0000
  N   N2        1.0  0.2984297759755622  0.5611634178921365  0.41145838393610923  1.0000
  H   H1        1.0  0.6499244332903901  0.40245734646753406  0.2518550949966556  1.0000
  H   H2        1.0  0.4848207775162806  0.40245732383012744  0.2518551921835084  1.0000
  H   H3        1.0  0.48266924828638474  0.7198694801490646  0.571061739269618  1.0000
  H   H4        1.0  0.6477729040752042  0.7198694936220555  0.5710617501131086  1.0000
  C   C9        1.0  0.06900493654293505  0.13772572138132547  0.41122089369019177  1.0000
  C   C10       1.0  0.06939407360153814  0.21996263395959129  0.2782186732257452  1.0000
  C   C11       1.0  0.0616318844056347  0.15349947521567975  0.14811127026170112  1.0000
  C   C12       1.0  0.05329634493894986  0.003917832423351747  0.14900441729705727  1.0000
  C   C13       1.0  0.0542902470987463  0.9201165402306515  0.27956538024466426  1.0000
  C   C14       1.0  0.06359742281578473  0.9845901348146697  0.41170844248723704  1.0000
  Cl  Cl1       1.0  0.060999679862733906  0.2583712373359062  0.9836025047453094  1.0000
  H   H5        1.0  0.11473659418796256  0.40309423369398545  0.6377713192753627  1.0000
  H   H6        1.0  0.07359280122475531  0.3366528564868547  0.27536572413606364  1.0000
  H   H7        1.0  0.046899270789718894  0.952125668449211  0.04834556147621472  1.0000
  H   H8        1.0  0.04991158263563267  0.803827893620338  0.27691565085526926  1.0000
  H   H9        1.0  0.0334790745688145  0.688332768053673  0.6447186126546238  1.0000
  C   C15       1.0  0.06648714604067468  0.5566573610643115  0.9883097428976574  1.0000
  C   C16       1.0  0.1490261101144985  0.5539578814002919  0.06176304551854251  1.0000
  C   C17       1.0  0.22966243615024812  0.5645458177347789  0.9856503912244627  1.0000
  C   C18       1.0  0.229050375419378  0.5781698777550371  0.8351125909508581  1.0000
  C   C19       1.0  0.14804317847141246  0.5786897962562423  0.7601375119641793  1.0000
  C   C20       1.0  0.06611518265439992  0.5656584093128632  0.8346195482273346  1.0000
  I   I1        1.0  0.3523830476677001  0.5626316202905928  0.0984336696353556  1.0000
  H   H10       1.0  0.8523923809246224  0.6420831255019335  0.08584855520063894  1.0000
  H   H11       1.0  0.2914736933200437  0.5869843735770564  0.7759067270675768  1.0000
  H   H12       1.0  0.9215654894265549  0.6171086096487972  0.5501736568016398  1.0000
  Zn  Zn1       1.0  0.9681410367741909  0.5611596284977252  0.4114667587766896  1.0000
  Zn  Zn2       1.0  0.16445272828331017  0.5611554863894381  0.4114619013524723  1.0000
  C   C21       1.0  0.06622017922752765  0.5582126677342365  0.6746455918920924  1.0000
  C   C22       1.0  0.06637571786800822  0.5641042679876767  0.1482832106641856  1.0000
  C   C23       1.0  0.06461745315230272  0.8244536285119235  0.40587406743797927  1.0000
  C   C24       1.0  0.06797838798413512  0.2978615756088985  0.4170548109476109  1.0000
  O   O1        1.0  0.140837625564667  0.566595655341505  0.2019699208335899  1.0000
  O   O2        1.0  0.1407543101712283  0.5557170444085779  0.6209547796160937  1.0000
  O   O3        1.0  0.13945908365201287  0.7707100032701393  0.4039198729042677  1.0000
  O   O4        1.0  0.14213278507762017  0.3516027056472622  0.41900471950915175  1.0000
  O   O5        1.0  0.9904609129883285  0.7707124092428037  0.4039239406140891  1.0000
  O   O6        1.0  0.9917561284750893  0.5557211819852357  0.6209587714906823  1.0000
  O   O7        1.0  0.9918394450103896  0.5665997242438712  0.20197218019829788  1.0000
  O   O8        1.0  0.993134604538052  0.35160676538521224  0.4190070869042035  1.0000
