data_image0
_chemical_formula_structural       NC6NC2H4C10H5C7NH4Zn2C4O8
_chemical_formula_sum              "N3 C29 H13 Zn2 O8"
_cell_length_a       14.927258858638513
_cell_length_b       9.275150299802178
_cell_length_c       9.275157849593905
_cell_angle_alpha    85.78415629139576
_cell_angle_beta     89.74087902936087
_cell_angle_gamma    89.48389287567745

_space_group_name_H-M_alt    "P 1"
_space_group_IT_number       1

loop_
  _space_group_symop_operation_xyz
  'x, y, z'

loop_
  _atom_site_type_symbol
  _atom_site_label
  _atom_site_symmetry_multiplicity
  _atom_site_fract_x
  _atom_site_fract_y
  _atom_site_fract_z
  _atom_site_occupancy
  N   N1        1.0  0.8393086801262584  0.5636615021464746  0.40150823805615654  1.0000
  C   C1        1.0  0.761782189087463  0.5636614737254306  0.4015082488028303  1.0000
  C   C2        1.0  0.6653496810432594  0.5636615883973133  0.4015081983075115  1.0000
  C   C3        1.0  0.6187922911627899  0.5387392195936078  0.275000911872076  1.0000
  C   C4        1.0  0.5250809800582015  0.5387392439557965  0.2750007783152242  1.0000
  C   C5        1.0  0.4775336179896012  0.5636614109434364  0.4015082179370264  1.0000
  C   C6        1.0  0.38110104295386205  0.5636615256182271  0.4015081674357689  1.0000
  N   N2        1.0  0.3035745519150659  0.5636614971971834  0.4015081781824424  1.0000
  C   C7        1.0  0.5240909408785349  0.5885837797500504  0.5280155043665231  1.0000
  C   C8        1.0  0.6178022519831232  0.5885837553878615  0.5280156379233746  1.0000
  H   H1        1.0  0.6548736143690987  0.5193482102846096  0.1765709822872248  1.0000
  H   H2        1.0  0.4897699577691501  0.5193484078673543  0.17657097623363385  1.0000
  H   H3        1.0  0.48800968440822245  0.6079747797779362  0.6264455420572297  1.0000
  H   H4        1.0  0.6531132734115003  0.6079746899108074  0.6264455494435595  1.0000
  C   C9        1.0  0.07380270605919659  0.13997919040772633  0.40392073813665413  1.0000
  C   C10       1.0  0.1212258572415224  0.2209813117403898  0.29489628559029524  1.0000
  C   C11       1.0  0.16098208885063525  0.1537284547017439  0.1803313534544169  1.0000
  C   C12       1.0  0.15371948343458364  0.004493374393798266  0.17331522538629995  1.0000
  C   C13       1.0  0.1082539808980641  0.9220411751135194  0.2816920171191166  1.0000
  C   C14       1.0  0.06908911263093431  0.9873327783172753  0.3991082300812477  1.0000
  C   C15       1.0  0.20842325680703389  0.23844870742210664  0.06881416785505601  1.0000
  C   C16       1.0  0.24814348967581534  0.3094045605236029  0.9754510402121671  1.0000
  C   C17       1.0  0.2946540399044617  0.39249884544059394  0.8661268895092316  1.0000
  C   C18       1.0  0.33436661449840477  0.4634493887471471  0.7727816589216694  1.0000
  H   H5        1.0  0.1255237362773276  0.3374511152737736  0.29712252514994564  1.0000
  H   H6        1.0  0.18400326593875635  0.9514945046359555  0.08466603876063239  1.0000
  H   H7        1.0  0.10553210512105896  0.8059811990429482  0.27547040198329786  1.0000
  H   H8        1.0  0.00989800885181925  0.8601592790050989  0.7414994683504075  1.0000
  H   H9        1.0  0.3692375675287227  0.5257499909454033  0.6908168366410568  1.0000
  C   C19       1.0  0.07265730554254013  0.5595777954095882  0.9783398733014699  1.0000
  C   C20       1.0  0.14960967183717955  0.6066121392119432  0.04776876950097275  1.0000
  C   C21       1.0  0.22190352301140784  0.6649915412424152  0.9675590348806855  1.0000
  C   C22       1.0  0.21808641595797462  0.6772647113129151  0.8168303830612325  1.0000
  C   C23       1.0  0.14298234707181443  0.629062051552358  0.7460665802642176  1.0000
  C   C24       1.0  0.07023456597803213  0.5677341631146822  0.824689120267422  1.0000
  C   C25       1.0  0.2997227377707089  0.7140351417098655  0.040284111651392555  1.0000
  N   N3        1.0  0.36226946432721513  0.7534529722794643  0.09874283301269537  1.0000
  H   H10       1.0  0.8549603775827872  0.5109317484815816  0.08645378303732776  1.0000
  H   H11       1.0  0.2736164374475438  0.7229019133395231  0.7537483873369912  1.0000
  H   H12       1.0  0.1427419716392112  0.636647378257674  0.6289590599430066  1.0000
  H   H13       1.0  0.9246329416069033  0.5289237201699941  0.5475030523377558  1.0000
  Zn  Zn1       1.0  0.97328578767886  0.5636577149384359  0.40151656945403863  1.0000
  Zn  Zn2       1.0  0.16959748714461742  0.5636535805121314  0.4015117349908208  1.0000
  C   C26       1.0  0.07072246822686838  0.5604447592929074  0.6647436088791154  1.0000
  C   C27       1.0  0.07216293978290755  0.5668683579024041  0.13828482661324037  1.0000
  C   C28       1.0  0.06999193205583981  0.8271095937946729  0.39427541786897646  1.0000
  C   C29       1.0  0.07289341838902463  0.30020179072203046  0.40875310429850065  1.0000
  O   O1        1.0  0.1464963279917173  0.5693072739181699  0.19196201515487066  1.0000
  O   O2        1.0  0.14538512481109755  0.558001612921341  0.6110623424463595  1.0000
  O   O3        1.0  0.14479419903899296  0.7733368536802026  0.39265735610286656  1.0000
  O   O4        1.0  0.14708718702782586  0.35397204244042046  0.4103668933925084  1.0000
  O   O5        1.0  0.9957960208041157  0.7733392530130556  0.3926614110464124  1.0000
  O   O6        1.0  0.9963869371495963  0.5580057449357105  0.6110663107088457  1.0000
  O   O7        1.0  0.9974981456291152  0.5693113389583802  0.19196425114133842  1.0000
  O   O8        1.0  0.9980890044096844  0.3539760982024274  0.41036923747889276  1.0000
