data_image0
_chemical_formula_structural       NC11NC3H8C7OC3NC3H11C7OC4NC3H9Zn2C4O8
_chemical_formula_sum              "N4 C45 H28 O10 Zn2"
_cell_length_a       17.807433833752565
_cell_length_b       10.298746005989749
_cell_length_c       10.299375074045738
_cell_angle_alpha    85.54279281073399
_cell_angle_beta     88.51814048155188
_cell_angle_gamma    90.6940108729131

_space_group_name_H-M_alt    "P 1"
_space_group_IT_number       1

loop_
  _space_group_symop_operation_xyz
  'x, y, z'

loop_
  _atom_site_type_symbol
  _atom_site_label
  _atom_site_symmetry_multiplicity
  _atom_site_fract_x
  _atom_site_fract_y
  _atom_site_fract_z
  _atom_site_occupancy
  N   N1        1.0  0.7076447142106516  0.4391540004890687  0.5346906213670213  1.0000
  C   C1        1.0  0.6568175983744349  0.40439915376168584  0.6012534460216107  1.0000
  C   C2        1.0  0.5935835414765499  0.36116699035749916  0.6840491054354423  1.0000
  C   C3        1.0  0.6052966195247035  0.2975649718448228  0.8067684332896855  1.0000
  C   C4        1.0  0.5439702640273422  0.2560135906571064  0.8872801810986235  1.0000
  C   C5        1.0  0.47077641128497444  0.27775069052494694  0.8457134027335698  1.0000
  C   C6        1.0  0.4580865846812082  0.34150744748715756  0.7225338686267637  1.0000
  C   C7        1.0  0.3803248207140542  0.364575830980268  0.6781864115274119  1.0000
  C   C8        1.0  0.3615481571961914  0.34775101822240284  0.548599295022687  1.0000
  C   C9        1.0  0.2883243611706524  0.36944940337833343  0.5069884405569309  1.0000
  C   C10       1.0  0.2329342387798209  0.4082914657298347  0.5941444151395285  1.0000
  C   C11       1.0  0.15757387286897023  0.4306488863088428  0.5511722532141472  1.0000
  N   N2        1.0  0.0969895117569581  0.4486225915058144  0.5166257625292356  1.0000
  C   C12       1.0  0.251019393555976  0.4253270739778963  0.7232003892406595  1.0000
  C   C13       1.0  0.3241904077940825  0.4035936594764147  0.7650666816199666  1.0000
  C   C14       1.0  0.5202702505550998  0.38305425715827823  0.6420385370380417  1.0000
  H   H1        1.0  0.6617585751284109  0.2801364117331886  0.8401342076815591  1.0000
  H   H2        1.0  0.5531574711132041  0.20652132788937896  0.9820169866007377  1.0000
  H   H3        1.0  0.42412972004364047  0.24316776382248723  0.9091528206511398  1.0000
  H   H4        1.0  0.403228033912655  0.3161324011047764  0.4798776322903941  1.0000
  H   H5        1.0  0.2748881366031452  0.35560522029601294  0.40694864604241476  1.0000
  H   H6        1.0  0.20862265173016883  0.45572275439986815  0.7914071767278552  1.0000
  H   H7        1.0  0.3370983577791511  0.4189834522357963  0.8649238207636368  1.0000
  H   H8        1.0  0.5117816341248137  0.433908900078366  0.5475361518754114  1.0000
  C   C15       1.0  0.9022848037179444  0.062485433403618264  0.5256424969430016  1.0000
  C   C16       1.0  0.9374368933493107  0.07189409590058737  0.401502500850313  1.0000
  C   C17       1.0  0.9544215405422506  0.9595092564581896  0.33807893947813006  1.0000
  C   C18       1.0  0.9374374599155003  0.8366575283138742  0.40145333556389423  1.0000
  C   C19       1.0  0.9023565884076685  0.825281353751733  0.5256847226311275  1.0000
  C   C20       1.0  0.8848220336609557  0.9387624131255797  0.5868449282878405  1.0000
  C   C21       1.0  0.9921803365130432  0.9692685301448263  0.20750649013176403  1.0000
  O   O1        1.0  0.038052178634369944  0.8824159233447698  0.18016488833293431  1.0000
  C   C22       1.0  0.977902013847874  0.07749787168202715  0.10795940803622961  1.0000
  C   C23       1.0  0.9067657246364625  0.13516468077908272  0.0991520894758857  1.0000
  C   C24       1.0  0.8936076106872016  0.23655296642783258  0.0038520962908281655  1.0000
  N   N3        1.0  0.8212686470705782  0.2950323711472643  0.9960039907798527  1.0000
  C   C25       1.0  0.9516323439132343  0.27988366187769853  0.9160224020725214  1.0000
  C   C26       1.0  0.022083003361336846  0.22203613528597899  0.9230053896851993  1.0000
  C   C27       1.0  0.035182701656834015  0.12107102122831925  0.018003873623521953  1.0000
  H   H9        1.0  0.8369064293062821  0.2520278693611011  0.7610204697748776  1.0000
  H   H10       1.0  0.952379885250907  0.16679224356565284  0.3545855988062374  1.0000
  H   H11       1.0  0.9509898568470317  0.7498140538229473  0.35312481578890664  1.0000
  H   H12       1.0  0.8577298223631203  0.9307580457359609  0.6825361087315761  1.0000
  H   H13       1.0  0.8363539256767573  0.5964748204875386  0.7606031168460808  1.0000
  H   H14       1.0  0.8612658677845975  0.10062922645653916  0.16522827388096673  1.0000
  H   H15       1.0  0.7776141892564428  0.2634922339051702  0.060983051536221744  1.0000
  H   H16       1.0  0.8108512883064264  0.3704220467116666  0.9252462165586279  1.0000
  H   H17       1.0  0.9421696155837729  0.358034007199929  0.8419714671349999  1.0000
  H   H18       1.0  0.06666253173303005  0.25551450651382934  0.8546395077216733  1.0000
  H   H19       1.0  0.09028110537678113  0.07776650900576533  0.021975209079369003  1.0000
  C   C28       1.0  0.9023462523689246  0.44402637219763263  0.14427567869118696  1.0000
  C   C29       1.0  0.9601828659881987  0.5385517358801191  0.13315422165814517  1.0000
  C   C30       1.0  0.9887705090805777  0.5872938397238423  0.01031457525926771  1.0000
  C   C31       1.0  0.9600612077075453  0.5383110214429723  0.8979345359737775  1.0000
  C   C32       1.0  0.9022951259596932  0.44374042038070227  0.9070515899247826  1.0000
  C   C33       1.0  0.8736372266026016  0.3973933690069831  0.030690913326199446  1.0000
  C   C34       1.0  0.05038132966862398  0.6861192738690435  0.9984842083667153  1.0000
  O   O2        1.0  0.09839009300619185  0.6826013972302407  0.9066214710573267  1.0000
  C   C35       1.0  0.05751804859827337  0.7889470256562162  0.09078570926306884  1.0000
  C   C36       1.0  0.12896367697744493  0.8372494954538421  0.1192300981728669  1.0000
  C   C37       1.0  0.13625285995073844  0.9354468784353992  0.20511448218293157  1.0000
  C   C38       1.0  0.20962210866459485  0.9835867833289864  0.23450071499666247  1.0000
  N   N4        1.0  0.26860271840041383  0.022280225879968803  0.2581201738708858  1.0000
  C   C39       1.0  0.07210347789613292  0.9867423619677518  0.2622874877518442  1.0000
  C   C40       1.0  0.0009083101854492363  0.9404578038371463  0.2333306448399619  1.0000
  C   C41       1.0  0.9934697397977926  0.842526795268987  0.14772876705169602  1.0000
  H   H20       1.0  0.7939917053959595  0.2642013869080726  0.3726613202675566  1.0000
  H   H21       1.0  0.9836405162864775  0.5733264173482963  0.22025112176829761  1.0000
  H   H22       1.0  0.9824265019803138  0.5750938574159141  0.8031538303475534  1.0000
  H   H23       1.0  0.8290496731061778  0.32452055711290684  0.03846091364637605  1.0000
  H   H24       1.0  0.8805371522901956  0.40662143485224217  0.5831388217872702  1.0000
  H   H25       1.0  0.17890410484009564  0.797740441234446  0.07552985508947185  1.0000
  H   H26       1.0  0.07712221233584682  0.06274883615198058  0.3287383537013955  1.0000
  H   H27       1.0  0.9513422617747231  0.9809547435289964  0.2768647571796054  1.0000
  H   H28       1.0  0.9376653422502839  0.809773471257487  0.12501280119377278  1.0000
  Zn  Zn1       1.0  0.820001211442255  0.4418829535686281  0.5294849780286278  1.0000
  Zn  Zn2       1.0  0.9846329980559119  0.4458830139177774  0.5218419918211223  1.0000
  C   C42       1.0  0.902302645664688  0.4386202694832371  0.7628703720330532  1.0000
  C   C43       1.0  0.9023333617531722  0.44914738040169744  0.2884566419190806  1.0000
  C   C44       1.0  0.9023395079738606  0.6810985174352212  0.5205015017326851  1.0000
  C   C45       1.0  0.9022964431151679  0.20666757061701713  0.5308255839831408  1.0000
  O   O3        1.0  0.96480594004557  0.45237837334504755  0.3339446165399704  1.0000
  O   O4        1.0  0.9647817840246437  0.43842425012004754  0.7115811738083897  1.0000
  O   O5        1.0  0.9648107084964515  0.6342284809275583  0.515866635415992  1.0000
  O   O6        1.0  0.9647769594034837  0.25657415050014715  0.5296590601613914  1.0000
  O   O7        1.0  0.8398571939139345  0.6311918156226501  0.5216679122897041  1.0000
  O   O8        1.0  0.8398282695902098  0.43538914528422756  0.7173823815197544  1.0000
  O   O9        1.0  0.839852425761453  0.4493432238358633  0.3397442627679388  1.0000
  O   O10       1.0  0.8398234451088972  0.2535389916647446  0.5354588037616813  1.0000
