data_image0
_chemical_formula_structural       NC9NC3NH7C8H6C8NH7Zn2C4O8
_chemical_formula_sum              "N4 C32 H20 Zn2 O8"
_cell_length_a       16.053384444249904
_cell_length_b       9.27514070457351
_cell_length_c       9.274266800404105
_cell_angle_alpha    86.12813201358244
_cell_angle_beta     89.35588104550887
_cell_angle_gamma    89.76770978158073

_space_group_name_H-M_alt    "P 1"
_space_group_IT_number       1

loop_
  _space_group_symop_operation_xyz
  'x, y, z'

loop_
  _atom_site_type_symbol
  _atom_site_label
  _atom_site_symmetry_multiplicity
  _atom_site_fract_x
  _atom_site_fract_y
  _atom_site_fract_z
  _atom_site_occupancy
  N   N1        1.0  0.8008906371136091  0.5465777404260456  0.4103251730614885  1.0000
  C   C1        1.0  0.7503738704588904  0.5228442293291553  0.32719041682539474  1.0000
  C   C2        1.0  0.6875951871669116  0.4933552521292435  0.22391676871364052  1.0000
  C   C3        1.0  0.7017893366627324  0.4788491142878662  0.07877291976409828  1.0000
  C   C4        1.0  0.6252600553451423  0.45029290397159866  0.02070538370932407  1.0000
  C   C5        1.0  0.5676407755999201  0.4489656789842272  0.13355436791461028  1.0000
  C   C6        1.0  0.4768821554205345  0.4224338524580433  0.1221178164948784  1.0000
  C   C7        1.0  0.4207971171589248  0.4706408429768052  0.22646578420514762  1.0000
  C   C8        1.0  0.3351483569209495  0.44547706985945656  0.21551231910044863  1.0000
  C   C9        1.0  0.2782828806857727  0.49564106686052095  0.32249766752398656  1.0000
  N   N2        1.0  0.2325797350077656  0.5359658338994036  0.4084971351488256  1.0000
  C   C10       1.0  0.3048577949538927  0.3719820999901589  0.1002258093581383  1.0000
  C   C11       1.0  0.3599340095180458  0.3239096788868576  0.9961131062719653  1.0000
  C   C12       1.0  0.4453776996503945  0.3488861377935602  0.006625933131650051  1.0000
  N   N3        1.0  0.6064209431978321  0.4754054704972173  0.2574393567690443  1.0000
  H   H1        1.0  0.7608402921553407  0.4880020591838472  0.021502609728084817  1.0000
  H   H2        1.0  0.6134168701799992  0.43415248210099455  0.9083658322057659  1.0000
  H   H3        1.0  0.443061149604262  0.5295490389601194  0.3151790997567485  1.0000
  H   H4        1.0  0.2387589764854794  0.35196520893830346  0.0908184804999872  1.0000
  H   H5        1.0  0.3363916828393242  0.266822152297664  0.9071445428816136  1.0000
  H   H6        1.0  0.4866303351093436  0.30892190485480714  0.9252285131478963  1.0000
  H   H7        1.0  0.5798065826112883  0.4788129619751372  0.36040704638704213  1.0000
  C   C13       1.0  0.014213305375387673  0.11788550580472568  0.40841371015696204  1.0000
  C   C14       1.0  0.026697057258998177  0.20003528663028014  0.27686567339774504  1.0000
  C   C15       1.0  0.04642183794753363  0.13328929255973734  0.1504535051332574  1.0000
  C   C16       1.0  0.05413205781120434  0.9831903749065204  0.15316127415550196  1.0000
  C   C17       1.0  0.04059207714058411  0.8994680185110449  0.2823512685841001  1.0000
  C   C18       1.0  0.01926487645806718  0.964646916004977  0.4104210192365494  1.0000
  C   C19       1.0  0.07501133985673158  0.9146349150879604  0.02271493143873782  1.0000
  C   C20       1.0  0.09249319409058288  0.8572215778857525  0.9135033614985483  1.0000
  H   H8        1.0  0.026250133084750216  0.19674874818965465  0.762562127950148  1.0000
  H   H9        1.0  0.023135056013492205  0.3169146405667092  0.27246544800722283  1.0000
  H   H10       1.0  0.05647487176699517  0.19903644209605534  0.0507570885468569  1.0000
  H   H11       1.0  0.04479191480503464  0.7827562115035507  0.28215541078974704  1.0000
  H   H12       1.0  0.024171399829041394  0.6677880802622681  0.6490454621370003  1.0000
  H   H13       1.0  0.10783851232110808  0.80682303241563  0.8176385381709426  1.0000
  C   C21       1.0  0.018636105482791713  0.5380667739946319  0.9860910350728104  1.0000
  C   C22       1.0  0.9696148735343904  0.43604552938776014  0.0672008327622382  1.0000
  C   C23       1.0  0.9156200591240029  0.345361159793319  0.9993120524060704  1.0000
  C   C24       1.0  0.9088565821920916  0.35532830732752396  0.8486663082516763  1.0000
  C   C25       1.0  0.9590007719543799  0.4538745452364643  0.7662372460230991  1.0000
  C   C26       1.0  0.014842072845628667  0.544465643142265  0.8327436211132032  1.0000
  C   C27       1.0  0.8515202663576631  0.25602301394403315  0.775586053822173  1.0000
  C   C28       1.0  0.8958404946814916  0.12310403445527984  0.7438674949116559  1.0000
  N   N4        1.0  0.930825501661829  0.01820012430904972  0.7188313909157102  1.0000
  H   H14       1.0  0.11228869241754902  0.8531252233713975  0.06588994933577719  1.0000
  H   H15       1.0  0.9716969931627711  0.4285262580864888  0.18418814937660444  1.0000
  H   H16       1.0  0.8783939324489295  0.26810303820112913  0.0645264079535175  1.0000
  H   H17       1.0  0.9557764976879866  0.45724395327973016  0.6493677852249538  1.0000
  H   H18       1.0  0.08090522066222694  0.7537098118420225  0.5366290017641608  1.0000
  H   H19       1.0  0.8280758747592043  0.30939872623784526  0.6730427738526537  1.0000
  H   H20       1.0  0.7967121775622309  0.22774252413042276  0.8459087429401272  1.0000
  Zn  Zn1       1.0  0.9254667232884503  0.5435115911708001  0.4098059488769068  1.0000
  Zn  Zn2       1.0  0.10800350250111912  0.5390203261044543  0.40902811349400237  1.0000
  C   C29       1.0  0.015523120799168623  0.537512478759922  0.6726945751811578  1.0000
  C   C30       1.0  0.017949108504985215  0.5450212096947578  0.1461396244982105  1.0000
  C   C31       1.0  0.018331493584111905  0.804547672261784  0.40429705065806676  1.0000
  C   C32       1.0  0.015140662754614459  0.2779842860973585  0.41453722203658794  1.0000
  O   O1        1.0  0.08699026493168449  0.5456444801943895  0.19955819378666018  1.0000
  O   O2        1.0  0.08502315155214338  0.5334793511959541  0.6186852292808513  1.0000
  O   O3        1.0  0.08729000755923555  0.749113681374751  0.4019523368044593  1.0000
  O   O4        1.0  0.08472334718304464  0.3300101610450197  0.4162909784653021  1.0000
  O   O5        1.0  0.9487468163157237  0.7525217577643954  0.40254308416346474  1.0000
  O   O6        1.0  0.9464799709832582  0.5368891592152951  0.6192759038824294  1.0000
  O   O7        1.0  0.9484470918851815  0.5490542248711946  0.2001471350862345  1.0000
  O   O8        1.0  0.9461801735872885  0.33341989622655754  0.41688002782048517  1.0000
