data_image0
_chemical_formula_structural       NC8NH4C10H5C6SCH7Zn2C4O8
_chemical_formula_sum              "N2 C29 H16 S1 Zn2 O8"
_cell_length_a       14.927258825633057
_cell_length_b       9.275150299802176
_cell_length_c       9.275274088470228
_cell_angle_alpha    85.77620997522486
_cell_angle_beta     89.72578083849504
_cell_angle_gamma    89.48389196497259

_space_group_name_H-M_alt    "P 1"
_space_group_IT_number       1

loop_
  _space_group_symop_operation_xyz
  'x, y, z'

loop_
  _atom_site_type_symbol
  _atom_site_label
  _atom_site_symmetry_multiplicity
  _atom_site_fract_x
  _atom_site_fract_y
  _atom_site_fract_z
  _atom_site_occupancy
  N   N1        1.0  0.8395692457819698  0.5638801243116334  0.40151024082529396  1.0000
  C   C1        1.0  0.7620428215528801  0.563880097939631  0.4015102506249424  1.0000
  C   C2        1.0  0.6656101796420398  0.5638800981729108  0.40151030569356805  1.0000
  C   C3        1.0  0.6193224687988793  0.4746727825632437  0.3122960068555678  1.0000
  C   C4        1.0  0.5256111578305847  0.47467269242029264  0.3122959789080926  1.0000
  C   C5        1.0  0.47779418220291553  0.5638801504061075  0.40151021759794414  1.0000
  C   C6        1.0  0.5240818933192363  0.6530874753087639  0.4907244083361628  1.0000
  C   C7        1.0  0.6177932712790657  0.653087565448804  0.4907244362895778  1.0000
  C   C8        1.0  0.3813615411705893  0.5638800522198524  0.4015101632281117  1.0000
  N   N2        1.0  0.30383511633614596  0.563880133560374  0.40151017436643666  1.0000
  H   H1        1.0  0.6556135060115256  0.4052642607785486  0.24288229556532315  1.0000
  H   H2        1.0  0.49050984996661173  0.4052642380171385  0.24288239290472166  1.0000
  H   H3        1.0  0.4877908561065899  0.7224959970934588  0.5601381196264077  1.0000
  H   H4        1.0  0.6528945118783438  0.7224960105618798  0.5601381303867905  1.0000
  C   C9        1.0  0.07406287900766007  0.14019747637608204  0.403922740781101  1.0000
  C   C10       1.0  0.12150380193718924  0.2212145090009212  0.2948984247120361  1.0000
  C   C11       1.0  0.1612787084069669  0.1539773212936535  0.18033363586518303  1.0000
  C   C12       1.0  0.15401724664483393  0.004743200855885863  0.17331751645310156  1.0000
  C   C13       1.0  0.10853407793823974  0.922276178819716  0.28169417253997  1.0000
  C   C14       1.0  0.06935007003601079  0.9875517226734366  0.39911023866634365  1.0000
  C   C15       1.0  0.20873805444098936  0.23871282626594104  0.06881658985042338  1.0000
  C   C16       1.0  0.24847350614956554  0.30968144868123826  0.975453579068965  1.0000
  C   C17       1.0  0.29500187697588465  0.39279068590779587  0.8661295652056666  1.0000
  C   C18       1.0  0.33472966749227834  0.4637539960803631  0.7727844514571323  1.0000
  H   H5        1.0  0.12580131809263007  0.3376840079116723  0.29712466154960215  1.0000
  H   H6        1.0  0.18431547956633648  0.9517564558809921  0.08466844069714408  1.0000
  H   H7        1.0  0.1058132163153458  0.8062170538242366  0.2754725651256742  1.0000
  H   H8        1.0  0.010103154302211204  0.8603313920787447  0.7415010494317269  1.0000
  H   H9        1.0  0.3696139813592627  0.5260658086414554  0.6908197317708376  1.0000
  C   C19       1.0  0.07298685071162425  0.5598542930758219  0.9783424064003916  1.0000
  C   C20       1.0  0.14899324989867924  0.6106389158740995  0.04740231615077594  1.0000
  C   C21       1.0  0.21996009511277184  0.6729181315202488  0.966984534227593  1.0000
  C   C22       1.0  0.21610950815954344  0.6845510955053493  0.8163583396894896  1.0000
  C   C23       1.0  0.14202350105760297  0.6326743552400027  0.7458017204019698  1.0000
  C   C24       1.0  0.07042612993062414  0.5678949602066572  0.8246905639513287  1.0000
  S   S1        1.0  0.31581010320322633  0.7383331319041473  0.05730135887779797  1.0000
  C   C25       1.0  0.26875961096980755  0.9189222015653126  0.06800788067616392  1.0000
  H   H10       1.0  0.8563840472814348  0.5004894930370372  0.08738429208916099  1.0000
  H   H11       1.0  0.270887348080036  0.7328922377882903  0.7535859118530035  1.0000
  H   H12       1.0  0.14171869518275604  0.6401493992150191  0.6286998028310737  1.0000
  H   H13       1.0  0.9256969239331685  0.5220400054147438  0.5480362040520701  1.0000
  H   H14       1.0  0.2556733276438128  0.9693423020030493  0.9577594318745247  1.0000
  H   H15       1.0  0.20545637133530414  0.9135025194193402  0.13140423314237015  1.0000
  H   H16       1.0  0.317324966132698  0.9862404502077144  0.12262486696039111  1.0000
  Zn  Zn1       1.0  0.9735463522877019  0.5638763324153973  0.40151857385963186  1.0000
  Zn  Zn2       1.0  0.16985805299749446  0.5638721934507054  0.40151374181549326  1.0000
  C   C26       1.0  0.0709401254821558  0.5606273695512582  0.6647452863810195  1.0000
  C   C27       1.0  0.07246641296798263  0.5671229780416072  0.13828716034146438  1.0000
  C   C28       1.0  0.07025367724027422  0.8273291991671161  0.3942774324890652  1.0000
  C   C29       1.0  0.07315280363082466  0.30041941573528663  0.4087551009084307  1.0000
  O   O1        1.0  0.14679105164706585  0.5695545500322623  0.19196428289045042  1.0000
  O   O2        1.0  0.14561153260691695  0.5581915638161664  0.6110640877774423  1.0000
  O   O3        1.0  0.14505620815091017  0.7735566783925925  0.39265937365926695  1.0000
  O   O4        1.0  0.1473463093846985  0.35418944475173664  0.4103688889029047  1.0000
  O   O5        1.0  0.9960580289089632  0.7735590811172772  0.3926634267662803  1.0000
  O   O6        1.0  0.9966133439524753  0.5581956992342241  0.6110680542035043  1.0000
  O   O7        1.0  0.997792868573895  0.5695586187131041  0.191966517042653  1.0000
  O   O8        1.0  0.998348126038367  0.35419350413958917  0.4103712311548888  1.0000
