data_image0
_chemical_formula_structural       NC14NH8C12H10C12H9Zn2C4O8
_chemical_formula_sum              "N2 C42 H27 Zn2 O8"
_cell_length_a       17.45760127107867
_cell_length_b       14.389296765108565
_cell_length_c       14.389300134226547
_cell_angle_alpha    85.54379651707656
_cell_angle_beta     86.9942696228219
_cell_angle_gamma    90.2499903813892

_space_group_name_H-M_alt    "P 1"
_space_group_IT_number       1

loop_
  _space_group_symop_operation_xyz
  'x, y, z'

loop_
  _atom_site_type_symbol
  _atom_site_label
  _atom_site_symmetry_multiplicity
  _atom_site_fract_x
  _atom_site_fract_y
  _atom_site_fract_z
  _atom_site_occupancy
  N   N1        1.0  0.7245109700157458  0.05898002012566517  0.9654457280666724  1.0000
  C   C1        1.0  0.6633810840342435  0.033265234864681185  0.9902456403484642  1.0000
  C   C2        1.0  0.587333007552049  0.001276829879872875  0.021088525223354804  1.0000
  C   C3        1.0  0.5286190915805716  0.004264681071429752  0.9581778100233534  1.0000
  C   C4        1.0  0.45401100022317403  0.9734255845501263  0.9877983446456825  1.0000
  C   C5        1.0  0.4394091000585283  0.9395983736854857  0.08149750266221722  1.0000
  C   C6        1.0  0.49811051588415156  0.936666737576586  0.14404708068911276  1.0000
  C   C7        1.0  0.5719321604473244  0.9674131348667412  0.11403649113294667  1.0000
  C   C8        1.0  0.3916949961447518  0.976509367340602  0.9212239576892733  1.0000
  C   C9        1.0  0.3173802461815125  0.004691276788191264  0.9489673244340284  1.0000
  C   C10       1.0  0.2586656505030501  0.007531598337295009  0.8860611753183611  1.0000
  C   C11       1.0  0.2737722448887565  0.9821916856994635  0.7949963393039463  1.0000
  C   C12       1.0  0.3473015416857654  0.9541389333556051  0.7668560342106698  1.0000
  C   C13       1.0  0.4060032997055448  0.9512758261080857  0.8294034323021111  1.0000
  C   C14       1.0  0.1829217282376123  0.03675266516049769  0.9149571539816832  1.0000
  N   N2        1.0  0.12203650970784741  0.06024241811804746  0.9381920628709628  1.0000
  H   H1        1.0  0.5408749054871183  0.031731595841891336  0.8866306018949215  1.0000
  H   H2        1.0  0.38287380897212836  0.914265207995197  0.10608736912695516  1.0000
  H   H3        1.0  0.4863747916373609  0.9102579488510526  0.21590629934296932  1.0000
  H   H4        1.0  0.6169365084578416  0.9647863080406791  0.1632151793341332  1.0000
  H   H5        1.0  0.30536485014534004  0.025600903204625824  0.01897577633654712  1.0000
  H   H6        1.0  0.2287643518847659  0.9841200799205905  0.7458398541206321  1.0000
  H   H7        1.0  0.3588075169429523  0.9343192891190913  0.6964671832918803  1.0000
  H   H8        1.0  0.4622977003782821  0.9281493968090389  0.8063548223698624  1.0000
  C   C15       1.0  0.921855179235486  0.7877586956751622  0.9403990293704514  1.0000
  C   C16       1.0  0.9609630773196048  0.7294872465886668  0.8802019279083257  1.0000
  C   C17       1.0  0.9637249354108618  0.6333502458922265  0.9027498013862136  1.0000
  C   C18       1.0  0.9274942936026415  0.5933785511323294  0.9859923411425489  1.0000
  C   C19       1.0  0.8884466550964989  0.651745823639714  0.04616782417225196  1.0000
  C   C20       1.0  0.8856305620769342  0.7478780735338503  0.023585639995378993  1.0000
  C   C21       1.0  0.9304537307783297  0.4912152399939101  0.009991310593159388  1.0000
  C   C22       1.0  0.9218923250133009  0.4283283405064724  0.940971111163536  1.0000
  C   C23       1.0  0.9246996063078301  0.331456318441986  0.9632459730614635  1.0000
  C   C24       1.0  0.9362237497669542  0.2979219782604994  0.055714690771601294  1.0000
  C   C25       1.0  0.9447218141819587  0.3598995125521899  0.12451139203568895  1.0000
  C   C26       1.0  0.9418562602709805  0.4559013994611854  0.10202874594236067  1.0000
  H   H9        1.0  0.8774359599154651  0.01649918084286472  0.9614439749484511  1.0000
  H   H10       1.0  0.9896524184328757  0.7581650702705507  0.8156932996797257  1.0000
  H   H11       1.0  0.9951263116926832  0.5903961109171701  0.8555705114340073  1.0000
  H   H12       1.0  0.8591629953037415  0.6228979840722354  0.11022528986464464  1.0000
  H   H13       1.0  0.854872518505944  0.7908726972696123  0.07128534305902534  1.0000
  H   H14       1.0  0.9119936349408154  0.4549009055467965  0.8701442623651658  1.0000
  H   H15       1.0  0.9118548336436838  0.12402465283361405  0.8641558216838359  1.0000
  H   H16       1.0  0.938693402821004  0.22379341537355957  0.07500655770899523  1.0000
  H   H17       1.0  0.9537812670571318  0.3334095924000888  0.1955353287917435  1.0000
  H   H18       1.0  0.9495812996621937  0.502561259113667  0.15637859734407  1.0000
  C   C27       1.0  0.9224605436822537  0.07120076906300167  0.6782448115057627  1.0000
  C   C28       1.0  0.9645071558593611  0.12617337421285704  0.6081431449195033  1.0000
  C   C29       1.0  0.9660743436925938  0.10329632030928314  0.5154212726214813  1.0000
  C   C30       1.0  0.9256837692160412  0.024934650553464666  0.4907670693530421  1.0000
  C   C31       1.0  0.8836982648584418  0.9699757462855119  0.5609575638251911  1.0000
  C   C32       1.0  0.8820788271185485  0.9928941986376945  0.6536724164023116  1.0000
  C   C33       1.0  0.9273715858950446  0.0005827083930269918  0.39223744683888206  1.0000
  C   C34       1.0  0.9224675594235523  0.07062465074165082  0.31890311833704943  1.0000
  C   C35       1.0  0.9240942257817142  0.0480142125024934  0.22540022070083165  1.0000
  C   C36       1.0  0.9307181307219631  0.9541695249230097  0.2058594397715674  1.0000
  C   C37       1.0  0.9355707961695119  0.8843590762091555  0.2782527110990438  1.0000
  C   C38       1.0  0.9338970613518383  0.9071846413101636  0.37085585231820617  1.0000
  H   H19       1.0  0.8771798552394916  0.056019629865844196  0.9129156590508718  1.0000
  H   H20       1.0  0.9964169271496534  0.18681911923263206  0.6249149259817421  1.0000
  H   H21       1.0  0.9997748811536847  0.1462823802962503  0.4631513508157969  1.0000
  H   H22       1.0  0.8512209370163845  0.9098585423971488  0.5439789213677586  1.0000
  H   H23       1.0  0.8489910333553213  0.9493039922298361  0.7060277748568522  1.0000
  H   H24       1.0  0.9163280550353065  0.14264615129306774  0.3348197671462867  1.0000
  H   H25       1.0  0.9321650855719937  0.934582056676515  0.13464665217748872  1.0000
  H   H26       1.0  0.9408653313350295  0.8122509806056593  0.26249892836901334  1.0000
  H   H27       1.0  0.9387367332950091  0.8519011371497575  0.4256851780573201  1.0000
  Zn  Zn1       1.0  0.8392282543304138  0.0593416168024643  0.9575861745528411  1.0000
  Zn  Zn2       1.0  0.00731918547874222  0.05987293070842581  0.9460588946936623  1.0000
  C   C39       1.0  0.9237644332972423  0.0487090069496017  0.12182126002051397  1.0000
  C   C40       1.0  0.9227848484435538  0.07050671055052726  0.781823823871064  1.0000
  C   C41       1.0  0.9241469180259743  0.22884318920948488  0.9552152473160338  1.0000
  C   C42       1.0  0.9224023006866248  0.8903714137693274  0.9484298434401002  1.0000
  O   O1        1.0  0.986683299312384  0.07047137030412996  0.8122111742820528  1.0000
  O   O2        1.0  0.9874431053561981  0.049146915142872505  0.08268467339153451  1.0000
  O   O3        1.0  0.9877511095894392  0.19460750165695595  0.9481492387881818  1.0000
  O   O4        1.0  0.9863752375471744  0.9250107931912237  0.946746543244759  1.0000
  O   O5        1.0  0.8601721449007874  0.19420375413957028  0.9568985299305814  1.0000
  O   O6        1.0  0.8598641463345489  0.04874428196670746  0.09143396159821515  1.0000
  O   O7        1.0  0.8591043368286302  0.07006875233334763  0.8209593410477733  1.0000
  O   O8        1.0  0.8587962752341943  0.924608165639168  0.9554947795799633  1.0000
