data_image0
_chemical_formula_structural       NC10NC3NCH9C6SCOC6H10C6NCOC6H11Zn2C4O8
_chemical_formula_sum              "N4 C44 H30 S1 O10 Zn2"
_cell_length_a       19.437513618241372
_cell_length_b       10.302038109246572
_cell_length_c       10.299662537453274
_cell_angle_alpha    85.5465134691658
_cell_angle_beta     90.33361086240306
_cell_angle_gamma    89.54061355658763

_space_group_name_H-M_alt    "P 1"
_space_group_IT_number       1

loop_
  _space_group_symop_operation_xyz
  'x, y, z'

loop_
  _atom_site_type_symbol
  _atom_site_label
  _atom_site_symmetry_multiplicity
  _atom_site_fract_x
  _atom_site_fract_y
  _atom_site_fract_z
  _atom_site_occupancy
  N   N1        1.0  0.6482626612454914  0.4106711276258797  0.5759022835880314  1.0000
  C   C1        1.0  0.5893324984582486  0.42767822969261965  0.5729298220099257  1.0000
  C   C2        1.0  0.5158959886884198  0.44892703606154205  0.5692402472348521  1.0000
  C   C3        1.0  0.4741171591890285  0.34776727199886825  0.5575593253252009  1.0000
  C   C4        1.0  0.398229530585642  0.3578326748066484  0.5503399830837428  1.0000
  C   C5        1.0  0.3586637067917876  0.43863249117580416  0.6161007654925188  1.0000
  C   C6        1.0  0.28248069655864033  0.4300300519888643  0.6076546922963877  1.0000
  C   C7        1.0  0.24932361881729875  0.30871352138239216  0.6122724509102837  1.0000
  C   C8        1.0  0.17758842361312493  0.30234647927335234  0.6051029179605087  1.0000
  C   C9        1.0  0.1380395694147705  0.4168232415180404  0.5936777643354574  1.0000
  C   C10       1.0  0.064189856248703  0.410118177196031  0.586340065444074  1.0000
  N   N2        1.0  0.004819784957241696  0.40472789519876845  0.5804410140739951  1.0000
  C   C11       1.0  0.17047993829212188  0.5378289499820652  0.5898052290606022  1.0000
  C   C12       1.0  0.24219957721421576  0.5444498927880612  0.5970368383175702  1.0000
  C   C13       1.0  0.387356494204354  0.5308546014994444  0.7060418234122133  1.0000
  N   N3        1.0  0.44435424848584554  0.5940604570094923  0.6856506622318264  1.0000
  C   C14       1.0  0.48820185373849134  0.584852075536054  0.5725391800772093  1.0000
  H   H1        1.0  0.49648533591094285  0.2527401588622662  0.5454177747298856  1.0000
  H   H2        1.0  0.3735074844769517  0.2883638438980263  0.4920061136047804  1.0000
  H   H3        1.0  0.278757289996738  0.2188191967405639  0.6232744419412808  1.0000
  H   H4        1.0  0.15297797099479823  0.20814200706296399  0.6089701958444236  1.0000
  H   H5        1.0  0.1403606959678376  0.6270674959269038  0.5811152871070677  1.0000
  H   H6        1.0  0.266328581946229  0.6390670684578885  0.5931541878237794  1.0000
  H   H7        1.0  0.3573505502856753  0.5511973452589325  0.7904142540450174  1.0000
  H   H8        1.0  0.5309664138885288  0.65514438080236  0.5783175750813814  1.0000
  H   H9        1.0  0.45854649953743765  0.612994380706877  0.4818979928071067  1.0000
  C   C15       1.0  0.8264793635323563  0.02642209317383037  0.5781307201747994  1.0000
  C   C16       1.0  0.7676737033410249  0.032201509018861645  0.49786148466058755  1.0000
  C   C17       1.0  0.7387381302731284  0.9181133810287372  0.45744304030565397  1.0000
  C   C18       1.0  0.7678949993423533  0.7970652421313966  0.49781029472960153  1.0000
  C   C19       1.0  0.8266096969266017  0.7889667840983217  0.578223954897596  1.0000
  C   C20       1.0  0.8556345011105837  0.9043030304710672  0.6178826341513839  1.0000
  S   S1        1.0  0.6640948257373896  0.9269307721508911  0.353882366754507  1.0000
  C   C21       1.0  0.7146945842247949  0.9346364083728427  0.20810246852516245  1.0000
  O   O1        1.0  0.7312893210116369  0.8291093397439321  0.16196302031737186  1.0000
  C   C22       1.0  0.7373928944133539  0.06044865302713598  0.14289294261912877  1.0000
  C   C23       1.0  0.7860481129653404  0.06201474022543275  0.042004354521004476  1.0000
  C   C24       1.0  0.8081673696467013  0.18000522671675176  0.9805619687234229  1.0000
  C   C25       1.0  0.7820037417625165  0.2976638965889953  0.018730723286401355  1.0000
  C   C26       1.0  0.7335555993787879  0.29756744527056456  0.11826888451480766  1.0000
  C   C27       1.0  0.7112069819834357  0.1798843002122401  0.18002852770800004  1.0000
  H   H10       1.0  0.9372414452909377  0.22283386420193524  0.7295965700569349  1.0000
  H   H11       1.0  0.7442705343219723  0.1251253390350937  0.46628734359850466  1.0000
  H   H12       1.0  0.7447135378989604  0.7097120252624093  0.465750438044153  1.0000
  H   H13       1.0  0.9009698187900242  0.8989271898668387  0.6797615370537662  1.0000
  H   H14       1.0  0.8490530363396926  0.4585713467344697  0.6084766392600638  1.0000
  H   H15       1.0  0.8073345036499067  0.9721071153338119  0.010977308603088206  1.0000
  H   H16       1.0  0.8457067310910729  0.18016200617738276  0.9033411417743724  1.0000
  H   H17       1.0  0.7992065891570751  0.38889946988868607  0.9710747546665157  1.0000
  H   H18       1.0  0.7131711082426653  0.3888435826008763  0.14754673266694707  1.0000
  H   H19       1.0  0.6732647396957987  0.1831223678644054  0.2561118725365956  1.0000
  C   C28       1.0  0.8265919028380969  0.4078341368240077  0.19680196150602855  1.0000
  C   C29       1.0  0.8968292351596981  0.4390302072079484  0.19388594262764802  1.0000
  C   C30       1.0  0.9324136331005862  0.4528586925688652  0.07573597798411491  1.0000
  C   C31       1.0  0.896708794404954  0.4387222156884236  0.9587410756992444  1.0000
  C   C32       1.0  0.826497154467634  0.40755471440860885  0.9595526780049446  1.0000
  C   C33       1.0  0.7918937782548818  0.3918412333753545  0.07915726954998825  1.0000
  N   N4        1.0  0.004062892520514613  0.48674158875516715  0.07616866641221831  1.0000
  C   C34       1.0  0.05274886462553807  0.44608956006952255  0.9825706241911503  1.0000
  O   O2        1.0  0.04018360704301859  0.3477643721123821  0.9208473289906038  1.0000
  C   C35       1.0  0.11881640256950576  0.5153001951778935  0.9610696306226324  1.0000
  C   C36       1.0  0.12713846615976743  0.6432010927200656  0.9975447502646199  1.0000
  C   C37       1.0  0.1895647066705897  0.7077003945114532  0.97615667650971  1.0000
  C   C38       1.0  0.24416934075788513  0.6457777961791205  0.917869602937809  1.0000
  C   C39       1.0  0.23640579943492912  0.5193136261315401  0.8803957986446033  1.0000
  C   C40       1.0  0.17409678654880545  0.4543554475149323  0.9014562303142037  1.0000
  H   H20       1.0  0.6939424465342169  0.35019640748059633  0.4094710890471982  1.0000
  H   H21       1.0  0.9243965380644215  0.4517867102172457  0.2836588205438193  1.0000
  H   H22       1.0  0.9233592220620965  0.45423809586137476  0.8669690355399292  1.0000
  H   H23       1.0  0.7377508834983193  0.36777559526258524  0.08054110487877186  1.0000
  H   H24       1.0  0.7993421286000443  0.3972828765327783  0.6322821491428425  1.0000
  H   H25       1.0  0.022847483798862808  0.5336210114163658  0.15533604017139768  1.0000
  H   H26       1.0  0.08534320408089457  0.6944208985318865  0.04079263878514827  1.0000
  H   H27       1.0  0.1955000321633524  0.8060574603229176  0.004359904677737611  1.0000
  H   H28       1.0  0.2924192728049693  0.6959394836805592  0.9013723999079412  1.0000
  H   H29       1.0  0.27871019053666  0.4715018272349205  0.834957820507419  1.0000
  H   H30       1.0  0.1693404203974973  0.35620129801475064  0.8718929989456834  1.0000
  Zn  Zn1       1.0  0.7511573490704584  0.4089525479996323  0.5772195718192039  1.0000
  Zn  Zn2       1.0  0.9019251001934687  0.4064358039297605  0.5791343945918548  1.0000
  C   C41       1.0  0.8265126275195368  0.4024351328862825  0.815375814484902  1.0000
  C   C42       1.0  0.8265714683876599  0.4129548297397232  0.3409783005048108  1.0000
  C   C43       1.0  0.8265821436383146  0.6448315515943408  0.5730310048611891  1.0000
  C   C44       1.0  0.826501900547211  0.17055685193721248  0.5833231785242565  1.0000
  O   O3        1.0  0.8837801852498912  0.41371262542114384  0.390091861510596  1.0000
  O   O4        1.0  0.8837331451104442  0.3997662073390458  0.7677151856854967  1.0000
  O   O5        1.0  0.8837885087943967  0.5955043933473274  0.5720200276536931  1.0000
  O   O6        1.0  0.8837247701328039  0.21797444959531798  0.5857869215138212  1.0000
  O   O7        1.0  0.76935762768149  0.5974139031943317  0.5705670442369715  1.0000
  O   O8        1.0  0.7693022642695756  0.40167727714075996  0.7662621332127764  1.0000
  O   O9        1.0  0.7693493046410508  0.41562365054897144  0.3886372476058426  1.0000
  O   O10       1.0  0.7692938895074652  0.2198854654009468  0.584332404977381  1.0000
