data_image0
_chemical_formula_structural       NC6NC2H4C6NH7C6NCH7Zn2C4O8
_chemical_formula_sum              "N4 C25 H18 Zn2 O8"
_cell_length_a       14.927258858638513
_cell_length_b       9.274771166103582
_cell_length_c       9.274690524155615
_cell_angle_alpha    85.95744674106099
_cell_angle_beta     89.68735833801398
_cell_angle_gamma    90.59705168739299

_space_group_name_H-M_alt    "P 1"
_space_group_IT_number       1

loop_
  _space_group_symop_operation_xyz
  'x, y, z'

loop_
  _atom_site_type_symbol
  _atom_site_label
  _atom_site_symmetry_multiplicity
  _atom_site_fract_x
  _atom_site_fract_y
  _atom_site_fract_z
  _atom_site_occupancy
  N   N1        1.0  0.8590992403596122  0.5647628342053014  0.40732398004796  1.0000
  C   C1        1.0  0.7815727489718416  0.56476280578086  0.4073239906867543  1.0000
  C   C2        1.0  0.6851402423398489  0.5647629204729283  0.4073239406258562  1.0000
  C   C3        1.0  0.638356563282484  0.5399609765612865  0.2807059206513485  1.0000
  C   C4        1.0  0.5446452525499634  0.5399610010392736  0.28070578717221095  1.0000
  C   C5        1.0  0.4973241771351229  0.5647627430409334  0.40732395957616285  1.0000
  C   C6        1.0  0.4008916035116336  0.564762857735915  0.4073239095093364  1.0000
  N   N2        1.0  0.3233651121238628  0.5647628293114733  0.40732392014813046  1.0000
  C   C7        1.0  0.5441077892009908  0.5895646869554887  0.5339419795447422  1.0000
  C   C8        1.0  0.6378190999335115  0.589564662477502  0.5339421130238791  1.0000
  H   H1        1.0  0.6742618208110588  0.5206636647245884  0.1821898341098933  1.0000
  H   H2        1.0  0.5091581665969094  0.5206638622686217  0.1821898288144299  1.0000
  H   H3        1.0  0.508202598233104  0.6088619894150086  0.6324581741692383  1.0000
  H   H4        1.0  0.6733061861485244  0.6088618995612802  0.6324581812112975  1.0000
  C   C9        1.0  0.0884835280296679  0.14117312561169415  0.40810955232637447  1.0000
  C   C10       1.0  0.06829868593022172  0.22335722868393337  0.27922201274532266  1.0000
  C   C11       1.0  0.056480685626435954  0.15717605880433672  0.14951673688232092  1.0000
  C   C12       1.0  0.06489762303467407  0.007425115224348074  0.14775953315830215  1.0000
  C   C13       1.0  0.08343180562004937  0.9239061347485296  0.2748765348965616  1.0000
  C   C14       1.0  0.09398931230225016  0.988341563474493  0.40655088446877913  1.0000
  N   N3        1.0  0.036850962788016695  0.24244729928109493  0.019212648492818115  1.0000
  H   H5        1.0  0.18825154698034563  0.22358579939266976  0.7235370099035778  1.0000
  H   H6        1.0  0.06378359586127448  0.33994510606013084  0.2786683780869683  1.0000
  H   H7        1.0  0.056228861107210176  0.9550670987776038  0.04796440934439006  1.0000
  H   H8        1.0  0.08739353139965816  0.807706101255188  0.2707487868614491  1.0000
  H   H9        1.0  0.1575490069877279  0.693147829313862  0.6211532386410472  1.0000
  H   H10       1.0  0.0306788929674855  0.3545207923247573  0.01916583662315841  1.0000
  H   H11       1.0  0.028258637662281993  0.19412717295848947  0.921787777618516  1.0000
  C   C15       1.0  0.0926468251242965  0.56106421187249  0.9840897041226847  1.0000
  C   C16       1.0  0.1658352951837977  0.6234618806518955  0.05271226572701804  1.0000
  C   C17       1.0  0.23448791400669777  0.6967839952573405  0.9720795584279589  1.0000
  C   C18       1.0  0.2292496407609742  0.7074389544078954  0.8211634939530534  1.0000
  C   C19       1.0  0.15796725040130255  0.644181899086709  0.7513318282061476  1.0000
  C   C20       1.0  0.08982596831613177  0.5684504301622142  0.8305706610295869  1.0000
  N   N4        1.0  0.3094645039455345  0.7622442466713624  0.04068090365274735  1.0000
  C   C21       1.0  0.32158927636643897  0.7571664898449639  0.19697179308370893  1.0000
  H   H12       1.0  0.989263382689518  0.3871892530895904  0.2774083994500647  1.0000
  H   H13       1.0  0.28121718891475755  0.7639046078775203  0.7570010403516583  1.0000
  H   H14       1.0  0.9478174423302246  0.5007790678108508  0.5552569971939469  1.0000
  H   H15       1.0  0.35855578375386465  0.8162013606774741  0.9759474778671308  1.0000
  H   H16       1.0  0.3846546574493692  0.8143214032936897  0.22254494506588227  1.0000
  H   H17       1.0  0.32586185239449006  0.643131390806249  0.24140625655351441  1.0000
  H   H18       1.0  0.2648047414495629  0.8112432476115364  0.2480743173562674  1.0000
  Zn  Zn1       1.0  0.9930762973634475  0.5647590402809932  0.40733229788939207  1.0000
  Zn  Zn2       1.0  0.18938794981607388  0.5647549111686496  0.40732744697348533  1.0000
  C   C22       1.0  0.09031985164456047  0.5613078344857285  0.6705782406761713  1.0000
  C   C23       1.0  0.09214655060911152  0.5682079381820964  0.14408164224643438  1.0000
  C   C24       1.0  0.09296311919806777  0.8281585490947208  0.4011021124674232  1.0000
  C   C25       1.0  0.08950320454900923  0.3013554912034724  0.4135578504859847  1.0000
  O   O1        1.0  0.1664778620324452  0.5705975780258588  0.19777456890628176  1.0000
  O   O2        1.0  0.1649845364007717  0.5589139689347397  0.6168812193938786  1.0000
  O   O3        1.0  0.1671179990993029  0.774399308867382  0.3992773365422504  1.0000
  O   O4        1.0  0.16434433277322613  0.35511224747039516  0.4153783436748688  1.0000
  O   O5        1.0  0.018119847414797437  0.7744017039821611  0.39928140118208  1.0000
  O   O6        1.0  0.015986396231364674  0.5589180964220635  0.6168852039969781  1.0000
  O   O7        1.0  0.01747972737044524  0.570601640126644  0.19777682077052927  1.0000
  O   O8        1.0  0.015346197680417013  0.35511630019691487  0.41538070361622914  1.0000
