data_image0
_chemical_formula_structural       NC10NC3NCH9C12NCOCH13C12BrH9Zn2C4O8
_chemical_formula_sum              "N4 C44 H31 O9 Br1 Zn2"
_cell_length_a       19.437513618241372
_cell_length_b       10.299155265289647
_cell_length_c       10.299148005577397
_cell_angle_alpha    85.53595772847069
_cell_angle_beta     90.32056870964719
_cell_angle_gamma    89.50051482239499

_space_group_name_H-M_alt    "P 1"
_space_group_IT_number       1

loop_
  _space_group_symop_operation_xyz
  'x, y, z'

loop_
  _atom_site_type_symbol
  _atom_site_label
  _atom_site_symmetry_multiplicity
  _atom_site_fract_x
  _atom_site_fract_y
  _atom_site_fract_z
  _atom_site_occupancy
  N   N1        1.0  0.6479107972706099  0.4107870994325731  0.575264496350721  1.0000
  C   C1        1.0  0.5889746639122508  0.4277989225842043  0.572284777184952  1.0000
  C   C2        1.0  0.5155306915125971  0.44905363318775127  0.5685861354600732  1.0000
  C   C3        1.0  0.4737909503794559  0.3478589151790619  0.5569474896943223  1.0000
  C   C4        1.0  0.3979004529763678  0.3579258340580303  0.5497236861590691  1.0000
  C   C5        1.0  0.358296537251684  0.43876677791027907  0.6154524167374832  1.0000
  C   C6        1.0  0.2821177584251265  0.43015962186722473  0.6070097120500613  1.0000
  C   C7        1.0  0.24900528985330767  0.3088055322660255  0.6116787368831043  1.0000
  C   C8        1.0  0.1772733382962628  0.3024347840798276  0.6045116691986081  1.0000
  C   C9        1.0  0.1376832505001334  0.4169453334409414  0.5930379248480132  1.0000
  C   C10       1.0  0.0638369273164385  0.41023641601821637  0.5857028285604218  1.0000
  N   N2        1.0  0.0044695812953983  0.4048430364231352  0.5798058694492102  1.0000
  C   C11       1.0  0.1700790352063712  0.5379886763331019  0.5891142769983324  1.0000
  C   C12       1.0  0.24179532838504697  0.5446134206147302  0.5963433158771199  1.0000
  C   C13       1.0  0.38694403566596847  0.5310393135555078  0.7053573443072509  1.0000
  N   N3        1.0  0.4439207383799804  0.5942605275294861  0.6849389266664512  1.0000
  C   C14       1.0  0.4877855441210482  0.585022737562686  0.5718278863719294  1.0000
  H   H1        1.0  0.49619598809945037  0.2527986935554871  0.5448456167859592  1.0000
  H   H2        1.0  0.3732113755230419  0.28842122302554873  0.4914173191396456  1.0000
  H   H3        1.0  0.2784710930456114  0.21888515107573484  0.6227189461184857  1.0000
  H   H4        1.0  0.15269749122749773  0.20820121252404933  0.6084187647837753  1.0000
  H   H5        1.0  0.1399276235421397  0.6272536111306668  0.5803864634922746  1.0000
  H   H6        1.0  0.265889575771798  0.6392598234796314  0.5924206732911257  1.0000
  H   H7        1.0  0.35692024455629934  0.5514082853098152  0.7897237670637445  1.0000
  H   H8        1.0  0.5305232278553683  0.6553387837692033  0.577576834107254  1.0000
  H   H9        1.0  0.4581307472742729  0.613152790138608  0.4811720835804625  1.0000
  C   C15       1.0  0.8262703008023198  0.026416201550526045  0.5776549328745775  1.0000
  C   C16       1.0  0.8145509310619002  0.03634278023106607  0.44257432797727125  1.0000
  C   C17       1.0  0.808542359964431  0.9242392190190648  0.37396703813838045  1.0000
  C   C18       1.0  0.8143865021888631  0.801085822798924  0.44226443483685585  1.0000
  C   C19       1.0  0.8261166942355088  0.7892038110732185  0.5774267718610624  1.0000
  C   C20       1.0  0.8319894389755429  0.9023875823206104  0.6442899440281824  1.0000
  C   C21       1.0  0.7961455311845812  0.9357139958057522  0.2310680798703344  1.0000
  C   C22       1.0  0.8310572372701137  0.02926167194475426  0.15009143366596844  1.0000
  C   C23       1.0  0.8193966657467197  0.03992922127761566  0.015614064085626381  1.0000
  C   C24       1.0  0.7730190689718037  0.9563729025251236  0.9592702603024441  1.0000
  C   C25       1.0  0.737266987575539  0.8646555373909766  0.040168040275244225  1.0000
  C   C26       1.0  0.7489526264387841  0.8537315593534044  0.1746083919649184  1.0000
  N   N4        1.0  0.759145232607928  0.9668769019898282  0.8215262250748837  1.0000
  C   C27       1.0  0.8094052797489015  0.0029981829500964575  0.7239441702926174  1.0000
  O   O1        1.0  0.8725150315655699  0.004473985243884192  0.7526076709638977  1.0000
  C   C28       1.0  0.7874906886554656  0.029842196480059924  0.5851188444802453  1.0000
  H   H10       1.0  0.8307994286284589  0.35007384694747395  0.6296072889840977  1.0000
  H   H11       1.0  0.8091203276618252  0.1314903479079632  0.39069316000670784  1.0000
  H   H12       1.0  0.8106984652294511  0.7143603506742638  0.38958661313328946  1.0000
  H   H13       1.0  0.8410311499863399  0.8940161011289126  0.7484800214718725  1.0000
  H   H14       1.0  0.8486688236197645  0.5594869800445517  0.8324130360653085  1.0000
  H   H15       1.0  0.8677855908172332  0.09368850798454531  0.1906533815801772  1.0000
  H   H16       1.0  0.8458052775660464  0.1149583326666208  0.9563672744932528  1.0000
  H   H17       1.0  0.7004728210384225  0.800934048593108  0.9987381786598206  1.0000
  H   H18       1.0  0.7203330670152291  0.7823554624411153  0.23466000661103917  1.0000
  H   H19       1.0  0.7106946823378939  0.9388231929958528  0.7898342616916453  1.0000
  H   H20       1.0  0.737828135536574  0.08411680575497105  0.5800324608969762  1.0000
  H   H21       1.0  0.7811353628737321  0.9363489321244663  0.5398117681975143  1.0000
  H   H22       1.0  0.8266708458712496  0.08929306789491619  0.5302200591387081  1.0000
  C   C29       1.0  0.8262872522909399  0.4078604704379387  0.19615384454801332  1.0000
  C   C30       1.0  0.7615603893913179  0.46972394085502467  0.18987437275031382  1.0000
  C   C31       1.0  0.7286456228214883  0.5010383882122524  0.06955106251556221  1.0000
  C   C32       1.0  0.7613307825248746  0.4696549580602582  0.9545944349757862  1.0000
  C   C33       1.0  0.8260997073722993  0.4077595172592985  0.9589278401134609  1.0000
  C   C34       1.0  0.8581789871797263  0.3772414315575472  0.08012610364356099  1.0000
  C   C35       1.0  0.6601729050100875  0.5664843977392111  0.06395306112420895  1.0000
  C   C36       1.0  0.6457007589983657  0.6680510996510014  0.143816696432973  1.0000
  C   C37       1.0  0.5812231775931123  0.7295395291484086  0.138352671502227  1.0000
  C   C38       1.0  0.5304848053655804  0.6904386434333958  0.0533536264609209  1.0000
  C   C39       1.0  0.5442657778907166  0.5896703891032975  0.9736284891165452  1.0000
  C   C40       1.0  0.608684911316995  0.527960951728397  0.9786992969740669  1.0000
  Br  Br1       1.0  0.4424488945785416  0.7745831938461264  0.04615757571636436  1.0000
  H   H23       1.0  0.8511980314893718  0.38411756891202997  0.5260408514263653  1.0000
  H   H24       1.0  0.736168332637786  0.4920951474887052  0.2788839617473957  1.0000
  H   H25       1.0  0.7366173199440749  0.49516381145696214  0.8614557475773128  1.0000
  H   H26       1.0  0.9081054271510322  0.32952851496384916  0.084253586642844  1.0000
  H   H27       1.0  0.9485396144748109  0.291667212655502  0.7597602450039189  1.0000
  H   H28       1.0  0.6845143988646749  0.7010237022314572  0.20920866744835842  1.0000
  H   H29       1.0  0.57081784710367  0.807785241433794  0.20000149196329287  1.0000
  H   H30       1.0  0.5050447105002038  0.5588567278990912  0.9079236895469491  1.0000
  H   H31       1.0  0.6179391366777393  0.4490450858017161  0.9172371135935751  1.0000
  Zn  Zn1       1.0  0.7508059646117422  0.4090682807637905  0.57658254888231  1.0000
  Zn  Zn2       1.0  0.9015744196897304  0.40655118329512857  0.5784984904879849  1.0000
  C   C41       1.0  0.8261346732310522  0.40260453416816544  0.8147487785084916  1.0000
  C   C42       1.0  0.8262473570958682  0.4130165411351576  0.340332408766187  1.0000
  C   C43       1.0  0.8261434411810038  0.6450214324712946  0.57229444925137  1.0000
  C   C44       1.0  0.8262385379964362  0.17059808325700687  0.5827868070781617  1.0000
  O   O2        1.0  0.8834498120108482  0.4137860740059396  0.3894471435543201  1.0000
  O   O3        1.0  0.8833619874649377  0.3999236028106017  0.7670878254964688  1.0000
  O   O4        1.0  0.8833682960664634  0.5956783266686376  0.5713042290111618  1.0000
  O   O5        1.0  0.8834434519843318  0.21803136031065787  0.5852306420037765  1.0000
  O   O6        1.0  0.7689368808672676  0.5975881046086382  0.5698503967058695  1.0000
  O   O7        1.0  0.7689305719653499  0.4018349411860007  0.7656339234756737  1.0000
  O   O8        1.0  0.7690183969500334  0.4156973673277448  0.3879916800728489  1.0000
  O   O9        1.0  0.769012036898635  0.2199426443300858  0.5837752758975074  1.0000
