data_image0
_chemical_formula_structural       NC10NC3NH7C12NCOCH13C12NCOH11Zn2C4O8
_chemical_formula_sum              "N5 C44 H31 O10 Zn2"
_cell_length_a       19.210446455230148
_cell_length_b       10.299155265289647
_cell_length_c       10.299148425239203
_cell_angle_alpha    85.52041506248939
_cell_angle_beta     89.97590399293748
_cell_angle_gamma    89.9251083167036

_space_group_name_H-M_alt    "P 1"
_space_group_IT_number       1

loop_
  _space_group_symop_operation_xyz
  'x, y, z'

loop_
  _atom_site_type_symbol
  _atom_site_label
  _atom_site_symmetry_multiplicity
  _atom_site_fract_x
  _atom_site_fract_y
  _atom_site_fract_z
  _atom_site_occupancy
  N   N1        1.0  0.6553719887908938  0.42089011674662924  0.5668685987611551  1.0000
  C   C1        1.0  0.595142778603589  0.4230976626883338  0.5670992127181651  1.0000
  C   C2        1.0  0.5203375197356647  0.4258346155057476  0.5673849141176477  1.0000
  C   C3        1.0  0.4846914304963866  0.5420654503897258  0.5824687655366277  1.0000
  C   C4        1.0  0.41202591330424804  0.5422170193389606  0.582416126900732  1.0000
  C   C5        1.0  0.375170550872066  0.4265435868143684  0.5674712265078437  1.0000
  C   C6        1.0  0.2978488315205616  0.42518709601163757  0.5673209622404467  1.0000
  C   C7        1.0  0.2600720654746104  0.5287912710358489  0.5039291519849276  1.0000
  C   C8        1.0  0.18729412840121498  0.5273890043755103  0.5038204196384293  1.0000
  C   C9        1.0  0.1512914778026621  0.4226401098272843  0.5670524331916165  1.0000
  C   C10       1.0  0.0763623503695129  0.4213380103108724  0.5669159195866678  1.0000
  N   N2        1.0  0.0161248137280211  0.4202910780731641  0.5668061975375227  1.0000
  C   C11       1.0  0.1883445529094014  0.3191616456075883  0.6304192020089143  1.0000
  C   C12       1.0  0.26112441240705825  0.3202896062114682  0.6305782518727567  1.0000
  C   C13       1.0  0.413425941972459  0.31213299051644694  0.5526751055722876  1.0000
  N   N3        1.0  0.48419516220154396  0.3145780380373926  0.5528400704383718  1.0000
  H   H1        1.0  0.5127650983909319  0.6314991106058512  0.5944957207689582  1.0000
  H   H2        1.0  0.3847294346714496  0.6322319721261922  0.5958377535510642  1.0000
  H   H3        1.0  0.28678150073460884  0.6100716203610068  0.4529148858609928  1.0000
  H   H4        1.0  0.15912996051904574  0.6078410207072611  0.45413684179075275  1.0000
  H   H5        1.0  0.1609956798936688  0.23774621875927918  0.6800035285426176  1.0000
  H   H6        1.0  0.2886435101612334  0.2399561569211457  0.6816996221120533  1.0000
  H   H7        1.0  0.3871884823690402  0.22125508603342992  0.5392074437570251  1.0000
  C   C14       1.0  0.8358294572161585  0.03919294309691934  0.5669560992235805  1.0000
  C   C15       1.0  0.8239571867284519  0.04898058953937379  0.4320239670508603  1.0000
  C   C16       1.0  0.817870295172266  0.9368056203759816  0.3634928135016384  1.0000
  C   C17       1.0  0.8237907894272258  0.8137212510165245  0.43171619048946663  1.0000
  C   C18       1.0  0.8356740186203785  0.8019783115406593  0.5667299167743716  1.0000
  C   C19       1.0  0.8416232917971757  0.9152319291584464  0.6335186696714126  1.0000
  C   C20       1.0  0.8053117258543248  0.9481334363624498  0.22075091048225493  1.0000
  C   C21       1.0  0.8406249978205359  0.042226644327169494  0.13932177516234212  1.0000
  C   C22       1.0  0.8288122843714818  0.052755978758597395  0.004992131821141663  1.0000
  C   C23       1.0  0.781882952294865  0.9685196067417693  0.9492459697145514  1.0000
  C   C24       1.0  0.7457194125091602  0.8762441304257322  0.030607088106237468  1.0000
  C   C25       1.0  0.7575574839873512  0.8654587532391672  0.16489938910550794  1.0000
  N   N4        1.0  0.7678305792457532  0.978853094686619  0.8116781696262967  1.0000
  C   C26       1.0  0.8186708527909675  0.01575456781315545  0.7134450970670644  1.0000
  O   O1        1.0  0.8825260401421293  0.01816884946254604  0.7412943260000554  1.0000
  C   C27       1.0  0.7964830365301386  0.04230779886911761  0.5748998062045017  1.0000
  H   H8        1.0  0.8404176477854143  0.3629043494845128  0.6188510704962837  1.0000
  H   H9        1.0  0.8184569262109428  0.1440608598441555  0.38021182531406306  1.0000
  H   H10       1.0  0.8200535009247423  0.7269548270599141  0.3790848781197639  1.0000
  H   H11       1.0  0.8507829655444713  0.9069676441487717  0.7375941970839479  1.0000
  H   H12       1.0  0.8585198292297396  0.5725301840443168  0.8214303634992625  1.0000
  H   H13       1.0  0.8777898407746454  0.1071931484689641  0.17941034011172352  1.0000
  H   H14       1.0  0.8555248806002511  0.12819720556445358  0.94540310367494  1.0000
  H   H15       1.0  0.7084878857169352  0.8119822230972181  0.9896514409351039  1.0000
  H   H16       1.0  0.7286080268288327  0.7936371700981497  0.22532180713771724  1.0000
  H   H17       1.0  0.7188066634768481  0.9500815356064239  0.7806111338088374  1.0000
  H   H18       1.0  0.7462358313567959  0.09583913845162771  0.5704545606371334  1.0000
  H   H19       1.0  0.7900479112579941  0.9487315810155533  0.5296738348380581  1.0000
  H   H20       1.0  0.8361178701947118  0.10236110178940083  0.5194939671852277  1.0000
  C   C28       1.0  0.8358040510548905  0.4207413743803106  0.1854467476015551  1.0000
  C   C29       1.0  0.906421997783541  0.4561856859781395  0.1814545563850407  1.0000
  C   C30       1.0  0.9421162483688957  0.4739426576480142  0.062298377457386866  1.0000
  C   C31       1.0  0.9062753234286954  0.4558457535971241  0.9461975276366463  1.0000
  C   C32       1.0  0.8356993922921185  0.42042984803996664  0.948239246987488  1.0000
  C   C33       1.0  0.8008778064475828  0.4030763261371119  0.06836954008592411  1.0000
  C   C34       1.0  0.01677950461645272  0.5114142889579982  0.05916779491097591  1.0000
  C   C35       1.0  0.06356597399698383  0.4539613624551136  0.9755786748400745  1.0000
  C   C36       1.0  0.13379035071719025  0.48936077351142315  0.9727818801063433  1.0000
  C   C37       1.0  0.15887279363586382  0.581598997636761  0.05425916337264458  1.0000
  C   C38       1.0  0.11201686609850725  0.6408983932188781  0.13627935128745716  1.0000
  C   C39       1.0  0.04176100987202003  0.6056057109740771  0.13917296107508825  1.0000
  N   N5        1.0  0.23115747257753805  0.6176886541061319  0.04770052377326596  1.0000
  C   C40       1.0  0.27118986829835223  0.6542979632352559  0.1564128219973564  1.0000
  O   O2        1.0  0.24763968654515334  0.6401734623574244  0.27078127144473224  1.0000
  H   H21       1.0  0.7026270608018362  0.353077856835009  0.40033488932231537  1.0000
  H   H22       1.0  0.934037320829629  0.46833616207844586  0.2713725674790375  1.0000
  H   H23       1.0  0.9332803049570545  0.4711937466267466  0.8539553945855531  1.0000
  H   H24       1.0  0.7464416414524025  0.3757556159442821  0.07065946573402161  1.0000
  H   H25       1.0  0.8085560427604884  0.4067716360573473  0.6215514196483012  1.0000
  H   H26       1.0  0.04603101164214829  0.3804752032168763  0.9134306633401766  1.0000
  H   H27       1.0  0.1689717790286991  0.4437610076302869  0.9078343862049089  1.0000
  H   H28       1.0  0.1291563713396724  0.7165499088205418  0.19602018063288362  1.0000
  H   H29       1.0  0.006661175470417554  0.653871794166647  0.20222707610710058  1.0000
  H   H30       1.0  0.257931571703175  0.6087042112905521  0.9605154696217123  1.0000
  H   H31       1.0  0.3234492004213663  0.6912537313319425  0.14056892681933641  1.0000
  Zn  Zn1       1.0  0.7594774602154031  0.42071377974797247  0.5668580917482106  1.0000
  Zn  Zn2       1.0  0.9120193270612366  0.4204568273826626  0.5668273442285118  1.0000
  C   C41       1.0  0.8357186826932143  0.4153146655888835  0.8040566955009052  1.0000
  C   C42       1.0  0.8357797699843887  0.42585757742686536  0.32962886712975914  1.0000
  C   C43       1.0  0.8357005076202463  0.6577977318645183  0.5615971405855367  1.0000
  C   C44       1.0  0.8357978933140072  0.18337295079044977  0.5720884917618824  1.0000
  O   O3        1.0  0.8936604656795061  0.4274714436544158  0.37800603671989363  1.0000
  O   O4        1.0  0.8936137346065317  0.4135047988178828  0.7556558156724302  1.0000
  O   O5        1.0  0.8935982774506785  0.6093129422153454  0.5598680093935808  1.0000
  O   O6        1.0  0.8936758707946196  0.2316633096753271  0.5737937456248285  1.0000
  O   O7        1.0  0.7778208644269676  0.6095072975444098  0.5598916903555544  1.0000
  O   O8        1.0  0.7778363212711185  0.4137007145968295  0.7556794269213101  1.0000
  O   O9        1.0  0.7778830526138429  0.42766731481163744  0.3780280864695067  1.0000
  O   O10       1.0  0.7778984577146438  0.23185917150327695  0.5738158927520172  1.0000
