data_image0
_chemical_formula_structural       NC8NH4C6ClH5C6FH2Zn2C4O8
_chemical_formula_sum              "N2 C24 H11 Cl1 F1 Zn2 O8"
_cell_length_a       13.859017124695912
_cell_length_b       9.276545438789551
_cell_length_c       9.275646106892307
_cell_angle_alpha    84.98577803735094
_cell_angle_beta     90.02252343401597
_cell_angle_gamma    89.40963735980037

_space_group_name_H-M_alt    "P 1"
_space_group_IT_number       1

loop_
  _space_group_symop_operation_xyz
  'x, y, z'

loop_
  _atom_site_type_symbol
  _atom_site_label
  _atom_site_symmetry_multiplicity
  _atom_site_fract_x
  _atom_site_fract_y
  _atom_site_fract_z
  _atom_site_occupancy
  N   N1        1.0  0.8971705104380688  0.5950017889840031  0.4088944383142019  1.0000
  C   C1        1.0  0.8249547008838227  0.572744934398377  0.35264221188090494  1.0000
  C   C2        1.0  0.7351225090807612  0.5450606749492908  0.28267167201267207  1.0000
  C   C3        1.0  0.6473391263655123  0.5720500458714791  0.35088414544586466  1.0000
  C   C4        1.0  0.5598921805728235  0.5450619067669724  0.28267109265393364  1.0000
  C   C5        1.0  0.5604110711067185  0.4910771209713096  0.14622462870168418  1.0000
  C   C6        1.0  0.6480112472700361  0.4641914780387621  0.07827472324160478  1.0000
  C   C7        1.0  0.7352764465797487  0.4910747592994362  0.14622580725728773  1.0000
  C   C8        1.0  0.4697148556085373  0.5727458661238478  0.352641713738302  1.0000
  N   N2        1.0  0.3972216337289284  0.5950021138491506  0.40889422220368377  1.0000
  H   H1        1.0  0.6470786899309383  0.6138364011351203  0.456496978014602  1.0000
  H   H2        1.0  0.493248020177629  0.4698355451941348  0.09253394612774656  1.0000
  H   H3        1.0  0.648271217128266  0.4224904979949937  0.9728757749374899  1.0000
  H   H4        1.0  0.802704268219141  0.4698310724530555  0.09253612402197331  1.0000
  C   C9        1.0  0.15011270160358148  0.17156935886158367  0.4086564155817866  1.0000
  C   C10       1.0  0.15042382133475732  0.2566393652049672  0.27543954512131696  1.0000
  C   C11       1.0  0.14195766819490707  0.19294763059461206  0.1451221669250986  1.0000
  C   C12       1.0  0.132980357543675  0.043346955796530695  0.14601675832970495  1.0000
  C   C13       1.0  0.1341568979981398  0.9567645724664766  0.27678843088526794  1.0000
  C   C14       1.0  0.1442887771149302  0.01842338243358133  0.4091447531293151  1.0000
  Cl  Cl1       1.0  0.14114313555104396  0.30132360965215943  0.9803479039336732  1.0000
  H   H5        1.0  0.19955330033697272  0.4321121365391003  0.635572450663455  1.0000
  H   H6        1.0  0.15494386653064862  0.3733903622048853  0.2725819902304403  1.0000
  H   H7        1.0  0.12600845668869987  0.9936989306889111  0.045195453269323276  1.0000
  H   H8        1.0  0.12943857782948953  0.8405323643305085  0.2741344266879525  1.0000
  H   H9        1.0  0.11203815999338508  0.7172026177508826  0.6425309847693628  1.0000
  C   C15       1.0  0.14705739386895633  0.5995094686389293  0.9850627370793399  1.0000
  C   C16       1.0  0.23530120600067655  0.61457990156198  0.057132246160644266  1.0000
  C   C17       1.0  0.3224421276555823  0.6161111377878874  0.981687278133816  1.0000
  C   C18       1.0  0.32287062204915457  0.6024541096929033  0.8333031483332831  1.0000
  C   C19       1.0  0.2361222700290429  0.5897878954185171  0.7593030660079034  1.0000
  C   C20       1.0  0.14734402429598026  0.590483252808714  0.832738415114171  1.0000
  F   F1        1.0  0.40685036736377866  0.6291293897550558  0.05312996639572453  1.0000
  H   H10       1.0  0.9241245367311268  0.4823628387920503  0.09814817856275937  1.0000
  H   H11       1.0  0.39052875073382204  0.6030573813359807  0.7749881079531789  1.0000
  Zn  Zn1       1.0  0.04147449522553237  0.5949979441688551  0.40890271298676795  1.0000
  Zn  Zn2       1.0  0.2529177262010831  0.5949940702108389  0.40889777858803167  1.0000
  C   C21       1.0  0.14732722585107874  0.5864450673557671  0.6725062510825998  1.0000
  C   C22       1.0  0.1470672920649725  0.6035487648266114  0.1452943831484257  1.0000
  C   C23       1.0  0.14538269242746132  0.8584111555858754  0.4033009617293011  1.0000
  C   C24       1.0  0.14901176527779159  0.3315809433801169  0.41449974845343585  1.0000
  O   O1        1.0  0.22731226146134167  0.6048966287274424  0.19906771109736818  1.0000
  O   O2        1.0  0.22756278364216634  0.5850931798521635  0.6187287619347197  1.0000
  O   O3        1.0  0.22599146712293552  0.8047092196180159  0.40134358699963246  1.0000
  O   O4        1.0  0.2288835057217862  0.38528060043014367  0.41645277782185675  1.0000
  O   O5        1.0  0.06550864354961883  0.8047114139525231  0.4013477137470356  1.0000
  O   O6        1.0  0.0670799481244362  0.5850971074060288  0.6187328127245042  1.0000
  O   O7        1.0  0.06682942576650808  0.6049005245113812  0.1990700265812064  1.0000
  O   O8        1.0  0.06840067013052797  0.3852844847485011  0.4164552015103866  1.0000
