data_image0
_chemical_formula_structural       NC6NCNCH5C7NH3C7F3H4Zn2C4O8
_chemical_formula_sum              "N4 C26 H12 F3 Zn2 O8"
_cell_length_a       14.933214217465613
_cell_length_b       9.275154477615127
_cell_length_c       10.299327507215196
_cell_angle_alpha    85.77882767837892
_cell_angle_beta     89.947286011659
_cell_angle_gamma    89.46799387830556

_space_group_name_H-M_alt    "P 1"
_space_group_IT_number       1

loop_
  _space_group_symop_operation_xyz
  'x, y, z'

loop_
  _atom_site_type_symbol
  _atom_site_label
  _atom_site_symmetry_multiplicity
  _atom_site_fract_x
  _atom_site_fract_y
  _atom_site_fract_z
  _atom_site_occupancy
  N   N1        1.0  0.8338628449348359  0.5789734574323557  0.5723082335060228  1.0000
  C   C1        1.0  0.7563666658826357  0.5799700799211271  0.5714193738770788  1.0000
  C   C2        1.0  0.6599608456471685  0.5812126136003433  0.5703110753032519  1.0000
  C   C3        1.0  0.6127051616668682  0.4854553450079498  0.655731667451465  1.0000
  C   C4        1.0  0.5191653059920915  0.4865381533501683  0.6547657712417726  1.0000
  C   C5        1.0  0.4719791061765001  0.5833233661584086  0.5684282310224944  1.0000
  C   C6        1.0  0.3754161018380181  0.5812147701350574  0.5703092172370257  1.0000
  N   N2        1.0  0.2979409072837189  0.5794557352543594  0.5718780390626826  1.0000
  C   C7        1.0  0.5193263748141457  0.68028978792019  0.48192912507132857  1.0000
  N   N3        1.0  0.473417244478399  0.780886804705892  0.3921914638592656  1.0000
  C   C8        1.0  0.6133523260765799  0.6782409047178697  0.48375694295015026  1.0000
  H   H1        1.0  0.6481511372125371  0.4099571786302088  0.7230800209504189  1.0000
  H   H2        1.0  0.4835265038118963  0.41167508933018093  0.7215474644752136  1.0000
  H   H3        1.0  0.5093508427972204  0.851938084998724  0.32880989461828963  1.0000
  H   H4        1.0  0.4036439790244887  0.7862394239385697  0.38741670626591374  1.0000
  H   H5        1.0  0.6501200382809281  0.7523507231622533  0.4176470369879801  1.0000
  C   C9        1.0  0.06849778862722183  0.15582821010793246  0.5705878855907973  1.0000
  C   C10       1.0  0.043943732846118744  0.2389993600206868  0.4561025045491396  1.0000
  C   C11       1.0  0.012104595046382503  0.17294449873556883  0.34768954308152106  1.0000
  C   C12       1.0  0.004295153329588295  0.022815123622424098  0.35248530342379586  1.0000
  C   C13       1.0  0.02967974585960454  0.9384375624537812  0.4643597927540234  1.0000
  C   C14       1.0  0.06331459334841961  0.002589878916609656  0.5736096411568011  1.0000
  C   C15       1.0  0.9863594985096197  0.2596964351888693  0.23182514433900425  1.0000
  N   N4        1.0  0.9656675826874886  0.3294290889209752  0.13869984564161508  1.0000
  H   H6        1.0  0.0857893627336368  0.23246829286719575  0.8893607632801703  1.0000
  H   H7        1.0  0.9793476300038618  0.9706754197204049  0.2691635759350131  1.0000
  H   H8        1.0  0.07875772970616457  0.7038028878337891  0.787192961219364  1.0000
  C   C16       1.0  0.06599158329815125  0.5792676832227583  0.19071729162400164  1.0000
  C   C17       1.0  0.1526581549929571  0.6371678334202753  0.18557245578432835  1.0000
  C   C18       1.0  0.19570915983457135  0.6688226518474858  0.06569017960222334  1.0000
  C   C19       1.0  0.15243391796272363  0.6370147111061215  0.9503346612536476  1.0000
  C   C20       1.0  0.06582082237974607  0.579150406292537  0.9534802089937728  1.0000
  C   C21       1.0  0.022965689691566663  0.5511468263052148  0.07414787843970294  1.0000
  C   C22       1.0  0.29000494197131355  0.7260938851653764  0.061544140323921415  1.0000
  F   F1        1.0  0.3051314082180536  0.8103042133758174  0.16472125582601405  1.0000
  F   F2        1.0  0.3498581214781027  0.6112031478243772  0.0689480577463042  1.0000
  F   F3        1.0  0.30488552426767024  0.8102843963161801  0.9470780103791544  1.0000
  H   H9        1.0  0.9030638260409439  0.4675934543038627  0.40782312874786264  1.0000
  H   H10       1.0  0.18687498888838594  0.6574818347864715  0.2750095191194093  1.0000
  H   H11       1.0  0.18649696835671647  0.6572198032020382  0.8579949167643669  1.0000
  H   H12       1.0  0.9561668890058748  0.5065235186285924  0.07730832414654198  1.0000
  Zn  Zn1       1.0  0.9677857716965812  0.5791087626192273  0.5721915825889623  1.0000
  Zn  Zn2       1.0  0.16401803587277664  0.5793086005014135  0.5720053130133826  1.0000
  C   C23       1.0  0.06588623600044041  0.5734288620260757  0.8092811789258673  1.0000
  C   C24       1.0  0.06591970325518037  0.5849903224122341  0.334915848604817  1.0000
  C   C25       1.0  0.06429087328309069  0.8425346708596437  0.5678630954229131  1.0000
  C   C26       1.0  0.06751500959987601  0.31588278129038416  0.576333995230752  1.0000
  O   O1        1.0  0.1403647397401162  0.5869804398696103  0.38323949081838854  1.0000
  O   O2        1.0  0.14037695426124208  0.5715893292910799  0.7608157846747019  1.0000
  O   O3        1.0  0.13908767450911586  0.788895672001638  0.5658689804757333  1.0000
  O   O4        1.0  0.14165395249013416  0.369674107419611  0.5781861977398544  1.0000
  O   O5        1.0  0.990149788114774  0.788743255634405  0.5660106979192291  1.0000
  O   O6        1.0  0.9914390572751048  0.5714386451455042  0.7609574390519555  1.0000
  O   O7        1.0  0.9914268434707008  0.5868297057221661  0.383379583564278  1.0000
  O   O8        1.0  0.992716056258378  0.3695233629449835  0.5783263878199857  1.0000
