data_image0
_chemical_formula_structural       NC8NH4C6ClH5C6IH2Zn2C4O8
_chemical_formula_sum              "N2 C24 H11 Cl1 I1 Zn2 O8"
_cell_length_a       13.859017124695912
_cell_length_b       9.276545438789551
_cell_length_c       9.275433903346869
_cell_angle_alpha    86.20108945286073
_cell_angle_beta     89.96561328277663
_cell_angle_gamma    89.40963735980037

_space_group_name_H-M_alt    "P 1"
_space_group_IT_number       1

loop_
  _space_group_symop_operation_xyz
  'x, y, z'

loop_
  _atom_site_type_symbol
  _atom_site_label
  _atom_site_symmetry_multiplicity
  _atom_site_fract_x
  _atom_site_fract_y
  _atom_site_fract_z
  _atom_site_occupancy
  N   N1        1.0  0.8984605722916232  0.5611641022397251  0.4114581570354858  1.0000
  C   C1        1.0  0.8262903718114993  0.5377109441136216  0.3552965687656726  1.0000
  C   C2        1.0  0.7365149118347415  0.5085386368150384  0.2854387711235486  1.0000
  C   C3        1.0  0.6486762227262327  0.5369786671803628  0.3535413350702955  1.0000
  C   C4        1.0  0.5612845837965456  0.508539856311627  0.2854381926983205  1.0000
  C   C5        1.0  0.5619141045629255  0.45165329403063287  0.14921158238904164  1.0000
  C   C6        1.0  0.6495693742304688  0.42332257562941167  0.08137116334452886  1.0000
  C   C7        1.0  0.7367794790803875  0.4516509574228382  0.14921275904566067  1.0000
  C   C8        1.0  0.47105052694010585  0.5377118652452053  0.35529607142571784  1.0000
  N   N2        1.0  0.39851169575770445  0.5611644225088985  0.4114579412731826  1.0000
  H   H1        1.0  0.6483301558408429  0.5810110669747321  0.45898399565133835  1.0000
  H   H2        1.0  0.4947945858187192  0.429269890494338  0.0956074106107345  1.0000
  H   H3        1.0  0.6499148011230315  0.379380099683818  0.9761420424003807  1.0000
  H   H4        1.0  0.8042508320944033  0.42926546407004834  0.09560958499576078  1.0000
  C   C9        1.0  0.15140295644498972  0.13772661014099752  0.41122051782466085  1.0000
  C   C10       1.0  0.15182208786751386  0.21996352304278813  0.2782182972233922  1.0000
  C   C11       1.0  0.14346159552259397  0.1535003578454719  0.14811089698855848  1.0000
  C   C12       1.0  0.13448355954032554  0.003918708123062715  0.14900404695471647  1.0000
  C   C13       1.0  0.1355540708598595  0.920117416756682  0.2795650095528654  1.0000
  C   C14       1.0  0.1455786360142608  0.9845910190785905  0.4117080685230048  1.0000
  Cl  Cl1       1.0  0.14278066117431298  0.2583721194400901  0.9836021316944512  1.0000
  H   H5        1.0  0.2006595725892506  0.4030951604744854  0.6377709273304357  1.0000
  H   H6        1.0  0.15634444995717223  0.3366537490608301  0.2753653466574248  1.0000
  H   H7        1.0  0.12759340418534504  0.9521265388304603  0.04834519338310583  1.0000
  H   H8        1.0  0.1308379025469104  0.8038287665059924  0.27691528170302204  1.0000
  H   H9        1.0  0.11313879029479357  0.68833362727751  0.6447182492800989  1.0000
  C   C15       1.0  0.14869109672487824  0.5566582477307183  0.9883093679173891  1.0000
  C   C16       1.0  0.2375920961569704  0.5539588366887416  0.06176264151731292  1.0000
  C   C17       1.0  0.3244438037783368  0.5645468400634377  0.9856499588712445  1.0000
  C   C18       1.0  0.3237845659105243  0.578170899574835  0.8351121588128424  1.0000
  C   C19       1.0  0.2365334009525382  0.578690750727493  0.7601371083085513  1.0000
  C   C20       1.0  0.14829046270719926  0.5656592956700237  0.8346191733778499  1.0000
  I   I1        1.0  0.4566236189388593  0.5626327446479018  0.09843319413318063  1.0000
  H   H10       1.0  0.9180940834770186  0.642083834172162  0.08584825549677122  1.0000
  H   H11       1.0  0.3910194217329559  0.5869854472949565  0.7759062729813238  1.0000
  Zn  Zn1       1.0  0.04276455037001625  0.5611604334001918  0.4114664183752259  1.0000
  Zn  Zn2       1.0  0.25420778534635735  0.5611564545034189  0.4114614919271944  1.0000
  C   C21       1.0  0.14840355232969116  0.5582135541786897  0.6746452170056907  1.0000
  C   C22       1.0  0.14857107976045292  0.5641051545614433  0.14828283572309628  1.0000
  C   C23       1.0  0.14667728944885416  0.8244545136238872  0.405873693115101  1.0000
  C   C24       1.0  0.1502972823689106  0.29786246351510837  0.41705443544301746  1.0000
  O   O1        1.0  0.2287724499634085  0.5665966038221335  0.20196951971145655  1.0000
  O   O2        1.0  0.22868271268807572  0.5557179928199383  0.6209543785232547  1.0000
  O   O3        1.0  0.22728765117571895  0.7707109506046623  0.40391947226683467  1.0000
  O   O4        1.0  0.2301674393047155  0.3516036552046726  0.4190043179316363  1.0000
  O   O5        1.0  0.06680482425645207  0.7707132327017854  0.40392359236488606  1.0000
  O   O6        1.0  0.06819987388598214  0.555722006521046  0.6209584227860774  1.0000
  O   O7        1.0  0.0682896123911898  0.5666005488489496  0.20197183146439918  1.0000
  O   O8        1.0  0.06968460174834036  0.35160759106707284  0.41900673771492236  1.0000
