data_image0
_chemical_formula_structural       NC8NH4C10H5C7NH4Zn2C4O8
_chemical_formula_sum              "N3 C29 H13 Zn2 O8"
_cell_length_a       14.927258825633057
_cell_length_b       9.275150299802176
_cell_length_c       9.275157849593905
_cell_angle_alpha    85.78415629139576
_cell_angle_beta     89.74087939768596
_cell_angle_gamma    89.48389196497259

_space_group_name_H-M_alt    "P 1"
_space_group_IT_number       1

loop_
  _space_group_symop_operation_xyz
  'x, y, z'

loop_
  _atom_site_type_symbol
  _atom_site_label
  _atom_site_symmetry_multiplicity
  _atom_site_fract_x
  _atom_site_fract_y
  _atom_site_fract_z
  _atom_site_occupancy
  N   N1        1.0  0.8393086820774669  0.5636614799173478  0.40150824837291044  1.0000
  C   C1        1.0  0.7617822578499746  0.5636614535466862  0.4015082581725708  1.0000
  C   C2        1.0  0.6653496159481109  0.5636614537874978  0.40150831324126485  1.0000
  C   C3        1.0  0.6190473626231693  0.4744419352805529  0.31229390320127504  1.0000
  C   C4        1.0  0.5253360516503192  0.47444184513377957  0.3122938752537654  1.0000
  C   C5        1.0  0.4775336184946266  0.563661506008645  0.40150822514553175  1.0000
  C   C6        1.0  0.5238358720751074  0.6528810337937931  0.49072252708560543  1.0000
  C   C7        1.0  0.6175472500394934  0.6528811239376566  0.49072255503905504  1.0000
  C   C8        1.0  0.3811009774534377  0.5636614078149531  0.4015081707756316  1.0000
  N   N2        1.0  0.3035745526208101  0.5636614891569983  0.4015081819139703  1.0000
  H   H1        1.0  0.655327084972112  0.4050239189596727  0.24288010538966628  1.0000
  H   H2        1.0  0.4902234289430651  0.40502389621157686  0.24288020272918653  1.0000
  H   H3        1.0  0.4875561497261648  0.7222990501146733  0.5601363248972147  1.0000
  H   H4        1.0  0.6526598054996725  0.7222990635845663  0.5601363356576108  1.0000
  C   C9        1.0  0.07380270855555193  0.13997916196801508  0.4039207513358003  1.0000
  C   C10       1.0  0.1212258598481264  0.22098128204467463  0.2948962993723656  1.0000
  C   C11       1.0  0.1609820915496638  0.15372842395308295  0.18033136772516897  1.0000
  C   C12       1.0  0.15371948611672814  0.004493343837487891  0.17331523956778083  1.0000
  C   C13       1.0  0.1082539834745111  0.9220411457613645  0.281692030741737  1.0000
  C   C14       1.0  0.06908911511633176  0.9873327500024044  0.3991082432224551  1.0000
  C   C15       1.0  0.20842325961635222  0.23844867541696482  0.06881418270895368  1.0000
  C   C16       1.0  0.2481434925774748  0.3094045274664685  0.9754510555543043  1.0000
  C   C17       1.0  0.29465404291424746  0.39249881115162555  0.866126905423075  1.0000
  C   C18       1.0  0.3343666176005142  0.4634493534063895  0.7727816753236584  1.0000
  H   H5        1.0  0.1255237388939232  0.33745108546422964  0.2971225389848453  1.0000
  H   H6        1.0  0.18400326869130376  0.9514944732775777  0.08466605331436017  1.0000
  H   H7        1.0  0.10553210769117838  0.8059811697628825  0.2754704155724607  1.0000
  H   H8        1.0  0.009898011199610523  0.8601592522579063  0.7414994807640398  1.0000
  H   H9        1.0  0.3692375707118991  0.5257499546810873  0.6908168534716785  1.0000
  C   C19       1.0  0.07265730803623292  0.5595777670002131  0.9783398864865371  1.0000
  C   C20       1.0  0.1496096745097697  0.6066121087644816  0.047768783631935825  1.0000
  C   C21       1.0  0.2219035258520654  0.6649915088802478  0.9675590499002821  1.0000
  C   C22       1.0  0.21808641878975754  0.6772646790518437  0.8168303980339089  1.0000
  C   C23       1.0  0.14298234972899726  0.6290620212804212  0.7460665943137177  1.0000
  C   C24       1.0  0.07023456846609301  0.5677341347694738  0.8246891334227091  1.0000
  C   C25       1.0  0.2997227407922789  0.7140351072866526  0.0402841276275403  1.0000
  N   N3        1.0  0.36226946749419175  0.7534529361996989  0.0987428497576659  1.0000
  H   H10       1.0  0.8549603795703823  0.5109317258379191  0.08645379354647154  1.0000
  H   H11       1.0  0.27361644040842226  0.7229018796077369  0.7537484029922421  1.0000
  H   H12       1.0  0.14274197429583513  0.6366473479921033  0.6289590739895526  1.0000
  H   H13       1.0  0.9246329437564713  0.5289236956810506  0.5475030637033121  1.0000
  Zn  Zn1       1.0  0.9732857899415353  0.5636576891609197  0.4015165814176349  1.0000
  Zn  Zn2       1.0  0.16959748986367496  0.5636535495352917  0.4015117493674736  1.0000
  C   C26       1.0  0.07072247071606252  0.5604447309347764  0.6647436220403996  1.0000
  C   C27       1.0  0.07216294227545061  0.5668683295061228  0.13828483979223094  1.0000
  C   C28       1.0  0.06999193454333597  0.8271095654558902  0.39427543102128104  1.0000
  C   C29       1.0  0.07289342088326634  0.30020176230640194  0.4087531174864698  1.0000
  O   O1        1.0  0.14649633065706924  0.5693072435531652  0.19196202924756456  1.0000
  O   O2        1.0  0.14538512747386667  0.5580015825857665  0.6110623565253948  1.0000
  O   O3        1.0  0.14479420170038804  0.7733368233602786  0.39265737017463787  1.0000
  O   O4        1.0  0.1470871896945516  0.35397201205976714  0.4103669074924652  1.0000
  O   O5        1.0  0.9957960231191229  0.7733392266393551  0.3926614232867034  1.0000
  O   O6        1.0  0.9963869394659767  0.5580057185463596  0.6110663229564004  1.0000
  O   O7        1.0  0.9974981479480789  0.5693113125395988  0.19196426340255157  1.0000
  O   O8        1.0  0.9980890067300217  0.35397607176799695  0.41036924974736894  1.0000
