data_image0
_chemical_formula_structural       NC9NC3NH7C7ONH7C8H6Zn2C4O8
_chemical_formula_sum              "N4 C31 H20 O9 Zn2"
_cell_length_a       16.053384444249904
_cell_length_b       10.297852080636378
_cell_length_c       9.275144076552241
_cell_angle_alpha    85.95896827245511
_cell_angle_beta     90.26395466223778
_cell_angle_gamma    89.15396345524235

_space_group_name_H-M_alt    "P 1"
_space_group_IT_number       1

loop_
  _space_group_symop_operation_xyz
  'x, y, z'

loop_
  _atom_site_type_symbol
  _atom_site_label
  _atom_site_symmetry_multiplicity
  _atom_site_fract_x
  _atom_site_fract_y
  _atom_site_fract_z
  _atom_site_occupancy
  N   N1        1.0  0.7767415299902761  0.3943582422925587  0.4068075582626405  1.0000
  C   C1        1.0  0.7256101694332676  0.37302871064210286  0.323737303758157  1.0000
  C   C2        1.0  0.6620680487994672  0.34652667331725806  0.22054379717814035  1.0000
  C   C3        1.0  0.6750222951176588  0.3335495631445162  0.07544860192286462  1.0000
  C   C4        1.0  0.598137972315227  0.30785927304420824  0.01745456895385744  1.0000
  C   C5        1.0  0.5415608353419493  0.30659212955947024  0.13029566385204916  1.0000
  C   C6        1.0  0.45086185910185256  0.2826961511952799  0.11892324504588858  1.0000
  C   C7        1.0  0.3954341002980475  0.32606105578449673  0.22314651044845665  1.0000
  C   C8        1.0  0.3098409318066865  0.30339728676787603  0.21225388153608307  1.0000
  C   C9        1.0  0.2536447704835599  0.34852364065528657  0.31910962167235835  1.0000
  N   N2        1.0  0.2084796444264077  0.3847988553239312  0.40500490270405565  1.0000
  C   C10       1.0  0.2789495885937  0.2372567030789099  0.09715320382600257  1.0000
  C   C11       1.0  0.3333698452202787  0.19401288671344297  0.9931648604234211  1.0000
  C   C12       1.0  0.4187550673356346  0.21650817830489522  0.0036173390792375625  1.0000
  N   N3        1.0  0.5813121771629385  0.3303340328186577  0.2541057363753121  1.0000
  H   H1        1.0  0.7334918191133636  0.3418319314258489  0.018162156961229362  1.0000
  H   H2        1.0  0.5853655636632457  0.29338903485571555  0.90516434292844  1.0000
  H   H3        1.0  0.4181458498258972  0.37907684963142024  0.3117112378550517  1.0000
  H   H4        1.0  0.212888630841235  0.21922891614026008  0.08779433593214869  1.0000
  H   H5        1.0  0.309366179692665  0.1426375430016451  0.9043405860255813  1.0000
  H   H6        1.0  0.4595096126077836  0.18055486600789017  0.922322799134264  1.0000
  H   H7        1.0  0.555620084988254  0.33333877203561224  0.35705525845499353  1.0000
  C   C13       1.0  0.9927034109751898  0.008139420505613788  0.4059144351322199  1.0000
  C   C14       1.0  0.9806042865227543  0.01699961337630263  0.25538529975594493  1.0000
  C   C15       1.0  0.973734053764547  0.9044163958934016  0.1791807337861775  1.0000
  C   C16       1.0  0.9803934483828705  0.7817517603293401  0.2553364539372647  1.0000
  C   C17       1.0  0.9925257452202092  0.7710076211050514  0.40591038438918225  1.0000
  C   C18       1.0  0.9984043628763783  0.8847209241007664  0.48025049663793373  1.0000
  C   C19       1.0  0.9611614923069388  0.9163704926063303  0.020171612727680314  1.0000
  O   O1        1.0  0.9830855705130744  0.01853937488567547  0.9483017822539367  1.0000
  N   N4        1.0  0.9235977152170878  0.8149257039760258  0.9459088215464809  1.0000
  H   H8        1.0  0.015872105414565185  0.19865995761369024  0.6903368516124644  1.0000
  H   H9        1.0  0.9757712014050848  0.1118688824833738  0.19730279291808464  1.0000
  H   H10       1.0  0.977769052861276  0.694247131678595  0.1975363285840619  1.0000
  H   H11       1.0  0.0077272303591120455  0.8771387602195233  0.5962651803085997  1.0000
  H   H12       1.0  0.016789118690492502  0.5434139374648885  0.6901968841492636  1.0000
  H   H13       1.0  0.9188785975069499  0.823394730385771  0.833307707638586  1.0000
  H   H14       1.0  0.8954045110332787  0.7357615035604343  0.001412214229513432  1.0000
  C   C20       1.0  0.9906529280863672  0.3869589494170047  0.982635142370916  1.0000
  C   C21       1.0  0.9363162217685412  0.4728730906612728  0.048835219185961794  1.0000
  C   C22       1.0  0.8886626943512609  0.5650749789749032  0.9660984605988787  1.0000
  C   C23       1.0  0.8944838856371035  0.5732465575727195  0.8156436240916642  1.0000
  C   C24       1.0  0.947091114589085  0.48727545490246366  0.7476949363914662  1.0000
  C   C25       1.0  0.9945762600570105  0.39218812559436  0.8291897733174647  1.0000
  C   C26       1.0  0.8456195533737514  0.6690458931921908  0.7305419844349417  1.0000
  C   C27       1.0  0.80471044988785  0.7492524115344052  0.6592758008387634  1.0000
  H   H15       1.0  0.16387879790821902  0.21261181045580171  0.10051695030315999  1.0000
  H   H16       1.0  0.9321496478248912  0.4707818195357419  0.16552275345868295  1.0000
  H   H17       1.0  0.8478319117322188  0.630925366506798  0.01970693150576719  1.0000
  H   H18       1.0  0.9494782200798519  0.49262001186614945  0.6306003247441048  1.0000
  H   H19       1.0  0.10940428775134325  0.27071619116261014  0.5588969009928011  1.0000
  H   H20       1.0  0.768800749179889  0.8196566291154053  0.5967174099028272  1.0000
  Zn  Zn1       1.0  0.9013318608382224  0.391596196911983  0.4062956670472171  1.0000
  Zn  Zn2       1.0  0.08388934717976924  0.38755039112537454  0.4055285746157409  1.0000
  C   C28       1.0  0.9938340109237807  0.3860250816184494  0.6691728195294897  1.0000
  C   C29       1.0  0.9913891908903165  0.3931231020338253  0.14265155522190676  1.0000
  C   C30       1.0  0.9925284453695803  0.62677390656588  0.40016734184986524  1.0000
  C   C31       1.0  0.9926946948699373  0.1523727183519319  0.4116571100186841  1.0000
  O   O2        1.0  0.06091590339296226  0.3936508189671449  0.19606341759237966  1.0000
  O   O3        1.0  0.06286420476687482  0.3824257092408878  0.6151783368302446  1.0000
  O   O4        1.0  0.06180901709440322  0.5768334600256744  0.39795451426280937  1.0000
  O   O5        1.0  0.0619710282678958  0.19924307818727222  0.4132871323464174  1.0000
  O   O6        1.0  0.92325011745215  0.5799035112320878  0.3985371095707302  1.0000
  O   O7        1.0  0.9243053044012551  0.38549732056376584  0.6157608552752012  1.0000
  O   O8        1.0  0.9223569950618372  0.3967223743199262  0.19664420305536434  1.0000
  O   O9        1.0  0.9234121204363631  0.2023146249171417  0.4138680258769889  1.0000
