data_image0
_chemical_formula_structural       NC6NC2H4C6ClH5C7ONH5Zn2C4O8
_chemical_formula_sum              "N3 C25 H14 Cl1 O9 Zn2"
_cell_length_a       14.927258858638513
_cell_length_b       10.302970706292308
_cell_length_c       9.273042158839658
_cell_angle_alpha    86.1623812568413
_cell_angle_beta     90.09323234568471
_cell_angle_gamma    89.9983139300619

_space_group_name_H-M_alt    "P 1"
_space_group_IT_number       1

loop_
  _space_group_symop_operation_xyz
  'x, y, z'

loop_
  _atom_site_type_symbol
  _atom_site_label
  _atom_site_symmetry_multiplicity
  _atom_site_fract_x
  _atom_site_fract_y
  _atom_site_fract_z
  _atom_site_occupancy
  N   N1        1.0  0.8419328685471756  0.4057621950915917  0.41013688016473315  1.0000
  C   C1        1.0  0.7644063773907284  0.4057621695256952  0.4101368907516689  1.0000
  C   C2        1.0  0.667973869793955  0.4057622726719858  0.4101368408997217  1.0000
  C   C3        1.0  0.6207939085052014  0.3832335170641261  0.2834679167124638  1.0000
  C   C4        1.0  0.5270825970263306  0.383233538878235  0.28346778327281164  1.0000
  C   C5        1.0  0.48015780582432505  0.4057621130064999  0.41013685952434153  1.0000
  C   C6        1.0  0.38372523123600943  0.40576221615540287  0.41013680966647126  1.0000
  N   N2        1.0  0.3061987400795619  0.4057621905895066  0.4101368202534068  1.0000
  C   C7        1.0  0.5273377001215365  0.42829086861697235  0.5368057837056761  1.0000
  C   C8        1.0  0.6210490116004069  0.42829084680286345  0.5368059171453279  1.0000
  H   H1        1.0  0.6563908355581904  0.3657048737954076  0.18491222381607408  1.0000
  H   H2        1.0  0.4912871800384971  0.3657050515847913  0.18491221888387185  1.0000
  H   H3        1.0  0.49174084016579495  0.44581950362163947  0.6353615846723499  1.0000
  H   H4        1.0  0.6568444286954399  0.4458194227609333  0.6353615915493709  1.0000
  C   C9        1.0  0.07407009051278873  0.02451479410656466  0.4101430781464778  1.0000
  C   C10       1.0  0.1666017757869991  0.021634943750777014  0.4379052869333148  1.0000
  C   C11       1.0  0.21251352820845137  0.9032491940034458  0.4516800531958249  1.0000
  C   C12       1.0  0.16660177500320583  0.7865269744381674  0.4379052191460923  1.0000
  C   C13       1.0  0.07407010015673188  0.7869997367015418  0.41014316065630374  1.0000
  C   C14       1.0  0.02825530767206043  0.9065872931489347  0.396397352850975  1.0000
  Cl  Cl1       1.0  0.3281076492457292  0.9011550907668056  0.48636156709563005  1.0000
  H   H5        1.0  0.03921502448771564  0.3529026939703521  0.3996847333734459  1.0000
  H   H6        1.0  0.20340387567960438  0.11101482061137878  0.44894686832486724  1.0000
  H   H7        1.0  0.20340384014776147  0.6958136268014375  0.448946764768678  1.0000
  H   H8        1.0  0.9568920639144513  0.9078799935885966  0.3749862585043435  1.0000
  H   H9        1.0  0.03921502039438729  0.45987472987429207  0.399685005504274  1.0000
  C   C15       1.0  0.07364172918897133  0.40174484969328805  0.9868781881541596  1.0000
  C   C16       1.0  0.9913610069735094  0.4100120952132589  0.059559003878901784  1.0000
  C   C17       1.0  0.9106980119444222  0.4308371002120545  0.9833028508534851  1.0000
  C   C18       1.0  0.9128123947860884  0.441826732614095  0.8318041506703078  1.0000
  C   C19       1.0  0.9936265642384375  0.4316533611799034  0.7581139043660841  1.0000
  C   C20       1.0  0.07449850755500576  0.40976961080025087  0.8334080270670405  1.0000
  C   C21       1.0  0.8250930857951139  0.4397996263472974  0.06316287988387614  1.0000
  O   O1        1.0  0.8191082210983774  0.3895591684418551  0.19053350042969885  1.0000
  N   N3        1.0  0.7488921821041388  0.5056642639829916  0.9996264274914298  1.0000
  H   H10       1.0  0.29099006803897376  0.4513349111897649  0.08683822485830839  1.0000
  H   H11       1.0  0.8518928441411917  0.4546631366068766  0.7691810242206545  1.0000
  H   H12       1.0  0.22099831672921938  0.4371472954039495  0.5504862301843341  1.0000
  H   H13       1.0  0.7532064263765914  0.5617270268684866  0.9019606008691881  1.0000
  H   H14       1.0  0.6883428840403274  0.5055181385340421  0.05586889475091428  1.0000
  Zn  Zn1       1.0  0.9759099867853226  0.4057587939287413  0.41014519137142885  1.0000
  Zn  Zn2       1.0  0.17222164468981993  0.4057550696622927  0.41014033265609284  1.0000
  C   C22       1.0  0.07433453605118645  0.40308075575815305  0.6733957374788682  1.0000
  C   C23       1.0  0.07379923928439515  0.40843474723094886  0.14688992796517675  1.0000
  C   C24       1.0  0.0740596895515857  0.642819374135644  0.40439940300426414  1.0000
  C   C25       1.0  0.07407401887426263  0.16869456977759234  0.41588633928634455  1.0000
  O   O2        1.0  0.14835135219903206  0.41067286068105857  0.20058948571367363  1.0000
  O   O3        1.0  0.1487784287235386  0.40083883233228823  0.6196920771622294  1.0000
  O   O4        1.0  0.14855548393048906  0.594430812807212  0.402475633905202  1.0000
  O   O5        1.0  0.14857422989483457  0.2170808884701858  0.4178058209004165  1.0000
  O   O6        1.0  0.9995573345887659  0.5944329751234605  0.402479703121182  1.0000
  O   O7        1.0  0.9997802793000073  0.4008425537270146  0.6196960695257214  1.0000
  O   O8        1.0  0.9993532010812247  0.4106765204066747  0.2005917451459045  1.0000
  O   O9        1.0  0.9995760788827326  0.2170845399343626  0.4178081883970082  1.0000
