data_image0
_chemical_formula_structural       NC9NC5H8C6FH5C6SCH8Zn2C4O8
_chemical_formula_sum              "N2 C31 H21 F1 S1 Zn2 O8"
_cell_length_a       17.807436237873137
_cell_length_b       9.275642734913903
_cell_length_c       10.302812801239593
_cell_angle_alpha    85.47815978286455
_cell_angle_beta     89.39214003622364
_cell_angle_gamma    88.99238798493903

_space_group_name_H-M_alt    "P 1"
_space_group_IT_number       1

loop_
  _space_group_symop_operation_xyz
  'x, y, z'

loop_
  _atom_site_type_symbol
  _atom_site_label
  _atom_site_symmetry_multiplicity
  _atom_site_fract_x
  _atom_site_fract_y
  _atom_site_fract_z
  _atom_site_occupancy
  N   N1        1.0  0.7158634041092748  0.5407882412545726  0.5554496917949596  1.0000
  C   C1        1.0  0.6550615845958089  0.5017183540441952  0.5444833443846555  1.0000
  C   C2        1.0  0.579430803852505  0.4531197169556591  0.5308423988358786  1.0000
  C   C3        1.0  0.5609045632869242  0.3738307325812038  0.4259823744345131  1.0000
  C   C4        1.0  0.4874703055586103  0.3265214110280896  0.4126554636304691  1.0000
  C   C5        1.0  0.4315112708454567  0.3580819156459225  0.5041567162278373  1.0000
  C   C6        1.0  0.3534702846044179  0.3079318786276932  0.49007553329769094  1.0000
  C   C7        1.0  0.2917917902721672  0.39870280737190944  0.5158805901778674  1.0000
  C   C8        1.0  0.2182139912166043  0.3511680593819342  0.5025676683582796  1.0000
  C   C9        1.0  0.1555017966336798  0.4449271028633648  0.528732375806539  1.0000
  N   N2        1.0  0.10509414490339869  0.5203028871897242  0.5497680833185117  1.0000
  C   C10       1.0  0.2057295706182567  0.21257595639228044  0.4634247445167936  1.0000
  C   C11       1.0  0.2665506107769637  0.12178964797000179  0.43761132187451013  1.0000
  C   C12       1.0  0.3400065753182951  0.1688863518017547  0.45072237559408657  1.0000
  C   C13       1.0  0.4507319263152306  0.4379197767680323  0.6092351412534118  1.0000
  C   C14       1.0  0.5242178960360384  0.4850177109600442  0.6224067429632116  1.0000
  H   H1        1.0  0.6031626063866333  0.3488666554476445  0.35432673759311184  1.0000
  H   H2        1.0  0.47423090106510335  0.2669203852018833  0.32984361602892154  1.0000
  H   H3        1.0  0.3008827728354898  0.5069145560393153  0.5445986843173822  1.0000
  H   H4        1.0  0.14905728189897519  0.17478696224870705  0.4528855278290762  1.0000
  H   H5        1.0  0.2567662786313933  0.014488436346961734  0.40769193289075156  1.0000
  H   H6        1.0  0.3862470508511109  0.09589200968929235  0.43178105626545893  1.0000
  H   H7        1.0  0.4091874799138069  0.462285356654956  0.6821856983093586  1.0000
  H   H8        1.0  0.5379930839016326  0.5459739189053379  0.7041754145122658  1.0000
  C   C15       1.0  0.90815983206998  0.10712366038326349  0.5532009981863535  1.0000
  C   C16       1.0  0.8936224376943943  0.19120162250451722  0.4361276673426842  1.0000
  C   C17       1.0  0.8861696641075562  0.1263168415225855  0.31935141690883206  1.0000
  C   C18       1.0  0.8931981085907  0.9766561703787183  0.31758356777644803  1.0000
  C   C19       1.0  0.9063780647381529  0.8910601623935585  0.4328605653694988  1.0000
  C   C20       1.0  0.9128048464170782  0.9539560242559255  0.5520279399908583  1.0000
  F   F1        1.0  0.8729865461037619  0.20911013658908284  0.20724469517718355  1.0000
  H   H9        1.0  0.9857701600884774  0.18218481763199199  0.8420595466463153  1.0000
  H   H10       1.0  0.8897876378208045  0.3080288280726402  0.43452208460368374  1.0000
  H   H11       1.0  0.8877143318901006  0.9264834404907515  0.22686484574998467  1.0000
  H   H12       1.0  0.9097698065668398  0.7747217290454277  0.4292429341992933  1.0000
  H   H13       1.0  0.962057088317698  0.6539396204383202  0.748200565617746  1.0000
  C   C21       1.0  0.9104823531975892  0.5305398522289584  0.17136601721892641  1.0000
  C   C22       1.0  0.8859422676468787  0.6756641071885425  0.1603392782390567  1.0000
  C   C23       1.0  0.8735371023787768  0.7476708759321036  0.03788025676845952  1.0000
  C   C24       1.0  0.885942199107704  0.6756639593923344  0.9251881097478165  1.0000
  C   C25       1.0  0.9104823044285538  0.5305398450758863  0.933862921573025  1.0000
  C   C26       1.0  0.9226092209607312  0.45867552907192194  0.05749298968706973  1.0000
  S   S1        1.0  0.8423383490674291  0.9331872128986884  0.025284422300118955  1.0000
  C   C27       1.0  0.7432701520357634  0.8880090873161549  0.030308398791784482  1.0000
  H   H14       1.0  0.9197023153442099  0.4758325389718649  0.5028362590583708  1.0000
  H   H15       1.0  0.8761939223626648  0.7333079255144308  0.24652608263770825  1.0000
  H   H16       1.0  0.8761937708561298  0.7333077257229055  0.8311757721382261  1.0000
  H   H17       1.0  0.941524404937098  0.3467259166927825  0.06509219535131994  1.0000
  H   H18       1.0  0.9197009128000038  0.4758318639852326  0.6098206949941543  1.0000
  H   H19       1.0  0.7296003702023758  0.8245655484044954  0.9469453311599593  1.0000
  H   H20       1.0  0.7296006998653195  0.8245669886783968  0.12318001647952492  1.0000
  H   H21       1.0  0.7090558145615292  0.9893619580608345  0.02374142532885903  1.0000
  Zn  Zn1       1.0  0.8281869657587829  0.5348727631828416  0.5538176160676964  1.0000
  Zn  Zn2       1.0  0.9927705005864882  0.5262066117703079  0.5514108485666049  1.0000
  C   C28       1.0  0.9104491324093463  0.524795758531839  0.7897426743294933  1.0000
  C   C29       1.0  0.9105101411621603  0.536285341094195  0.3154858889290504  1.0000
  C   C30       1.0  0.9119229603675428  0.7938868892943773  0.5470762063746695  1.0000
  C   C31       1.0  0.9090362475408917  0.2671924809346842  0.5581524293215716  1.0000
  O   O1        1.0  0.9729780262854792  0.5349185298542791  0.36294048741621765  1.0000
  O   O2        1.0  0.97289633605002  0.5195840736161381  0.7404610227766191  1.0000
  O   O3        1.0  0.9740856287935633  0.7368786091627328  0.5445061432334424  1.0000
  O   O4        1.0  0.9717886774373071  0.3176240075794936  0.5588952704224603  1.0000
  O   O5        1.0  0.84916873274369  0.7434553703325582  0.5463331950263215  1.0000
  O   O6        1.0  0.8479794494989442  0.5261625671418373  0.7422880029462817  1.0000
  O   O7        1.0  0.8480611395088393  0.5414969731311249  0.36476590674722886  1.0000
  O   O8        1.0  0.8468717906010215  0.3242024405434318  0.5607207871048865  1.0000
