data_image0
_chemical_formula_structural       NC9NC5H8C6SCNH5C7NC2NH8Zn2C4O8
_chemical_formula_sum              "N5 C34 H21 S1 Zn2 O8"
_cell_length_a       17.807436237873137
_cell_length_b       10.302215558581764
_cell_length_c       9.27399911348925
_cell_angle_alpha    85.06957531056571
_cell_angle_beta     89.04204372891122
_cell_angle_gamma    88.40943486361951

_space_group_name_H-M_alt    "P 1"
_space_group_IT_number       1

loop_
  _space_group_symop_operation_xyz
  'x, y, z'

loop_
  _atom_site_type_symbol
  _atom_site_label
  _atom_site_symmetry_multiplicity
  _atom_site_fract_x
  _atom_site_fract_y
  _atom_site_fract_z
  _atom_site_occupancy
  N   N1        1.0  0.7125945059157602  0.3997361834513933  0.39648432783058474  1.0000
  C   C1        1.0  0.652037643097972  0.3646501462439191  0.3842276382465541  1.0000
  C   C2        1.0  0.5767115615660957  0.3210069799803128  0.36898164722763505  1.0000
  C   C3        1.0  0.5589637138100829  0.25050955925443574  0.25226774518400097  1.0000
  C   C4        1.0  0.48582623462125857  0.2080246499504439  0.23737302004382665  1.0000
  C   C5        1.0  0.4293879215144616  0.23566000965283584  0.3391560840288237  1.0000
  C   C6        1.0  0.35166137758905414  0.19062367639590702  0.323418083662218  1.0000
  C   C7        1.0  0.2894126628537467  0.27213614340796166  0.3522575444973606  1.0000
  C   C8        1.0  0.21613279261026322  0.22944813280469778  0.3373780013088348  1.0000
  C   C9        1.0  0.1528332742853013  0.31364812306125667  0.36662223958518525  1.0000
  N   N2        1.0  0.10195345117846549  0.38133908057930177  0.39013379901554135  1.0000
  C   C10       1.0  0.2045181282229812  0.10498996066118639  0.2936307918696903  1.0000
  C   C11       1.0  0.2659094989975865  0.023463716833297628  0.26478200466576607  1.0000
  C   C12       1.0  0.3390705498468353  0.06575902456849003  0.27943638990527786  1.0000
  C   C13       1.0  0.44782652380104104  0.306649789241086  0.4561137072948933  1.0000
  C   C14       1.0  0.5210173671221217  0.3489456868478109  0.4708354118341931  1.0000
  H   H1        1.0  0.6015984066641629  0.22864406822554706  0.17255989950273642  1.0000
  H   H2        1.0  0.4731855266384514  0.15506631446510655  0.14520469035427674  1.0000
  H   H3        1.0  0.29783082621496  0.3693279963589917  0.3843644251046603  1.0000
  H   H4        1.0  0.14808253518541847  0.07105362900291534  0.28185109444704204  1.0000
  H   H5        1.0  0.25679723798283804  0.927102019426986  0.23134102262444878  1.0000
  H   H6        1.0  0.3857634103612704  0.00019448109988684086  0.2582572912920811  1.0000
  H   H7        1.0  0.4059041987510668  0.32796529499950244  0.5372602606803634  1.0000
  H   H8        1.0  0.5341902091777971  0.4031331987097746  0.5618461684075995  1.0000
  C   C15       1.0  0.907203064855138  0.009269096252732423  0.3932705064924633  1.0000
  C   C16       1.0  0.9823600165400623  0.0012922023443309267  0.4374612928682104  1.0000
  C   C17       1.0  0.01975994901485678  0.880278355525837  0.4599089787461101  1.0000
  C   C18       1.0  0.9825549212118622  0.7661068315519788  0.4375803269520342  1.0000
  C   C19       1.0  0.9073520027514091  0.7717957447293434  0.3933599948775499  1.0000
  C   C20       1.0  0.8700804481512963  0.8938734888991037  0.3715039436841736  1.0000
  S   S1        1.0  0.11578268011016045  0.8716154366502962  0.5157245691571906  1.0000
  C   C21       1.0  0.09042961361524893  0.8585383129611344  0.701093537069735  1.0000
  N   N3        1.0  0.07378557558134834  0.8499666162342313  0.8226191256455078  1.0000
  H   H9        1.0  0.8786052690799745  0.33964500368103034  0.37638269024638604  1.0000
  H   H10       1.0  0.012134183157663344  0.08871904464851153  0.4548853273936522  1.0000
  H   H11       1.0  0.012462686623940124  0.6732449546521749  0.4550860272401205  1.0000
  H   H12       1.0  0.8121162783610884  0.8991757752155272  0.33744249170267526  1.0000
  H   H13       1.0  0.7656271971456244  0.5753114528244798  0.3098608918686047  1.0000
  C   C22       1.0  0.9085757426026545  0.39379401265977765  0.9694431090277215  1.0000
  C   C23       1.0  0.9675394221368167  0.3288374403981815  0.046958436379007866  1.0000
  C   C24       1.0  0.02152811430226076  0.2548726393708298  0.9774170977978737  1.0000
  C   C25       1.0  0.018004068208828272  0.24333017184710398  0.828176768718631  1.0000
  C   C26       1.0  0.9601715284912312  0.31042590052341806  0.7490846127805206  1.0000
  C   C27       1.0  0.9059793489565632  0.3872708596740595  0.8171873862576169  1.0000
  C   C28       1.0  0.07564683844738584  0.16295531673102515  0.7565316946855689  1.0000
  N   N4        1.0  0.13855195802070885  0.11461813263146059  0.8235390542272641  1.0000
  C   C29       1.0  0.1749090246700693  0.047935870668154516  0.7236152348011387  1.0000
  C   C30       1.0  0.13387198551375556  0.056345518768636575  0.5987432553243726  1.0000
  N   N5        1.0  0.07144317382361765  0.12862347509690464  0.619602897222939  1.0000
  H   H14       1.0  0.8286340107507866  0.5614508605381154  0.23734390883997689  1.0000
  H   H15       1.0  0.9709434738744488  0.33254029229502247  0.1630545338765217  1.0000
  H   H16       1.0  0.06557782302226967  0.20496114903913498  0.041420600995875974  1.0000
  H   H17       1.0  0.9583124280900461  0.30700069491756854  0.6330095151287289  1.0000
  H   H18       1.0  0.7887720487367651  0.46608775071428754  0.5333457414846898  1.0000
  H   H19       1.0  0.22804615084001797  0.9960094376031812  0.7411110480684258  1.0000
  H   H20       1.0  0.148284396202238  0.012310902577004516  0.4998102830965587  1.0000
  H   H21       1.0  0.028944037165602895  0.15031126281950602  0.5445930321624108  1.0000
  Zn  Zn1       1.0  0.8249550594656534  0.3944236483551973  0.3946600498506492  1.0000
  Zn  Zn2       1.0  0.9895928410202286  0.3866409409840771  0.39196994226431026  1.0000
  C   C31       1.0  0.9064674357851258  0.3833316375427418  0.6569450202852627  1.0000
  C   C32       1.0  0.908082262426336  0.397734503906875  0.12968508431861947  1.0000
  C   C33       1.0  0.9073376195872643  0.6277064415179869  0.3875912325947539  1.0000
  C   C34       1.0  0.9072120219044085  0.15335814210412702  0.39903894969914994  1.0000
  O   O1        1.0  0.9703958249475862  0.3960978076317432  0.18244287258034575  1.0000
  O   O2        1.0  0.9691101410860933  0.3790604627359253  0.6021450869845011  1.0000
  O   O3        1.0  0.9698119786653081  0.5763962357528445  0.38464001162235273  1.0000
  O   O4        1.0  0.9696939315219308  0.1987620473910832  0.3999478406345431  1.0000
  O   O5        1.0  0.8448539127811799  0.5823025446055192  0.3866821523908257  1.0000
  O   O6        1.0  0.8441520757389831  0.3849683320734304  0.6041871509733625  1.0000
  O   O7        1.0  0.8454377649566822  0.4020056450764115  0.18448320114559658  1.0000
  O   O8        1.0  0.8447358711946961  0.20466987471682052  0.4019882774181547  1.0000
