data_image0
_chemical_formula_structural       NC6NCNCH5C6NH5C6BrH4Zn2C4O8
_chemical_formula_sum              "N4 C24 H14 Br1 Zn2 O8"
_cell_length_a       14.933214217465613
_cell_length_b       9.274771166103582
_cell_length_c       9.27656775626242
_cell_angle_alpha    86.01325923358289
_cell_angle_beta     90.1519400802072
_cell_angle_gamma    90.63112361825276

_space_group_name_H-M_alt    "P 1"
_space_group_IT_number       1

loop_
  _space_group_symop_operation_xyz
  'x, y, z'

loop_
  _atom_site_type_symbol
  _atom_site_label
  _atom_site_symmetry_multiplicity
  _atom_site_fract_x
  _atom_site_fract_y
  _atom_site_fract_z
  _atom_site_occupancy
  N   N1        1.0  0.8501378185914628  0.5639363368321975  0.4069014126762871  1.0000
  C   C1        1.0  0.7726519431913519  0.5649236034854432  0.40590949439498414  1.0000
  C   C2        1.0  0.6762589686796499  0.5661544715302911  0.4046726951300388  1.0000
  C   C3        1.0  0.6280133354870877  0.47129631985308174  0.49999724770622156  1.0000
  C   C4        1.0  0.5344846740719674  0.4723689614139261  0.49891936195881076  1.0000
  C   C5        1.0  0.4882990505531683  0.5682454057453232  0.40257154694948594  1.0000
  C   C6        1.0  0.39171424733165594  0.5661566085402574  0.40467062120568276  1.0000
  N   N2        1.0  0.3142208668403282  0.5644140865409557  0.4064213398431977  1.0000
  C   C7        1.0  0.5366487690546681  0.6643013584687787  0.30604343317981275  1.0000
  N   N3        1.0  0.4917796224027017  0.7639538180153065  0.205901273952247  1.0000
  C   C8        1.0  0.6306535390022316  0.6622717144967496  0.30808317393630036  1.0000
  H   H1        1.0  0.6626788025572358  0.3965070462688381  0.5751542037056587  1.0000
  H   H2        1.0  0.4980719288825019  0.39820882559823256  0.5734439578805086  1.0000
  H   H3        1.0  0.5284477566066071  0.8343379589082744  0.13517102545916604  1.0000
  H   H4        1.0  0.4220616930804501  0.7692561793129267  0.20057291394490773  1.0000
  H   H5        1.0  0.6681874067044687  0.7356856757365631  0.2343082556007121  1.0000
  C   C9        1.0  0.07943601763817408  0.1405835117414025  0.4074495970712839  1.0000
  C   C10       1.0  0.0585613020584477  0.22260841998117153  0.2786206089609802  1.0000
  C   C11       1.0  0.04604570564555255  0.15627578662913466  0.1489654732512129  1.0000
  C   C12       1.0  0.054449814228502605  0.006531616976709346  0.14720008108626725  1.0000
  C   C13       1.0  0.07366493434865218  0.9231682312349626  0.2742607556028862  1.0000
  C   C14       1.0  0.08493119454206816  0.9877559411385578  0.4058856925404932  1.0000
  N   N4        1.0  0.0257182212144096  0.24138688213559958  0.01871977655314883  1.0000
  H   H6        1.0  0.18087253143352144  0.2234376152057218  0.722681684645607  1.0000
  H   H7        1.0  0.045244155486413834  0.9540575009682015  0.04744309669522417  1.0000
  H   H8        1.0  0.14962775706078135  0.6928580922940624  0.6203595901540004  1.0000
  H   H9        1.0  0.019548328784215988  0.353453973753071  0.018679359613356535  1.0000
  H   H10       1.0  0.016601802198113132  0.19295328054121974  0.9213322730889818  1.0000
  C   C15       1.0  0.08130194590814302  0.5600234876881541  0.983549414193273  1.0000
  C   C16       1.0  0.0019509621393376537  0.5946672088242633  0.05417845624289864  1.0000
  C   C17       1.0  0.9266563463179733  0.641196890870589  0.9754696199251834  1.0000
  C   C18       1.0  0.9292988972266206  0.6540253913637488  0.8249474515126356  1.0000
  C   C19       1.0  0.006884206760178202  0.6178216475564509  0.7525960395666371  1.0000
  C   C20       1.0  0.0830652828167815  0.5683159746418531  0.8297858634764057  1.0000
  Br  Br1       1.0  0.8262520466305036  0.7188686145130222  0.7176843463298415  1.0000
  H   H11       1.0  0.20364309670763214  0.429132181331282  0.27449804709502246  1.0000
  H   H12       1.0  0.9987705032859535  0.5890765782039067  0.17108942615507083  1.0000
  H   H13       1.0  0.8664627432239568  0.6686369405895227  0.03179868273322994  1.0000
  H   H14       1.0  0.23031090300769197  0.5535726636647345  0.5502662234513624  1.0000
  Zn  Zn1       1.0  0.9840621544266415  0.5640704162020878  0.4067712104960042  1.0000
  Zn  Zn2       1.0  0.18029646423931311  0.5642682894557173  0.4065633962701729  1.0000
  C   C21       1.0  0.08269267653612622  0.5610019997900269  0.6698396494904084  1.0000
  C   C22       1.0  0.08166809710269751  0.5673385294518389  0.14349509306702246  1.0000
  C   C23       1.0  0.08387590484644841  0.8275660188472507  0.40043957455538615  1.0000
  C   C24       1.0  0.0804847907500024  0.300772778030151  0.4128952480906154  1.0000
  O   O1        1.0  0.1562608378591238  0.5698623231424682  0.1970954712205215  1.0000
  O   O2        1.0  0.15703722845187973  0.5586272950646327  0.6160811323850806  1.0000
  O   O3        1.0  0.1579916995084123  0.7738811252844566  0.39853866411913375  1.0000
  O   O4        1.0  0.1553062996829342  0.3546085021152503  0.4146378315038435  1.0000
  O   O5        1.0  0.009052252017875077  0.7737302034765265  0.3986967753256687  1.0000
  O   O6        1.0  0.008097792038570525  0.5584781055551375  0.6162391635663795  1.0000
  O   O7        1.0  0.007321397569654667  0.5697130663911516  0.19725177016387185  1.0000
  O   O8        1.0  0.006366859547977113  0.35445923610529917  0.414794238493154  1.0000
