data_image0
_chemical_formula_structural       NC9NC5H8C7OC4NC3H8C6NCOC6H11Zn2C4O8
_chemical_formula_sum              "N4 C45 H27 O10 Zn2"
_cell_length_a       17.807436237873137
_cell_length_b       10.299371701877256
_cell_length_c       10.299662537453276
_cell_angle_alpha    85.55951811676591
_cell_angle_beta     89.37814808442572
_cell_angle_gamma    88.40037932452064

_space_group_name_H-M_alt    "P 1"
_space_group_IT_number       1

loop_
  _space_group_symop_operation_xyz
  'x, y, z'

loop_
  _atom_site_type_symbol
  _atom_site_label
  _atom_site_symmetry_multiplicity
  _atom_site_fract_x
  _atom_site_fract_y
  _atom_site_fract_z
  _atom_site_occupancy
  N   N1        1.0  0.7077505121808259  0.38828330572916125  0.5575793057213552  1.0000
  C   C1        1.0  0.6471608671314305  0.3530977349532533  0.5465429486800308  1.0000
  C   C2        1.0  0.5717940080578675  0.3093307597520569  0.5328149188543945  1.0000
  C   C3        1.0  0.5537095606983776  0.23795457778380924  0.42778503187571837  1.0000
  C   C4        1.0  0.4805322293229013  0.1953487520869157  0.4143733310324621  1.0000
  C   C5        1.0  0.4243905924180837  0.2237415916680918  0.505958933930712  1.0000
  C   C6        1.0  0.3466219535887493  0.1785774579833874  0.49178788514981564  1.0000
  C   C7        1.0  0.2844504707384774  0.2603238498784712  0.5177557051343579  1.0000
  C   C8        1.0  0.2111308117665758  0.21751498159239732  0.5043576153194989  1.0000
  C   C9        1.0  0.1479094662665536  0.30195258425206517  0.5306902791632337  1.0000
  N   N2        1.0  0.0970924922758351  0.36983457465719255  0.5518610123648588  1.0000
  C   C10       1.0  0.19939906772706342  0.09270175148645388  0.46496626577970357  1.0000
  C   C11       1.0  0.2607131804744119  0.01094151042259362  0.43899005111224376  1.0000
  C   C12       1.0  0.3339133944948667  0.05335591334825019  0.4521854613492445  1.0000
  C   C13       1.0  0.4431664652041265  0.2956120579224095  0.6112082267103974  1.0000
  C   C14       1.0  0.5163966695573854  0.338027547083807  0.6244642073914185  1.0000
  H   H1        1.0  0.596111942708897  0.21549583426424185  0.3560629172199726  1.0000
  H   H2        1.0  0.4676254590184631  0.14169717426532213  0.3314324570356493  1.0000
  H   H3        1.0  0.2929540188392988  0.35777781853559515  0.546667147956998  1.0000
  H   H4        1.0  0.1429319882349828  0.05866970329151355  0.45435935744120665  1.0000
  H   H5        1.0  0.2515115355821036  0.9143080810980062  0.40887845502701414  1.0000
  H   H6        1.0  0.3805500661386679  0.9876180864779126  0.43311386327325385  1.0000
  H   H7        1.0  0.4014807317063228  0.31753127681681836  0.6842246811772121  1.0000
  H   H8        1.0  0.5298320567995085  0.3929000907685804  0.7063638548852504  1.0000
  C   C15       1.0  0.9023858122114073  0.997690259142354  0.554593710401742  1.0000
  C   C16       1.0  0.9060546177866908  0.006908752463662632  0.4178753125138668  1.0000
  C   C17       1.0  0.9070520267712332  0.8944298366315492  0.34886847258445974  1.0000
  C   C18       1.0  0.9060638677289559  0.7716398789293638  0.41819257165286966  1.0000
  C   C19       1.0  0.9024643670279036  0.7604172950186471  0.5548577679863844  1.0000
  C   C20       1.0  0.9004485099099038  0.8740527705941078  0.6222546660649202  1.0000
  C   C21       1.0  0.9117150159574507  0.9039827643666225  0.20455040057612808  1.0000
  O   O1        1.0  0.9478804420346733  0.8165429528005923  0.14907352441926713  1.0000
  C   C22       1.0  0.8753379353085967  0.012650579802617079  0.12317271202753721  1.0000
  C   C23       1.0  0.907529539875091  0.055814653299277595  0.0027299768244730713  1.0000
  C   C24       1.0  0.8731333940696311  0.157377368455607  0.9244445893927802  1.0000
  C   C25       1.0  0.9067827445235556  0.20165724174735145  0.8017943012578491  1.0000
  N   N3        1.0  0.9338353223930849  0.23724869482433286  0.7032012059123561  1.0000
  C   C26       1.0  0.805984899973934  0.21572246117640412  0.9656025265195703  1.0000
  C   C27       1.0  0.7731593460170171  0.17237845491934434  0.08431502751073162  1.0000
  C   C28       1.0  0.8073397907974331  0.07112343933560662  0.1625921853551151  1.0000
  H   H9        1.0  0.9089822158869774  0.10171367131686226  0.3649458372747232  1.0000
  H   H10       1.0  0.9073895772901832  0.6847594930025428  0.3651609873286239  1.0000
  H   H11       1.0  0.8976205398874626  0.8661420746093024  0.7276547998005178  1.0000
  H   H12       1.0  0.9017139141924849  0.4286156977924636  0.607393914496585  1.0000
  H   H13       1.0  0.9596331929811561  0.011266495869483478  0.9703879296683438  1.0000
  H   H14       1.0  0.778910655245142  0.2942442623258902  0.9057608428088663  1.0000
  H   H15       1.0  0.7209275717878916  0.21694930261231793  0.11550595339588866  1.0000
  H   H16       1.0  0.780186073641847  0.03766627539694278  0.25314707434656003  1.0000
  C   C29       1.0  0.9024768180734555  0.37919186313741776  0.17334904831565234  1.0000
  C   C30       1.0  0.9791696502305104  0.4079324568585682  0.16841993545657896  1.0000
  C   C31       1.0  0.01802476861014068  0.42051643750540174  0.049249622793523073  1.0000
  C   C32       1.0  0.979038161061619  0.40762861352013946  0.9332784622446471  1.0000
  C   C33       1.0  0.9023733812368241  0.37891569491124844  0.9361024260823283  1.0000
  C   C34       1.0  0.8645896440874159  0.36441185341126725  0.05669871689375717  1.0000
  N   N4        1.0  0.09625912565078831  0.45189500142873107  0.04762922118198088  1.0000
  C   C35       1.0  0.14942502164373495  0.40952565776936556  0.9526215155981359  1.0000
  O   O2        1.0  0.1357126458478206  0.31161701037049583  0.8912371210846424  1.0000
  C   C36       1.0  0.22156148208767637  0.47643636469985035  0.9292360682434868  1.0000
  C   C37       1.0  0.23063804306483804  0.6040767753212228  0.9655011063059544  1.0000
  C   C38       1.0  0.2987987937438689  0.6664026890962569  0.9423322346645132  1.0000
  C   C39       1.0  0.35842933249004005  0.6025500019286355  0.8824603887835836  1.0000
  C   C40       1.0  0.34996252809898776  0.4763270844376277  0.8451809302620991  1.0000
  C   C41       1.0  0.2819298221215667  0.4135380703308682  0.8680186829279176  1.0000
  H   H17       1.0  0.7576354686133107  0.3261918336344063  0.3898203759119403  1.0000
  H   H18       1.0  0.009270615862521089  0.41972534062013  0.25740281568002144  1.0000
  H   H19       1.0  0.008137716929308649  0.4222137044623844  0.8407434283107716  1.0000
  H   H20       1.0  0.8054704876867421  0.34223903071547834  0.05963435442329268  1.0000
  H   H21       1.0  0.8727223925661336  0.3695936274462309  0.6096106055089258  1.0000
  H   H22       1.0  0.1167669840099832  0.49812716778689253  0.1262670277404141  1.0000
  H   H23       1.0  0.18499555343534443  0.6567748393703363  0.009962880378427076  1.0000
  H   H24       1.0  0.30527163285131553  0.7645757245799785  0.9703872662464486  1.0000
  H   H25       1.0  0.41111150503227756  0.6510319296513813  0.864586858221578  1.0000
  H   H26       1.0  0.3961606747393824  0.42702000836993914  0.7985152028358538  1.0000
  H   H27       1.0  0.27674432709220786  0.31552665645556766  0.8385697841890005  1.0000
  Zn  Zn1       1.0  0.8201061948179704  0.38295593245450665  0.5559366395264367  1.0000
  Zn  Zn2       1.0  0.984736788903051  0.37515135790327986  0.5535143517244743  1.0000
  C   C42       1.0  0.9023907049188756  0.3737943156545831  0.7919239452581995  1.0000
  C   C43       1.0  0.902454076714584  0.38431452804922545  0.31752714757775724  1.0000
  C   C44       1.0  0.9024463516426201  0.616247722412907  0.549632638689517  1.0000
  C   C45       1.0  0.9023983736438388  0.1418595636280291  0.5598185236728506  1.0000
  O   O3        1.0  0.9649228963990291  0.38306628008590193  0.36499538721481334  1.0000
  O   O4        1.0  0.9648726968021704  0.3691180925329547  0.7426168710345307  1.0000
  O   O5        1.0  0.9649167898397115  0.5649023241696318  0.5469649395886809  1.0000
  O   O6        1.0  0.9648787471983832  0.18728206043786508  0.5606472221137884  1.0000
  O   O7        1.0  0.839964180342297  0.5708252325846563  0.5488037699568997  1.0000
  O   O8        1.0  0.8399200874714157  0.37504256127558705  0.7444556326961155  1.0000
  O   O9        1.0  0.8399702873253708  0.3889907041355587  0.3668325874274625  1.0000
  O   O10       1.0  0.8399261381074885  0.1932064751636162  0.56248451969309  1.0000
