data_image0
_chemical_formula_structural       NC8NH4C7NC4H9C7NC4H9Zn2C4O8
_chemical_formula_sum              "N4 C34 H22 Zn2 O8"
_cell_length_a       13.859017981522156
_cell_length_b       12.58882448224428
_cell_length_c       12.588827829612491
_cell_angle_alpha    85.46606077560155
_cell_angle_beta     91.15412864820333
_cell_angle_gamma    89.97899464488776

_space_group_name_H-M_alt    "P 1"
_space_group_IT_number       1

loop_
  _space_group_symop_operation_xyz
  'x, y, z'

loop_
  _atom_site_type_symbol
  _atom_site_label
  _atom_site_symmetry_multiplicity
  _atom_site_fract_x
  _atom_site_fract_y
  _atom_site_fract_z
  _atom_site_occupancy
  N   N1        1.0  0.8845733810826237  0.02508753923117869  0.7060120794804092  1.0000
  C   C1        1.0  0.8114205326205842  0.014482837540796156  0.6621882792294294  1.0000
  C   C2        1.0  0.7204227670823257  0.0012922473175132037  0.6076771403380252  1.0000
  C   C3        1.0  0.7183040230183624  0.9755696265927118  0.50137778438134  1.0000
  C   C4        1.0  0.6299071097546318  0.9627604948007176  0.4484403869427959  1.0000
  C   C5        1.0  0.5434387405360706  0.975570876560468  0.5013774502380853  1.0000
  C   C6        1.0  0.545192525926721  0.0012929498111327112  0.6076769199962088  1.0000
  C   C7        1.0  0.6337757048333234  0.014151839783051361  0.6608186904461342  1.0000
  C   C8        1.0  0.4561807109688488  0.01448348370256381  0.6621880240470585  1.0000
  N   N2        1.0  0.38462446358759184  0.025087762462431946  0.706011983564895  1.0000
  H   H1        1.0  0.7848375960200374  0.9654478091749462  0.45955013791280375  1.0000
  H   H2        1.0  0.6284113784106525  0.9428910682795195  0.36632868520408435  1.0000
  H   H3        1.0  0.4753813148991912  0.965450059655302  0.45954955624202687  1.0000
  H   H4        1.0  0.6352744695975495  0.034061495769669874  0.7430973508801328  1.0000
  C   C9        1.0  0.13539293766666116  0.712365478445197  0.7439151690717618  1.0000
  C   C10       1.0  0.18621381915628787  0.6964539421968488  0.8416328899585577  1.0000
  C   C11       1.0  0.23007523134460506  0.5984431091015605  0.8716864584713302  1.0000
  C   C12       1.0  0.2233796309213001  0.5151341983442234  0.8050411314535854  1.0000
  C   C13       1.0  0.17158629362364947  0.5288737590637208  0.707944812106345  1.0000
  C   C14       1.0  0.1289363353926707  0.6280135522492727  0.67711432573702  1.0000
  C   C15       1.0  0.166356282516686  0.4421081612090621  0.6354717232843268  1.0000
  N   N3        1.0  0.1975824290653867  0.46365924931838975  0.5341201449636066  1.0000
  C   C16       1.0  0.20066072288389455  0.3884291415953179  0.4627380277567357  1.0000
  C   C17       1.0  0.1721636109287612  0.2844747636974133  0.49240276437955954  1.0000
  C   C18       1.0  0.1388170478674533  0.2592917560904402  0.5950359711987114  1.0000
  C   C19       1.0  0.13381434531630057  0.3378027646106708  0.6681188752654921  1.0000
  H   H5        1.0  0.06538314486245955  0.9711909025577806  0.7574937589447681  1.0000
  H   H6        1.0  0.19250630357333898  0.75981561824227  0.8947102666689959  1.0000
  H   H7        1.0  0.26970222126008925  0.5871691728694893  0.9467086672034783  1.0000
  H   H8        1.0  0.258812839636015  0.4400686909676256  0.8288963514072935  1.0000
  H   H9        1.0  0.09022020391258456  0.6388337561172229  0.6013707821585422  1.0000
  H   H10       1.0  0.22605669641069545  0.4092871690891682  0.38311541381779035  1.0000
  H   H11       1.0  0.17496342348950902  0.22404932725272952  0.43596100017706463  1.0000
  H   H12       1.0  0.11482603564734739  0.17870435720152575  0.6164482956026034  1.0000
  H   H13       1.0  0.062084294058434304  0.18253277163234946  0.8872547965466417  1.0000
  C   C20       1.0  0.12900052520421634  0.9877142060008429  0.39912433988829443  1.0000
  C   C21       1.0  0.1626719560587384  0.8823103228221769  0.4000366500902518  1.0000
  C   C22       1.0  0.20087299504266914  0.8446569368955789  0.30824286074376994  1.0000
  C   C23       1.0  0.20549125464118204  0.9113577893411471  0.2144926771138533  1.0000
  C   C24       1.0  0.17075601304078325  0.01633163286163608  0.21146748813859184  1.0000
  C   C25       1.0  0.13388070879929015  0.05452346149476894  0.3043162265145198  1.0000
  C   C26       1.0  0.17780122484019975  0.08848455738794558  0.11342345394474429  1.0000
  N   N4        1.0  0.22566689800979542  0.18224062901543836  0.12062528717918196  1.0000
  C   C27       1.0  0.24072301121096112  0.25178124762253806  0.03459046644957131  1.0000
  C   C28       1.0  0.20762031925958735  0.22792971216640212  0.9341210051485325  1.0000
  C   C29       1.0  0.1574474260875678  0.13330823459177502  0.9234049338355343  1.0000
  C   C30       1.0  0.14020675946274608  0.06245399921363525  0.012909750519161538  1.0000
  H   H14       1.0  0.057661518564919634  0.9873617689521595  0.6574407743323626  1.0000
  H   H15       1.0  0.15994079774086334  0.8290108136458446  0.47174938281972945  1.0000
  H   H16       1.0  0.22732528150125253  0.7636207249326737  0.30990779809800467  1.0000
  H   H17       1.0  0.2364230770213208  0.8813555173133135  0.14438475415458352  1.0000
  H   H18       1.0  0.10844837063746464  0.13609925393703248  0.3021208200709162  1.0000
  H   H19       1.0  0.27917930077603287  0.32527634183098353  0.04420762184481196  1.0000
  H   H20       1.0  0.2198860005587755  0.28284754566414955  0.865165760381454  1.0000
  H   H21       1.0  0.13017880318114483  0.11672654862948637  0.8452065873244762  1.0000
  H   H22       1.0  0.032557423978921696  0.8605224143425589  0.8885090100753259  1.0000
  Zn  Zn1       1.0  0.028877445100560006  0.02508549446978472  0.7060184287226132  1.0000
  Zn  Zn2       1.0  0.24032058031922476  0.025082159638216913  0.7060152380654574  1.0000
  C   C31       1.0  0.13809708443063504  0.04408417433822142  0.8974052962198307  1.0000
  C   C32       1.0  0.1311032484229404  0.006084835892645969  0.5146283102691751  1.0000
  C   C33       1.0  0.13403172291260645  0.21907468017761617  0.6782814909862382  1.0000
  C   C34       1.0  0.13516854203679673  0.8310930573900017  0.7337523262765381  1.0000
  O   O1        1.0  0.21205052114036183  0.012244275639729196  0.5533918500673759  1.0000
  O   O2        1.0  0.21763025541819592  0.037921363525384805  0.8586391313078817  1.0000
  O   O3        1.0  0.21434636272408825  0.17922854238702393  0.6816949740689022  1.0000
  O   O4        1.0  0.21533434023338455  0.870937094855582  0.7303359280255193  1.0000
  O   O5        1.0  0.0538636130311323  0.17923055925404754  0.6816977387580024  1.0000
  O   O6        1.0  0.05714750147414449  0.03792465305728566  0.8586416852186637  1.0000
  O   O7        1.0  0.05156774441389335  0.01224737506183304  0.5533931519953148  1.0000
  O   O8        1.0  0.05485156495273302  0.8709401962018218  0.7303373092297452  1.0000
