data_image0
_chemical_formula_structural       NC5NC4H6C6H4C12H9Zn2C4O8
_chemical_formula_sum              "N2 C31 H19 Zn2 O8"
_cell_length_a       13.854160002989762
_cell_length_b       10.681118228259553
_cell_length_c       14.994061290378351
_cell_angle_alpha    85.558233291821
_cell_angle_beta     89.9916258617079
_cell_angle_gamma    89.99830476723527

_space_group_name_H-M_alt    "P 1"
_space_group_IT_number       1

loop_
  _space_group_symop_operation_xyz
  'x, y, z'

loop_
  _atom_site_type_symbol
  _atom_site_label
  _atom_site_symmetry_multiplicity
  _atom_site_fract_x
  _atom_site_fract_y
  _atom_site_fract_z
  _atom_site_occupancy
  N   N1        1.0  0.9090331930482454  0.37059093447547276  0.016003606286340788  1.0000
  C   C1        1.0  0.8367057912768658  0.3924854597725107  0.9794640798610046  1.0000
  C   C2        1.0  0.7467294854495556  0.419722843115637  0.9340075098986846  1.0000
  C   C3        1.0  0.6591518354439094  0.3941188976657324  0.9783918192617689  1.0000
  C   C4        1.0  0.5715870730802896  0.41972285555919464  0.934007495558894  1.0000
  C   C5        1.0  0.4815976499064328  0.3924853318474475  0.9794641365581032  1.0000
  N   N2        1.0  0.40925962245168607  0.37059087933935086  0.01600360623209318  1.0000
  C   C6        1.0  0.5716325812138555  0.47145730288739895  0.8452506229769639  1.0000
  C   C7        1.0  0.6591774660106907  0.4989282644087003  0.8008023230377457  1.0000
  C   C8        1.0  0.6591914464052867  0.550872555272941  0.7049356972487537  1.0000
  C   C9        1.0  0.7467096702583876  0.471457301740178  0.84525056710993  1.0000
  H   H1        1.0  0.6591419198752804  0.3539808008082803  0.04708800781193134  1.0000
  H   H2        1.0  0.503764628815022  0.490377305496883  0.8108131169474797  1.0000
  H   H3        1.0  0.7240466930109242  0.6100592407057115  0.6902164404792304  1.0000
  H   H4        1.0  0.5943382153458419  0.610059242332845  0.6902164807558029  1.0000
  H   H5        1.0  0.6592002861853001  0.4722706264184806  0.6606548328071391  1.0000
  H   H6        1.0  0.8145875879031533  0.4903774031728514  0.8108130640840536  1.0000
  C   C10       1.0  0.15915104266026625  0.0028408975900173807  0.016007455526481973  1.0000
  C   C11       1.0  0.2015127247238639  0.9283233201968055  0.08685368748909295  1.0000
  C   C12       1.0  0.20151270997312687  0.797441082023491  0.0868536467034311  1.0000
  C   C13       1.0  0.15915102644854096  0.7383313015444984  0.016007494090083844  1.0000
  C   C14       1.0  0.11682441154161927  0.8128374755927211  0.9452198076175118  1.0000
  C   C15       1.0  0.11682442624473952  0.9437297336893641  0.945219843823857  1.0000
  H   H7        1.0  0.234717866903844  0.9710955610550929  0.1423862800553426  1.0000
  H   H8        1.0  0.23471774823365021  0.7425915324603215  0.14238626429733692  1.0000
  H   H9        1.0  0.08361493987390699  0.7701107782282457  0.8896799642100921  1.0000
  H   H10       1.0  0.08361491457414824  0.9985352172625837  0.8896799569563194  1.0000
  C   C16       1.0  0.15919184619324533  0.37060199928694715  0.7540407773283326  1.0000
  C   C17       1.0  0.21182717403404383  0.2798381740591327  0.7114457875033513  1.0000
  C   C18       1.0  0.21177702840562593  0.27978921430201886  0.6182276684018704  1.0000
  C   C19       1.0  0.15917486128312805  0.370536270682561  0.5655471570745634  1.0000
  C   C20       1.0  0.10659379167968702  0.46129336075714433  0.6082420249499225  1.0000
  C   C21       1.0  0.1065781074948113  0.46127967330248665  0.701467170377021  1.0000
  C   C22       1.0  0.1591518898877674  0.37052729176984367  0.46647379089761265  1.0000
  C   C23       1.0  0.16462421271947297  0.483953081587345  0.41252080647370626  1.0000
  C   C24       1.0  0.16464328930455238  0.4839530048354606  0.3192963544257015  1.0000
  C   C25       1.0  0.15911022001085692  0.3705701413940756  0.27797420191242783  1.0000
  C   C26       1.0  0.1535954039861406  0.2570999470260678  0.3318301993024604  1.0000
  C   C27       1.0  0.15365767555400242  0.2570949448448707  0.4250513069843693  1.0000
  H   H11       1.0  0.25332671849947097  0.2089143154556823  0.7501164430341554  1.0000
  H   H12       1.0  0.2540123619726069  0.20965390528925565  0.5872897259459413  1.0000
  H   H13       1.0  0.06434328291027258  0.5314184160416424  0.5695825200623033  1.0000
  H   H14       1.0  0.06508747981534779  0.5322223655859613  0.7322949814162576  1.0000
  H   H15       1.0  0.17020692480055588  0.5727559862671727  0.44241734602959015  1.0000
  H   H16       1.0  0.16924590432789527  0.5728940691214008  0.2796529900466713  1.0000
  H   H17       1.0  0.16457178589670435  0.4853198960727834  0.05885075550147678  1.0000
  H   H18       1.0  0.14897744830330661  0.1681681562424811  0.30197358384957423  1.0000
  H   H19       1.0  0.14809194314827479  0.16829419210920182  0.4647525792130336  1.0000
  Zn  Zn1       1.0  0.053387739838290475  0.37058756544431737  0.016008763411459404  1.0000
  Zn  Zn2       1.0  0.26490507569539967  0.3705840001003913  0.01600577554492366  1.0000
  C   C28       1.0  0.1591234873404359  0.3655872617743494  0.1789395410046454  1.0000
  C   C29       1.0  0.15917163794228184  0.37558588382959024  0.8530750854773643  1.0000
  C   C30       1.0  0.1591466055925501  0.5993081497861397  0.01245260136929782  1.0000
  C   C31       1.0  0.15914844750673174  0.14186349123289954  0.01956207267446519  1.0000
  O   O1        1.0  0.23943458249477456  0.3772517045666566  0.886310770101695  1.0000
  O   O2        1.0  0.23939730656553726  0.36391779030332416  0.14570133185955536  1.0000
  O   O3        1.0  0.23941489262765048  0.5526503631387802  0.011261950196645778  1.0000
  O   O4        1.0  0.2394169242665442  0.1885191406949429  0.020750084877844358  1.0000
  O   O5        1.0  0.07887581908666053  0.5526524248523466  0.011264454074865874  1.0000
  O   O6        1.0  0.07885823302749848  0.36392135660437075  0.14570378817234897  1.0000
  O   O7        1.0  0.07889550918804852  0.3772552272930152  0.8863121538703822  1.0000
  O   O8        1.0  0.07887785094545038  0.18852265446013883  0.02075153552961928  1.0000
