data_image0
_chemical_formula_structural       NC8NC6H8C7ClCClC6H10C3SC7H8Zn2C4O8
_chemical_formula_sum              "N2 C42 H26 Cl2 S1 Zn2 O8"
_cell_length_a       11.044818498471832
_cell_length_b       17.25489619101054
_cell_length_c       14.419439910470985
_cell_angle_alpha    84.17628770622218
_cell_angle_beta     91.8597406165982
_cell_angle_gamma    90.39920033444918

_space_group_name_H-M_alt    "P 1"
_space_group_IT_number       1

loop_
  _space_group_symop_operation_xyz
  'x, y, z'

loop_
  _atom_site_type_symbol
  _atom_site_label
  _atom_site_symmetry_multiplicity
  _atom_site_fract_x
  _atom_site_fract_y
  _atom_site_fract_z
  _atom_site_occupancy
  N   N1        1.0  0.10537446853101048  0.8586673088809708  0.9615660989968078  1.0000
  C   C1        1.0  0.048960727178187786  0.897869861226972  0.9065862225366873  1.0000
  C   C2        1.0  0.9785688585774563  0.946787576393413  0.8379812461601641  1.0000
  C   C3        1.0  0.03895007726541187  0.9948995644770625  0.7701773084821468  1.0000
  C   C4        1.0  0.9735204862859028  0.04291277206039146  0.702837088474104  1.0000
  C   C5        1.0  0.8462458962554228  0.04368854877685257  0.7021879649141476  1.0000
  C   C6        1.0  0.7857494821943884  0.9952915914692836  0.7703789748031773  1.0000
  C   C7        1.0  0.8510182913286873  0.9469650453777373  0.838073796786911  1.0000
  C   C8        1.0  0.7854169642146889  0.8979723450522542  0.9066481656614975  1.0000
  N   N2        1.0  0.7328394632403541  0.8587162822693725  0.961595564037838  1.0000
  C   C9        1.0  0.7767561769383168  0.0948293808709728  0.6305985778180816  1.0000
  C   C10       1.0  0.6741506247967982  0.13532029428786974  0.654959228061462  1.0000
  C   C11       1.0  0.6089443081993924  0.18344350124695039  0.5874259335200522  1.0000
  C   C12       1.0  0.6452055167305634  0.19167072602782234  0.49504556285841406  1.0000
  C   C13       1.0  0.7468098285499857  0.15180968840257636  0.46998963433927177  1.0000
  C   C14       1.0  0.8124128901263714  0.10364953722067562  0.5372404999026648  1.0000
  H   H1        1.0  0.13703340812298356  0.9954761046622079  0.7694764651799761  1.0000
  H   H2        1.0  0.02262482977779379  0.08025822120572723  0.651967525195118  1.0000
  H   H3        1.0  0.6875917731084332  0.9943518008546665  0.7701498568902886  1.0000
  H   H4        1.0  0.6453215939836879  0.130591837556959  0.7263752545920401  1.0000
  H   H5        1.0  0.5303902083287487  0.21454331976539812  0.6068133260099651  1.0000
  H   H6        1.0  0.5945789836180805  0.22893617352475612  0.4428803517081679  1.0000
  H   H7        1.0  0.7746312543415169  0.15806689988719058  0.3983208607007316  1.0000
  H   H8        1.0  0.8899788303581635  0.0725416473066689  0.5160272624036839  1.0000
  C   C15       1.0  0.4168223640807771  0.6307513087099612  0.9652601876585165  1.0000
  C   C16       1.0  0.4751030179522932  0.5871300284476272  0.04135389926954758  1.0000
  C   C17       1.0  0.46952704848107085  0.5057623155587481  0.05023568204306761  1.0000
  C   C18       1.0  0.4067254520704511  0.46658284437306186  0.9828719682062728  1.0000
  C   C19       1.0  0.3470207467138393  0.5099299759027275  0.9075314058096947  1.0000
  C   C20       1.0  0.3524941528582346  0.5912950700181379  0.8985520474903892  1.0000
  C   C21       1.0  0.3992964212901382  0.3806382274631923  0.9942126260028981  1.0000
  Cl  Cl1       1.0  0.3320392654543356  0.33788239962615296  0.09654392667796285  1.0000
  C   C22       1.0  0.4389959964612388  0.33673707835610805  0.9290368100156625  1.0000
  Cl  Cl2       1.0  0.5062532393256411  0.3794928544402333  0.8267054392801281  1.0000
  C   C23       1.0  0.4315653925967888  0.25079259331758447  0.9403766310532122  1.0000
  C   C24       1.0  0.49127016334780627  0.20744511696549087  0.015714539909565617  1.0000
  C   C25       1.0  0.4857853397729972  0.12608341694434136  0.024677797069825314  1.0000
  C   C26       1.0  0.4214034271468996  0.08662623102425601  0.9579095666474999  1.0000
  C   C27       1.0  0.36317199826702407  0.13024313230136436  0.8818784970249482  1.0000
  C   C28       1.0  0.36876058152283253  0.2116135164656079  0.8730117328774054  1.0000
  H   H9        1.0  0.3676204196448187  0.818552599652696  0.8726610400428179  1.0000
  H   H10       1.0  0.524917314423776  0.615836594340765  0.09412435438500899  1.0000
  H   H11       1.0  0.5149543317245098  0.47326386778332674  0.10941997743164779  1.0000
  H   H12       1.0  0.2955715566554083  0.4807251655447422  0.8560135690992907  1.0000
  H   H13       1.0  0.30593919003985004  0.6232262633180554  0.8395461235980934  1.0000
  H   H14       1.0  0.5427219711508882  0.23664429578643834  0.06723576463769954  1.0000
  H   H15       1.0  0.5323301339671578  0.09411895832522808  0.0836764867662918  1.0000
  H   H16       1.0  0.31335024450159543  0.10157052305634102  0.8290943445285036  1.0000
  H   H17       1.0  0.32333484933152934  0.24411747948880308  0.8138306084708264  1.0000
  H   H18       1.0  0.34674699039186346  0.9030256459942922  0.9060959498019512  1.0000
  C   C29       1.0  0.40760486947326313  0.8611086483991892  0.6887578177665099  1.0000
  C   C30       1.0  0.4542088958259232  0.8510761556613535  0.6011881571548876  1.0000
  C   C31       1.0  0.371496555178538  0.8687294329759606  0.5269093392324149  1.0000
  S   S1        1.0  0.24155224142437176  0.8967925648262838  0.5716863417551286  1.0000
  C   C32       1.0  0.28821581801020546  0.8867175483346053  0.684181026230845  1.0000
  C   C33       1.0  0.39243791011368945  0.8642913722960129  0.42630070428738476  1.0000
  C   C34       1.0  0.3091562982435698  0.8977039871933025  0.3581331123339824  1.0000
  C   C35       1.0  0.3280615583864261  0.8938194894760788  0.26334504379749535  1.0000
  C   C36       1.0  0.4306209126319127  0.8562688934997654  0.23441194845255064  1.0000
  C   C37       1.0  0.5137391584955227  0.8226355946825042  0.3022529826353795  1.0000
  C   C38       1.0  0.4949155921054382  0.8265340857197927  0.3970703043547177  1.0000
  H   H19       1.0  0.4731373540376919  0.8477826917103995  0.9224356480731148  1.0000
  H   H20       1.0  0.5460869646593013  0.8322822962927988  0.5930418114661136  1.0000
  H   H21       1.0  0.23444537333925952  0.8983695511157954  0.7425819526976107  1.0000
  H   H22       1.0  0.22936399580661293  0.9274185869707906  0.3777056081020216  1.0000
  H   H23       1.0  0.2622585736750491  0.9203298466925185  0.21272062621096555  1.0000
  H   H24       1.0  0.5934606890180423  0.7930396054036736  0.28219198758695985  1.0000
  H   H25       1.0  0.5604855439491566  0.7991187111735677  0.44697678512996375  1.0000
  H   H26       1.0  0.5677774185588546  0.811371670252836  0.037728895842994215  1.0000
  Zn  Zn1       1.0  0.28644751419481135  0.8586793178598271  0.9615799959813183  1.0000
  Zn  Zn2       1.0  0.5517666408487534  0.8586978610597066  0.9615893634669876  1.0000
  C   C39       1.0  0.4262366007436886  0.8540914598009263  0.1313215056483198  1.0000
  C   C40       1.0  0.4119804652646175  0.8632866978991021  0.7918479292985814  1.0000
  C   C41       1.0  0.42037509542131946  0.0004890117185720827  0.9555967517583397  1.0000
  C   C42       1.0  0.41784187277005014  0.7168882129582893  0.9675727477549256  1.0000
  O   O1        1.0  0.5141361469975091  0.864021321897799  0.826449521982667  1.0000
  O   O2        1.0  0.525451979909094  0.8533703264635137  0.09672676466564467  1.0000
  O   O3        1.0  0.5207174236689391  0.9715881924234108  0.9548277695560685  1.0000
  O   O4        1.0  0.518870609819683  0.7458034621021131  0.968348447338762  1.0000
  O   O5        1.0  0.3193434546832872  0.9715737168119811  0.9548209121014468  1.0000
  O   O6        1.0  0.3240780181997851  0.8533567838698116  0.09671984263656153  1.0000
  O   O7        1.0  0.31276213798079405  0.8640077621625044  0.8264414833810743  1.0000
  O   O8        1.0  0.31749660368035476  0.7457898961971677  0.9683404784825533  1.0000
