data_image0
_chemical_formula_structural       NC8NC6H8C7OH6C6NH7Zn2C4O8
_chemical_formula_sum              "N3 C31 H21 O9 Zn2"
_cell_length_a       17.457602349358154
_cell_length_b       9.274078303013077
_cell_length_c       9.274774538082514
_cell_angle_alpha    85.24273556262948
_cell_angle_beta     93.23827242343725
_cell_angle_gamma    91.09880916489897

_space_group_name_H-M_alt    "P 1"
_space_group_IT_number       1

loop_
  _space_group_symop_operation_xyz
  'x, y, z'

loop_
  _atom_site_type_symbol
  _atom_site_label
  _atom_site_symmetry_multiplicity
  _atom_site_fract_x
  _atom_site_fract_y
  _atom_site_fract_z
  _atom_site_occupancy
  N   N1        1.0  0.7086989862062887  0.625786372924543  0.47737750073972945  1.0000
  C   C1        1.0  0.647857038582931  0.5749071775746603  0.46544537917032947  1.0000
  C   C2        1.0  0.5721670734541777  0.5116197112645602  0.45061244322410055  1.0000
  C   C3        1.0  0.5136723967831649  0.5554906067897141  0.5339843264897979  1.0000
  C   C4        1.0  0.43941008686141975  0.4945487159997304  0.5198404745219214  1.0000
  C   C5        1.0  0.37732728395735976  0.5408676543342055  0.608134094318876  1.0000
  C   C6        1.0  0.3024658420341071  0.5618984768657329  0.5461999048779287  1.0000
  C   C7        1.0  0.2439726587311218  0.6055641775381642  0.6296912631525174  1.0000
  C   C8        1.0  0.16766132090823335  0.6272885807955539  0.5652960877287431  1.0000
  N   N2        1.0  0.10631996054231621  0.6447479176937954  0.5135225163116536  1.0000
  C   C9        1.0  0.25984916194957924  0.6284641286141888  0.7756827794133818  1.0000
  C   C10       1.0  0.3339249913779055  0.6078614254112119  0.8380489403880876  1.0000
  C   C11       1.0  0.39240716859626584  0.5643912492421137  0.7550669043557889  1.0000
  C   C12       1.0  0.42492990556948773  0.3889975599918916  0.42072995429941906  1.0000
  C   C13       1.0  0.4834126612424468  0.345432218235209  0.33780351617404136  1.0000
  C   C14       1.0  0.5568915472063235  0.406493629635289  0.3525590182814522  1.0000
  H   H1        1.0  0.5258104368042469  0.6383283975212743  0.6082669820628801  1.0000
  H   H2        1.0  0.2898367583882582  0.5462495697018859  0.4327458672873341  1.0000
  H   H3        1.0  0.21501884931393714  0.662187189581307  0.8411736133253412  1.0000
  H   H4        1.0  0.34602967411293073  0.6252429842414413  0.9510925226806005  1.0000
  H   H5        1.0  0.4491513828289567  0.5473114001190389  0.8062762030265993  1.0000
  H   H6        1.0  0.36867757446206956  0.33877327838586524  0.40875937474059426  1.0000
  H   H7        1.0  0.4717773598328295  0.2638451561524413  0.2621919976299172  1.0000
  H   H8        1.0  0.6017289810614674  0.3718002913793672  0.2876338622267074  1.0000
  C   C15       1.0  0.9097957012296436  0.21191997127762272  0.4943636925193181  1.0000
  C   C16       1.0  0.8945313906383889  0.2957901034392698  0.3626970278032753  1.0000
  C   C17       1.0  0.8726542938700874  0.23073547662579805  0.23535884193534654  1.0000
  C   C18       1.0  0.8658373714671104  0.07972454424084763  0.23958879456274573  1.0000
  C   C19       1.0  0.8819562120012236  0.9948599378916916  0.3686472067672102  1.0000
  C   C20       1.0  0.9052306923019224  0.058603415671994785  0.4965494871189795  1.0000
  C   C21       1.0  0.8564052717833683  0.3220471778137999  0.09956657592956235  1.0000
  O   O1        1.0  0.8363100304270626  0.26678629358770634  0.9834691801680138  1.0000
  H   H9        1.0  0.9086069277348171  0.2853988267523042  0.8495866627490425  1.0000
  H   H10       1.0  0.8979529225458159  0.41284596867630935  0.35989532233802235  1.0000
  H   H11       1.0  0.8487403818641044  0.026886814589607518  0.1427589267914955  1.0000
  H   H12       1.0  0.877954416935431  0.8782386741292336  0.3675114148792542  1.0000
  H   H13       1.0  0.9077871318579459  0.7577579139061137  0.7354584446237444  1.0000
  H   H14       1.0  0.8616967556494212  0.43862729618249047  0.09853109850498122  1.0000
  C   C22       1.0  0.9061163796596013  0.6388832528058481  0.07152460635501545  1.0000
  C   C23       1.0  0.9600230479997502  0.7265497671820331  0.1434227204043117  1.0000
  C   C24       1.0  0.01743582805559485  0.8025050315147866  0.06810164760455417  1.0000
  C   C25       1.0  0.021408338566093046  0.7911480901388537  0.9194498886945703  1.0000
  C   C26       1.0  0.96773070203814  0.7066691049294161  0.8458797867598661  1.0000
  C   C27       1.0  0.9089099934781402  0.6316401162502033  0.9193885291963865  1.0000
  N   N3        1.0  0.07222437804873616  0.8900129852838715  0.1430845565637402  1.0000
  H   H15       1.0  0.7929517793911799  0.35159876512274435  0.18629225888895398  1.0000
  H   H16       1.0  0.9586051089162508  0.7333212169819616  0.25933495652585425  1.0000
  H   H17       1.0  0.06573971507744328  0.8489756947833456  0.8601200692583494  1.0000
  H   H18       1.0  0.9711736087990507  0.7028221631981729  0.7300073906625427  1.0000
  H   H19       1.0  0.8303096470835999  0.4424203161441473  0.6455921684326296  1.0000
  H   H20       1.0  0.06994764437685608  0.8989472180509014  0.25427528647439646  1.0000
  H   H21       1.0  0.11545445676962007  0.9466541001923254  0.08793982804155201  1.0000
  Zn  Zn1       1.0  0.8234438586546321  0.6312543278927794  0.4878164968204656  1.0000
  Zn  Zn2       1.0  0.9915751765155294  0.6392680419014829  0.5030953088984131  1.0000
  C   C28       1.0  0.9084111983967217  0.6272660137539123  0.7591091133862258  1.0000
  C   C29       1.0  0.9066096634217188  0.6432582613265038  0.2318030055650764  1.0000
  C   C30       1.0  0.9060706611515511  0.8986111947495888  0.4903831817059112  1.0000
  C   C31       1.0  0.9089501528876255  0.37191134488929256  0.5005290045265057  1.0000
  O   O2        1.0  0.9705802067731506  0.647761427469062  0.29139211382226304  1.0000
  O   O3        1.0  0.9720484395023383  0.6288439871060127  0.711115851591473  1.0000
  O   O4        1.0  0.9701575709012988  0.8479585985684094  0.4941176861847512  1.0000
  O   O5        1.0  0.9724710175901105  0.4286468245096382  0.5083901657997214  1.0000
  O   O6        1.0  0.8425479602050502  0.841875542551572  0.4825216346976589  1.0000
  O   O7        1.0  0.8444388192103527  0.6227626637976571  0.6995197276017668  1.0000
  O   O8        1.0  0.8429705810842354  0.6416800687530664  0.2797942540451772  1.0000
  O   O9        1.0  0.8448613923102742  0.4225654545576165  0.49679241423040077  1.0000
