data_image0
_chemical_formula_structural       NC8NC6H8C6NCH9C6NCOH6Zn2C4O8
_chemical_formula_sum              "N4 C32 H23 O9 Zn2"
_cell_length_a       17.457602349358154
_cell_length_b       9.273386996610926
_cell_length_c       10.299622701958448
_cell_angle_alpha    85.48537362015259
_cell_angle_beta     92.8939802036364
_cell_angle_gamma    91.0935878010965

_space_group_name_H-M_alt    "P 1"
_space_group_IT_number       1

loop_
  _space_group_symop_operation_xyz
  'x, y, z'

loop_
  _atom_site_type_symbol
  _atom_site_label
  _atom_site_symmetry_multiplicity
  _atom_site_fract_x
  _atom_site_fract_y
  _atom_site_fract_z
  _atom_site_occupancy
  N   N1        1.0  0.7131791133820599  0.6129557176760573  0.6233848282208533  1.0000
  C   C1        1.0  0.6523832178915288  0.5619485796764361  0.6128686200605886  1.0000
  C   C2        1.0  0.5767505073316361  0.4985020498057889  0.5997959865560685  1.0000
  C   C3        1.0  0.5179876603552968  0.5431327163214432  0.67460559628663  1.0000
  C   C4        1.0  0.443780047430419  0.4820388954803266  0.6621428087608856  1.0000
  C   C5        1.0  0.3814132675745627  0.5291623957051526  0.7413692994662511  1.0000
  C   C6        1.0  0.30674181696808794  0.5496518987691921  0.685566723201787  1.0000
  C   C7        1.0  0.2479801251718367  0.5940783437849695  0.760484682776823  1.0000
  C   C8        1.0  0.1718663525067628  0.6152398567919135  0.702465370105289  1.0000
  N   N2        1.0  0.1106838352784134  0.6322466282083653  0.6558180075636282  1.0000
  C   C9        1.0  0.26339631374323674  0.6182855022642764  0.8917132021683314  1.0000
  C   C10       1.0  0.33728072785213004  0.598228141570308  0.947902528921977  1.0000
  C   C11       1.0  0.3960297877686055  0.554001831318274  0.8734418938900119  1.0000
  C   C12       1.0  0.4296278458135492  0.3755615485093411  0.5734389799826058  1.0000
  C   C13       1.0  0.48837732675284484  0.33124052575993157  0.49902876436649285  1.0000
  C   C14       1.0  0.5617995831169832  0.3924593540765928  0.5120412498647683  1.0000
  H   H1        1.0  0.5298792406112979  0.6266662860625534  0.7410725860943426  1.0000
  H   H2        1.0  0.294470087185136  0.5329880492552135  0.5835762470692973  1.0000
  H   H3        1.0  0.2183554732576014  0.6526050654920061  0.9504812972138138  1.0000
  H   H4        1.0  0.3490290417881606  0.6166217413329207  0.049516380849232274  1.0000
  H   H5        1.0  0.4526168575275583  0.5373696966998633  0.9195800454301408  1.0000
  H   H6        1.0  0.3734215744073515  0.32520926450212184  0.5628853799094743  1.0000
  H   H7        1.0  0.47699242404944897  0.2489464143487239  0.43136105717559237  1.0000
  H   H8        1.0  0.6068459433886209  0.35717412263165116  0.45378615303126885  1.0000
  C   C15       1.0  0.9142939187627201  0.19906205353904707  0.6404323293520187  1.0000
  C   C16       1.0  0.9277394638447423  0.2831468661506493  0.5241087394865791  1.0000
  C   C17       1.0  0.9339630999053405  0.2189027087233462  0.40718864163140367  1.0000
  C   C18       1.0  0.9268351051813891  0.06825501325929917  0.4035974377697831  1.0000
  C   C19       1.0  0.9147411717955879  0.9832727294845044  0.5196234152647701  1.0000
  C   C20       1.0  0.9095764079452302  0.046129503053029756  0.638782381236394  1.0000
  N   N3        1.0  0.9324098781515326  0.9989420479042374  0.28419998284433823  1.0000
  C   C21       1.0  0.9451634780200038  0.07741074592458874  0.15851226366836604  1.0000
  H   H9        1.0  0.9300046434429928  0.46204783288626916  0.8549219733365248  1.0000
  H   H10       1.0  0.9316513311218513  0.3999820146607591  0.5228346607483589  1.0000
  H   H11       1.0  0.9436192408470224  0.2879409113572451  0.31976429992355726  1.0000
  H   H12       1.0  0.9111204127095738  0.8666951892725808  0.5172793116619735  1.0000
  H   H13       1.0  0.9378773832446625  0.9162576311850217  0.957393420973376  1.0000
  H   H14       1.0  0.9269876802132472  0.886312779414164  0.28645052464949794  1.0000
  H   H15       1.0  0.8976096403751478  0.15366820276770898  0.13206859614759292  1.0000
  H   H16       1.0  0.0006803553798999654  0.1376568019817421  0.1632515513307924  1.0000
  H   H17       1.0  0.9470824953244257  3.893221004447065e-05  0.08178764094521519  1.0000
  C   C22       1.0  0.9118629671385434  0.6224516443218973  0.2582448769150021  1.0000
  C   C23       1.0  0.8314315400216707  0.6296777505485649  0.24957216600589097  1.0000
  C   C24       1.0  0.7910381344519325  0.635686737138532  0.12824722905151065  1.0000
  C   C25       1.0  0.8315994148019931  0.6299951143148383  0.014413209026352684  1.0000
  C   C26       1.0  0.9120073743671767  0.6227399260906501  0.020969765281898985  1.0000
  C   C27       1.0  0.9517001603337746  0.6195891640320186  0.14335253502315792  1.0000
  N   N4        1.0  0.7086455955345659  0.640837011309458  0.12339363832057093  1.0000
  C   C28       1.0  0.6632093848246067  0.7173747675132482  0.021495320021080788  1.0000
  O   O1        1.0  0.6936427267836566  0.8022449671582175  0.9367439740976691  1.0000
  H   H18       1.0  0.799740681873648  0.6318938598174839  0.3371365043034169  1.0000
  H   H19       1.0  0.800470372320225  0.6282120950429857  0.921021510237269  1.0000
  H   H20       1.0  0.01370479655947077  0.6140373402954284  0.14916087332016037  1.0000
  H   H21       1.0  0.9428069551942708  0.6177639328227691  0.6961896923339763  1.0000
  H   H22       1.0  0.679770971461047  0.5945792824736287  0.2032019903097908  1.0000
  H   H23       1.0  0.6014027191479073  0.705377485981209  0.019360662967425227  1.0000
  Zn  Zn1       1.0  0.8278904125393299  0.6185187927763873  0.6327518490596382  1.0000
  Zn  Zn2       1.0  0.9959725897413547  0.6266717319103337  0.646461642106434  1.0000
  C   C29       1.0  0.9120103662533958  0.6169395903940456  0.8768095170606567  1.0000
  C   C30       1.0  0.911854461368658  0.6282528431827643  0.4024042477354775  1.0000
  C   C31       1.0  0.9104632029370268  0.8860135913295449  0.6339188303691692  1.0000
  C   C32       1.0  0.9134015769939561  0.3591771066563443  0.6452950023615585  1.0000
  O   O2        1.0  0.975637952077907  0.633287484188886  0.4559882567634433  1.0000
  O   O3        1.0  0.9757973648724764  0.6180917533465294  0.8336305520118649  1.0000
  O   O4        1.0  0.9745471513136507  0.835372370808954  0.6374945309582419  1.0000
  O   O5        1.0  0.9768881082057749  0.41600687422511284  0.6521241757457245  1.0000
  O   O6        1.0  0.8469748367167017  0.8291836476809777  0.6270893107350339  1.0000
  O   O7        1.0  0.8482250406083901  0.6119047630288433  0.823225259168751  1.0000
  O   O8        1.0  0.8480656278491253  0.6271004430233202  0.4455814026481064  1.0000
  O   O9        1.0  0.8493157840497428  0.40981982278026585  0.6417174190164164  1.0000
