data_image0
_chemical_formula_structural       NC8NH4C10H6C6SCH7Zn2C4O8
_chemical_formula_sum              "N2 C29 H17 S1 Zn2 O8"
_cell_length_a       13.859017981522156
_cell_length_b       9.275150299802176
_cell_length_c       9.275274088470228
_cell_angle_alpha    85.77620997522486
_cell_angle_beta     89.72577744646335
_cell_angle_gamma    89.4839203727508

_space_group_name_H-M_alt    "P 1"
_space_group_IT_number       1

loop_
  _space_group_symop_operation_xyz
  'x, y, z'

loop_
  _atom_site_type_symbol
  _atom_site_label
  _atom_site_symmetry_multiplicity
  _atom_site_fract_x
  _atom_site_fract_y
  _atom_site_fract_z
  _atom_site_occupancy
  N   N1        1.0  0.904282496749649  0.5638808038411679  0.4015101108121868  1.0000
  C   C1        1.0  0.8321700367637231  0.5562646218370935  0.34025388224229314  1.0000
  C   C2        1.0  0.7424663775541851  0.5467914601511947  0.2640591024913197  1.0000
  C   C3        1.0  0.7428712061223154  0.5283178929515372  0.11547554647326064  1.0000
  C   C4        1.0  0.6557310329157237  0.519119084332524  0.041480618137582415  1.0000
  C   C5        1.0  0.568005920622961  0.5283196137695971  0.11547528847878219  1.0000
  C   C6        1.0  0.5672361354109052  0.5467924321387527  0.26405891323526043  1.0000
  C   C7        1.0  0.6545577198987995  0.5560271639346175  0.3383395585942872  1.0000
  C   C8        1.0  0.4769302153455542  0.556265523741369  0.3402536367616529  1.0000
  N   N2        1.0  0.4043335795040167  0.5638811165854296  0.40151001545763143  1.0000
  H   H1        1.0  0.8103977796624717  0.5210484173576957  0.057009486367782136  1.0000
  H   H2        1.0  0.6561846517752851  0.5048493075781338  0.9267062129772965  1.0000
  H   H3        1.0  0.5009414926761281  0.5210515125884163  0.057009048968178044  1.0000
  H   H4        1.0  0.6541031722318453  0.5703257266552879  0.45334730900505105  1.0000
  C   C9        1.0  0.15685069072598146  0.1401983456997875  0.4039225744550321  1.0000
  C   C10       1.0  0.20794831781314982  0.2212154167223035  0.29489825103941203  1.0000
  C   C11       1.0  0.25078903870803493  0.15397826120800118  0.18033345603313955  1.0000
  C   C12       1.0  0.2429678699297551  0.004744134892960221  0.1733173377455457  1.0000
  C   C13       1.0  0.1939788990203022  0.9222770760436789  0.2816940008757973  1.0000
  C   C14       1.0  0.15177462262915964  0.987552588182695  0.3991100730700856  1.0000
  C   C15       1.0  0.3019065089362096  0.23871380459287694  0.06881640266897127  1.0000
  C   C16       1.0  0.344704733931981  0.30968245916920534  0.9754533857342031  1.0000
  C   C17       1.0  0.39481947021121333  0.392791734054839  0.8661293646656651  1.0000
  C   C18       1.0  0.4376094434969203  0.4637550763822371  0.7727842447650075  1.0000
  H   H5        1.0  0.11035115689500885  0.4046945825343766  0.6327604380058043  1.0000
  H   H6        1.0  0.21257708269274542  0.3376849191113729  0.297124487211478  1.0000
  H   H7        1.0  0.27560146370538274  0.9517574144408135  0.08466825729769711  1.0000
  H   H8        1.0  0.19104831580275072  0.8062179488459916  0.27547239388284583  1.0000
  H   H9        1.0  0.08796100730958423  0.8603322096348065  0.7415008930102642  1.0000
  H   H10       1.0  0.4751826092596251  0.5260669171779526  0.6908195196766354  1.0000
  C   C19       1.0  0.15569172312563073  0.5598551615286131  0.9783422402409534  1.0000
  C   C20       1.0  0.23755662798145893  0.6106398458448576  0.04740213822122086  1.0000
  C   C21       1.0  0.31399353452497347  0.6729191189300661  0.9669843453083304  1.0000
  C   C22       1.0  0.30984614775311314  0.6845520797985829  0.8163581513665177  1.0000
  C   C23       1.0  0.23004965709681677  0.632675279569594  0.7458015435517278  1.0000
  C   C24       1.0  0.15293362426367785  0.5678958265868558  0.8246903981884355  1.0000
  S   S1        1.0  0.4172315760146682  0.7383341968929271  0.057301155115498936  1.0000
  C   C25       1.0  0.36655447367451766  0.9189232284724221  0.06800768419995906  1.0000
  H   H11       1.0  0.9223933681979284  0.5004901861761146  0.0873841594721656  1.0000
  H   H12       1.0  0.36884621486933966  0.7328932664175452  0.7535857150473042  1.0000
  H   H13       1.0  0.2297213570561528  0.6401503232979071  0.6286996260280331  1.0000
  H   H14       1.0  0.997048819752912  0.5220407546541935  0.548036060701496  1.0000
  H   H15       1.0  0.35245951126533304  0.9693433183183986  0.9577592374248214  1.0000
  H   H16       1.0  0.2983718766146246  0.9135034950901512  0.1314040464691104  1.0000
  H   H17       1.0  0.418863203231813  0.986241516422592  0.1226246629635046  1.0000
  Zn  Zn1       1.0  0.048586439500024635  0.563877120383159  0.40151842309924235  1.0000
  Zn  Zn2       1.0  0.2600296715513353  0.5638731403089929  0.40151356065487875  1.0000
  C   C26       1.0  0.1534872381353063  0.5606282363474737  0.6647451205385309  1.0000
  C   C27       1.0  0.15513117050345282  0.5671238460731671  0.13828699426261903  1.0000
  C   C28       1.0  0.15274787907329102  0.827330065407735  0.394277266752878  1.0000
  C   C29       1.0  0.15587046754828693  0.3004202843223971  0.4087549347232935  1.0000
  O   O1        1.0  0.23518468624668087  0.569555478220608  0.19196410530192076  1.0000
  O   O2        1.0  0.23391425092767817  0.5581924910498341  0.6110639103715695  1.0000
  O   O3        1.0  0.23331612255636544  0.7735576051767927  0.39265919633938995  1.0000
  O   O4        1.0  0.2357827427570263  0.35419037338949594  0.4103687112283898  1.0000
  O   O5        1.0  0.07283329613915068  0.7735598873055127  0.39266327251980226  1.0000
  O   O6        1.0  0.07343141437246238  0.5581965058719196  0.6110678998710313  1.0000
  O   O7        1.0  0.07470185570293465  0.569559426305482  0.19196636252752297  1.0000
  O   O8        1.0  0.07529991191906518  0.35419431218138003  0.4103710765537736  1.0000
