data_image0
_chemical_formula_structural       NC9NC5H8C6NCOH7C6FH3Zn2C4O8
_chemical_formula_sum              "N3 C31 H18 O9 F1 Zn2"
_cell_length_a       17.807436237873137
_cell_length_b       10.29961932979008
_cell_length_c       9.275646106892307
_cell_angle_alpha    84.95826498639607
_cell_angle_beta     89.39821068290671
_cell_angle_gamma    88.41592915749165

_space_group_name_H-M_alt    "P 1"
_space_group_IT_number       1

loop_
  _space_group_symop_operation_xyz
  'x, y, z'

loop_
  _atom_site_type_symbol
  _atom_site_label
  _atom_site_symmetry_multiplicity
  _atom_site_fract_x
  _atom_site_fract_y
  _atom_site_fract_z
  _atom_site_occupancy
  N   N1        1.0  0.7074477148689446  0.4031362360981978  0.39660205127772796  1.0000
  C   C1        1.0  0.6468485070476526  0.36806476605057176  0.3843465703608935  1.0000
  C   C2        1.0  0.5714697529327823  0.32443971976569475  0.3691020827923637  1.0000
  C   C3        1.0  0.5533359765538485  0.2541467742935175  0.2523979121371189  1.0000
  C   C4        1.0  0.48014704837529015  0.2116796055845844  0.23750465477785207  1.0000
  C   C5        1.0  0.4240430721695981  0.23912820525263334  0.3392794605632439  1.0000
  C   C6        1.0  0.34626215684504685  0.1941105805378216  0.32354301206253927  1.0000
  C   C7        1.0  0.2841130095919122  0.27558851134918516  0.35237963599442335  1.0000
  C   C8        1.0  0.2107817266285944  0.23291816178969915  0.3375015607527858  1.0000
  C   C9        1.0  0.1475832745637136  0.31708351614243896  0.3667429118974368  1.0000
  N   N2        1.0  0.0967847057068741  0.38474662647588204  0.39025215017735126  1.0000
  C   C10       1.0  0.19901597298067322  0.1085121762699428  0.29375866013880225  1.0000
  C   C11       1.0  0.2603077448998941  0.02702048295045367  0.2649127106706819  1.0000
  C   C12       1.0  0.3335194471099634  0.06929846006666553  0.27956564846808374  1.0000
  C   C13       1.0  0.442868431624228  0.30991316870391805  0.4562273297918004  1.0000
  C   C14       1.0  0.5161101462756473  0.35219160775610514  0.47094758154632954  1.0000
  H   H1        1.0  0.5957088304712412  0.2324274820158736  0.17269653508572436  1.0000
  H   H2        1.0  0.4672017527272139  0.1588834198988991  0.14534399161196987  1.0000
  H   H3        1.0  0.2926424440448312  0.3727435228545324  0.38448331481799847  1.0000
  H   H4        1.0  0.1425396687169015  0.07458979104589723  0.2819801258009669  1.0000
  H   H5        1.0  0.2510799087925998  0.9306983723626991  0.23147503061290517  1.0000
  H   H6        1.0  0.3801388130305882  0.0037578564653693077  0.25838867168893365  1.0000
  H   H7        1.0  0.40121260964552613  0.3310796012043431  0.5373673041620823  1.0000
  H   H8        1.0  0.5295838748973717  0.4062194788660431  0.5619507551050076  1.0000
  C   C15       1.0  0.9020201485511463  0.012577857216987445  0.39339111860657305  1.0000
  C   C16       1.0  0.8657574455557108  0.023677590180007244  0.25890020021408944  1.0000
  C   C17       1.0  0.8486060369806198  0.9124987824658  0.19011666098165425  1.0000
  C   C18       1.0  0.8659811979711752  0.7885074988498448  0.25900765947147897  1.0000
  C   C19       1.0  0.9022194195012562  0.7752946175366052  0.3934755254301725  1.0000
  C   C20       1.0  0.9203000247598184  0.8879573636420416  0.45962997719089804  1.0000
  N   N3        1.0  0.8104560149796572  0.9276951277151334  0.05352080858013218  1.0000
  C   C21       1.0  0.8222451797944786  0.8435489982220982  0.9397645043969008  1.0000
  O   O1        1.0  0.87498813074652  0.7592751940667039  0.9449719008114772  1.0000
  H   H9        1.0  0.9697090451580579  0.19886897849495241  0.6478067605669009  1.0000
  H   H10       1.0  0.8511883691958559  0.11897521718123903  0.20623839574014835  1.0000
  H   H11       1.0  0.8499066115258509  0.7023521407016552  0.20934419690273676  1.0000
  H   H12       1.0  0.9482633688964839  0.8785248321378352  0.563299279321517  1.0000
  H   H13       1.0  0.9151215546508973  0.4427421719675952  0.4461278162398789  1.0000
  H   H14       1.0  0.7756775605945452  0.010163523381002236  0.030712536606801285  1.0000
  H   H15       1.0  0.7865620358268438  0.8550138502923958  0.8455677504814865  1.0000
  C   C22       1.0  0.9020334264604927  0.3980050779827118  0.969594738583039  1.0000
  C   C23       1.0  0.9708238010999475  0.40832915364983013  0.040535221679239834  1.0000
  C   C24       1.0  0.038679789302453305  0.40650317298648203  0.9639828727133506  1.0000
  C   C25       1.0  0.03893707180507368  0.39419070367533027  0.8156010089045503  1.0000
  C   C26       1.0  0.9713244931856422  0.3859763758198053  0.7427096064239032  1.0000
  C   C27       1.0  0.9022061400508702  0.38986738308245755  0.8172718707112794  1.0000
  F   F1        1.0  0.10447233754900755  0.41512053363266305  0.03434639725009614  1.0000
  H   H16       1.0  0.72780433189653  0.3007254992397201  0.08557709399205103  1.0000
  H   H17       1.0  0.09161868038960574  0.39224568871224336  0.7564265040781412  1.0000
  H   H18       1.0  0.7842543847869327  0.3297458794041783  0.5443422906315035  1.0000
  Zn  Zn1       1.0  0.8198019598854873  0.39782584662977705  0.39477795380450154  1.0000
  Zn  Zn2       1.0  0.9844304421450194  0.39004631601492407  0.39208811205045313  1.0000
  C   C28       1.0  0.9021704880048482  0.38623204148047474  0.6570421988409703  1.0000
  C   C29       1.0  0.9020637122206  0.4016416734477364  0.12982397948351654  1.0000
  C   C30       1.0  0.90217673632107  0.631180284011146  0.3877081235823001  1.0000
  C   C31       1.0  0.9020574073361629  0.15669187255313144  0.39915813243655585  1.0000
  O   O2        1.0  0.9645495259668618  0.3999041911227226  0.1825775948877153  1.0000
  O   O3        1.0  0.964633882709125  0.3820640643552775  0.602246640197839  1.0000
  O   O4        1.0  0.9646380864076652  0.5798628933830947  0.3847574827533897  1.0000
  O   O5        1.0  0.9645452660721465  0.20210537507851756  0.4000666450326378  1.0000
  O   O6        1.0  0.8396870797787374  0.5857667902224422  0.3867994217326365  1.0000
  O   O7        1.0  0.83968287646879  0.3879695222148176  0.6042885023930364  1.0000
  O   O8        1.0  0.8395985194110455  0.4058096203833132  0.18461772179714364  1.0000
  O   O9        1.0  0.8395942595328828  0.20801079401175437  0.40210688015191254  1.0000
