data_image0
_chemical_formula_structural       NC11NC3H8C12NCOCH13C13F3H9Zn2C4O8
_chemical_formula_sum              "N3 C45 H30 O9 F3 Zn2"
_cell_length_a       17.807433833752565
_cell_length_b       10.299155265289649
_cell_length_c       10.2985328690268
_cell_angle_alpha    85.56203192291568
_cell_angle_beta     88.52982223362811
_cell_angle_gamma    90.66237101144993

_space_group_name_H-M_alt    "P 1"
_space_group_IT_number       1

loop_
  _space_group_symop_operation_xyz
  'x, y, z'

loop_
  _atom_site_type_symbol
  _atom_site_label
  _atom_site_symmetry_multiplicity
  _atom_site_fract_x
  _atom_site_fract_y
  _atom_site_fract_z
  _atom_site_occupancy
  N   N1        1.0  0.7070117615199261  0.4381055964547371  0.5341663660761549  1.0000
  C   C1        1.0  0.6562037789896797  0.4033977684004626  0.600742542689877  1.0000
  C   C2        1.0  0.5929935219757124  0.3602240902563596  0.6835548107731906  1.0000
  C   C3        1.0  0.6047417264116753  0.29670874888604537  0.8062985931029882  1.0000
  C   C4        1.0  0.5434383609065646  0.25521422998627785  0.8868263246064911  1.0000
  C   C5        1.0  0.4702325493531968  0.2769219672329408  0.8452511968079106  1.0000
  C   C6        1.0  0.4575074909522137  0.34059172366500734  0.7220471451448293  1.0000
  C   C7        1.0  0.379733006764025  0.36362878270663623  0.677690822042323  1.0000
  C   C8        1.0  0.36094563489590864  0.34671410396480007  0.548106580445721  1.0000
  C   C9        1.0  0.2877098867814748  0.3683830965865307  0.5064873887976262  1.0000
  C   C10       1.0  0.23231831924167903  0.4072850551183657  0.5936320241412804  1.0000
  C   C11       1.0  0.1569456261954272  0.42961212258636344  0.5506512696500339  1.0000
  N   N2        1.0  0.0963513549743306  0.44756142609184235  0.516097871179074  1.0000
  C   C12       1.0  0.25041405059364136  0.42441015547837346  0.7226850395256916  1.0000
  C   C13       1.0  0.32359705945134126  0.40270631200140716  0.7645596867221349  1.0000
  C   C14       1.0  0.5196681702960797  0.3820816825651237  0.6415358317877156  1.0000
  H   H1        1.0  0.6612132751447631  0.2793037578429336  0.8396710628188214  1.0000
  H   H2        1.0  0.5526528082424148  0.20578888796849526  0.9815821426843155  1.0000
  H   H3        1.0  0.4236045519159458  0.24238388175927672  0.9087038386661126  1.0000
  H   H4        1.0  0.4026269627358796  0.3150482789045994  0.47939419756694246  1.0000
  H   H5        1.0  0.2742656642758  0.35446955490746723  0.4064501060426349  1.0000
  H   H6        1.0  0.208016178277036  0.45485270966406355  0.7908829536152758  1.0000
  H   H7        1.0  0.33651249928588833  0.4181653056362933  0.8644137819231363  1.0000
  H   H8        1.0  0.511151914563629  0.4328695409446404  0.5470139737257108  1.0000
  C   C15       1.0  0.9017690627529118  0.061438184887656185  0.5252467479470724  1.0000
  C   C16       1.0  0.8889284013867775  0.07079597429865014  0.39090805400998807  1.0000
  C   C17       1.0  0.8823451502311459  0.95840109365673  0.32268115103029044  1.0000
  C   C18       1.0  0.8887487554533079  0.8355317722506084  0.3906085847503346  1.0000
  C   C19       1.0  0.901601260609658  0.824219055084399  0.5250283253003091  1.0000
  C   C20       1.0  0.9080356317186054  0.9376874706824995  0.591519707653142  1.0000
  C   C21       1.0  0.8687622083881743  0.969274196758808  0.18056699111749805  1.0000
  C   C22       1.0  0.9068571144488186  0.0642919368266921  0.0973757950845131  1.0000
  C   C23       1.0  0.8940808528153933  0.0743935160379772  0.9636366134812098  1.0000
  C   C24       1.0  0.8434213394258439  0.988808250914672  0.9102331764915487  1.0000
  C   C25       1.0  0.8044087746866218  0.8955844940094425  0.9933987951862071  1.0000
  C   C26       1.0  0.8172123961301895  0.8852275514348207  0.12709936899843474  1.0000
  N   N3        1.0  0.8282272804827124  0.9986491852666448  0.7733676462496732  1.0000
  C   C27       1.0  0.8830761409282443  0.03689563464683766  0.6725976257880837  1.0000
  O   O1        1.0  0.9519970406835743  0.04111010713665885  0.6972594926665505  1.0000
  C   C28       1.0  0.8591017697913734  0.06272884475342422  0.5351606728820761  1.0000
  H   H9        1.0  0.9067314489332566  0.3853155307404579  0.576912379037745  1.0000
  H   H10       1.0  0.8829816879377105  0.16568494473248285  0.33937077579290165  1.0000
  H   H11       1.0  0.8847045478800624  0.7486225851078442  0.33816414644989634  1.0000
  H   H12       1.0  0.9179424311934417  0.9297548083727595  0.6951373867896335  1.0000
  H   H13       1.0  0.9263095331304454  0.5955944717513215  0.7785868503947069  1.0000
  H   H14       1.0  0.9469751771780631  0.13032369625000295  0.13560910679526605  1.0000
  H   H15       1.0  0.9228980168447549  0.15053557419471789  0.9027146680978106  1.0000
  H   H16       1.0  0.7642185665453682  0.8302548369080117  0.9543017351580567  1.0000
  H   H17       1.0  0.7859812883032627  0.8126434024873457  0.18896634669895085  1.0000
  H   H18       1.0  0.7753122538889861  0.9684884516946336  0.744747724335793  1.0000
  H   H19       1.0  0.8048719648873973  0.11485643778576392  0.533223428961747  1.0000
  H   H20       1.0  0.8521474585938243  0.968940100583356  0.490256184613111  1.0000
  H   H21       1.0  0.9018660114080141  0.12384621450784339  0.4777769062682613  1.0000
  C   C29       1.0  0.9016635836291981  0.4427061240375152  0.14374109954430644  1.0000
  C   C30       1.0  0.9770033635016775  0.4036414848900571  0.14246995499097267  1.0000
  C   C31       1.0  0.01517856821953423  0.3839658142750444  0.024654967152674127  1.0000
  C   C32       1.0  0.9770476582416171  0.4038981964461013  0.9071671470259148  1.0000
  C   C33       1.0  0.9017067103098251  0.4429511015217691  0.906534000033932  1.0000
  C   C34       1.0  0.864495814166052  0.46210050047610435  0.025296096362497297  1.0000
  C   C35       1.0  0.09483065374606238  0.34267736210181887  0.024245499248426006  1.0000
  C   C36       1.0  0.1466921157013712  0.3985414274190214  0.9302808479246971  1.0000
  C   C37       1.0  0.22165538430165266  0.3597855862846353  0.929916940676564  1.0000
  C   C38       1.0  0.24612165310926096  0.26297647693503445  0.022281896142767762  1.0000
  C   C39       1.0  0.1946946565072809  0.20894214371239994  0.11780317218881908  1.0000
  C   C40       1.0  0.11973627091622552  0.2477311608674793  0.11827776400333434  1.0000
  C   C41       1.0  0.3275820406097416  0.2246653508460239  0.02479694201929149  1.0000
  F   F1        1.0  0.36609192550969016  0.3049210930613348  0.10247092900514376  1.0000
  F   F2        1.0  0.3595735417266017  0.23661632115266418  0.9004517519141286  1.0000
  F   F3        1.0  0.33456757346692134  0.0967043755585879  0.07439684178768169  1.0000
  H   H22       1.0  0.7594424292094283  0.5173458239975912  0.3533981389758687  1.0000
  H   H23       1.0  0.006426395195472167  0.39019548212522537  0.2331876890881623  1.0000
  H   H24       1.0  0.005903320766508459  0.3872161957639497  0.8162024847157355  1.0000
  H   H25       1.0  0.8064297121239499  0.4922031348104941  0.025542681343795552  1.0000
  H   H26       1.0  0.7592021454872482  0.516000265181175  0.6980754159423199  1.0000
  H   H27       1.0  0.12955600192918593  0.47389512979866444  0.8583243484837941  1.0000
  H   H28       1.0  0.26059385020432413  0.40596092728969785  0.8576111815528136  1.0000
  H   H29       1.0  0.21243074816435326  0.13649476323854048  0.1921738483230264  1.0000
  H   H30       1.0  0.08106817972615188  0.2025164840132259  0.19159036962728537  1.0000
  Zn  Zn1       1.0  0.8193667589793088  0.4408308721543237  0.5289596748039376  1.0000
  Zn  Zn2       1.0  0.9839963456896675  0.44482553346235015  0.5213151522699457  1.0000
  C   C42       1.0  0.9016980228253182  0.43773070016997595  0.7623513598937941  1.0000
  C   C43       1.0  0.9016668792402786  0.44792738784263353  0.2879235107085776  1.0000
  C   C44       1.0  0.9016287984462629  0.6800354495307996  0.5198942597360906  1.0000
  C   C45       1.0  0.9017360477900009  0.20562107672996974  0.5303806831652407  1.0000
  O   O2        1.0  0.9641440567064102  0.45118997868547855  0.33341139017838767  1.0000
  O   O3        1.0  0.9641708925974475  0.43749898491912376  0.7110610911104145  1.0000
  O   O4        1.0  0.9641141509049488  0.6331631143876912  0.5152753060303832  1.0000
  O   O5        1.0  0.9642007422144322  0.25552585711339937  0.5291970804826187  1.0000
  O   O6        1.0  0.8391623062745452  0.6301305471415044  0.5210777491931327  1.0000
  O   O7        1.0  0.8392190476163777  0.43446797806300674  0.7168634645760732  1.0000
  O   O8        1.0  0.8391922116969717  0.44815892607001295  0.3392122021412824  1.0000
  O   O9        1.0  0.8392488972094714  0.2524947952396758  0.5349979898231825  1.0000
