data_image0
_chemical_formula_structural       NC9NC4H8C7F3H5C6NO2H3Zn2C4O8
_chemical_formula_sum              "N3 C30 H16 F3 O10 Zn2"
_cell_length_a       16.32274767691083
_cell_length_b       9.272718291674593
_cell_length_c       9.273395971720356
_cell_angle_alpha    85.39368926886713
_cell_angle_beta     89.35243876569035
_cell_angle_gamma    89.10298441660798

_space_group_name_H-M_alt    "P 1"
_space_group_IT_number       1

loop_
  _space_group_symop_operation_xyz
  'x, y, z'

loop_
  _atom_site_type_symbol
  _atom_site_label
  _atom_site_symmetry_multiplicity
  _atom_site_fract_x
  _atom_site_fract_y
  _atom_site_fract_z
  _atom_site_occupancy
  N   N1        1.0  0.7665547215634813  0.5842472486975752  0.4078247449676824  1.0000
  C   C1        1.0  0.7145140223178358  0.5322116057318284  0.34707459548437614  1.0000
  C   C2        1.0  0.649826587849802  0.4675829321819662  0.2716224241340688  1.0000
  C   C3        1.0  0.6618802445748561  0.37918249011219696  0.16841250991662404  1.0000
  C   C4        1.0  0.5827590710015983  0.3360425643378777  0.11804947646260122  1.0000
  C   C5        1.0  0.5234683098828508  0.3991767643407095  0.19176294675438754  1.0000
  C   C6        1.0  0.43362536586724343  0.38249092188253053  0.17228506111004951  1.0000
  C   C7        1.0  0.3776124912371277  0.45607799500755297  0.258194653199332  1.0000
  C   C8        1.0  0.2929847766516332  0.44181747525549464  0.241547619761644  1.0000
  C   C9        1.0  0.23654715958972053  0.5176667592360835  0.33009737751656076  1.0000
  N   N2        1.0  0.1911903280744069  0.5786371066796938  0.40127638794974524  1.0000
  C   C10       1.0  0.2633175719872017  0.3538508622048434  0.13885274920080604  1.0000
  C   C11       1.0  0.3180079755444766  0.2803612565820089  0.053057329999946175  1.0000
  C   C12       1.0  0.4024790706509658  0.2942376656593979  0.0692557952252828  1.0000
  C   C13       1.0  0.5607007248331639  0.4912334669771181  0.2992386982900242  1.0000
  H   H1        1.0  0.7209825658875121  0.34480775292034793  0.12827653155558205  1.0000
  H   H2        1.0  0.5748732418923296  0.2637929953500866  0.033695936870245635  1.0000
  H   H3        1.0  0.39933573322549776  0.5247507648843248  0.3383654308109596  1.0000
  H   H4        1.0  0.1979923922888208  0.3421031455400658  0.12513929621036302  1.0000
  H   H5        1.0  0.29488515925945563  0.2123108786477479  0.9736134419184763  1.0000
  H   H6        1.0  0.442593495955058  0.23545070710321303  0.000625420840476786  1.0000
  H   H7        1.0  0.5439688620755719  0.45148686643063346  0.4117692560556745  1.0000
  H   H8        1.0  0.5434590981823706  0.6070155136312866  0.27548164622667404  1.0000
  C   C14       1.0  0.9806642027154122  0.1580689760390039  0.40133425166190817  1.0000
  C   C15       1.0  0.9308243182201918  0.24107789888803755  0.30234569376124254  1.0000
  C   C16       1.0  0.875174828449485  0.17520077265933387  0.21483634949624975  1.0000
  C   C17       1.0  0.8715398422265048  0.02387232727479249  0.22333157734655543  1.0000
  C   C18       1.0  0.9214442747868091  0.9399359822518754  0.3191955722310853  1.0000
  C   C19       1.0  0.9770887179538621  0.004804000864165654  0.40777921174941456  1.0000
  C   C20       1.0  0.8238542791410876  0.2659221248760474  0.10668732303155859  1.0000
  F   F1        1.0  0.802744939732845  0.3970744700097615  0.1594739485613197  1.0000
  F   F2        1.0  0.7523629066058628  0.19577997295126215  0.07763148974964218  1.0000
  F   F3        1.0  0.8681883944126693  0.2914340064190678  0.9795598931221106  1.0000
  H   H9        1.0  0.07762292662187348  0.2322401955072395  0.7113632543180732  1.0000
  H   H10       1.0  0.9341019579333786  0.35807332071081965  0.2955767235735165  1.0000
  H   H11       1.0  0.830658286927991  0.9700419904951656  0.15454766995770686  1.0000
  H   H12       1.0  0.9180980710092381  0.8231908969939152  0.32118931350010116  1.0000
  H   H13       1.0  0.15280032445741787  0.8847613398309512  0.5788063861178352  1.0000
  C   C21       1.0  0.9793240414282876  0.585859388012737  0.9806465162429605  1.0000
  C   C22       1.0  0.9061562944014738  0.6197312415658995  0.052609870483698154  1.0000
  C   C23       1.0  0.8328167641169344  0.6399738058036992  0.977456876725086  1.0000
  C   C24       1.0  0.8305650277291429  0.6267591188518581  0.828097010197546  1.0000
  C   C25       1.0  0.9036785574338447  0.5953582142714644  0.7547154564018426  1.0000
  C   C26       1.0  0.9784288717561421  0.5770135919896144  0.8284669233011948  1.0000
  N   N3        1.0  0.7545276245171388  0.6465568911522837  0.7512739103706632  1.0000
  O   O1        1.0  0.6831909716891404  0.6784817058623359  0.8233824097064081  1.0000
  O   O2        1.0  0.7519683603259258  0.634709960055996  0.6182281736020325  1.0000
  H   H14       1.0  0.15929759684210887  0.42197606444545105  0.09307423406916815  1.0000
  H   H15       1.0  0.7775726197951046  0.6646086483051894  0.03687218998815589  1.0000
  H   H16       1.0  0.10111511957783637  0.4708728748665532  0.5543369067399939  1.0000
  Zn  Zn1       1.0  0.8890953987132527  0.5826243264357664  0.40594333773632574  1.0000
  Zn  Zn2       1.0  0.06864969456810233  0.5802480748197911  0.40316953110028075  1.0000
  C   C27       1.0  0.9786205193579299  0.5729421543956997  0.6681670051526514  1.0000
  C   C28       1.0  0.9791265268197346  0.5899320385308566  0.1409459889253064  1.0000
  C   C29       1.0  0.9777664283429913  0.8448131373689178  0.40080854801338583  1.0000
  C   C30       1.0  0.9799805637983776  0.3180593234104965  0.4083045107889236  1.0000
  O   O3        1.0  0.04720018519415169  0.5903907923758331  0.19369126327420538  1.0000
  O   O4        1.0  0.04682442196517566  0.5706787972629925  0.6133160519218884  1.0000
  O   O5        1.0  0.046133812525645405  0.7902180507871432  0.3974222317771192  1.0000
  O   O6        1.0  0.0478907334346923  0.37085155110528256  0.40958497620728407  1.0000
  O   O7        1.0  0.9098542985735951  0.792020850962822  0.3995278935683053  1.0000
  O   O8        1.0  0.9105449007763536  0.5724833303983603  0.6154216499277063  1.0000
  O   O9        1.0  0.9109206661044299  0.5921952933782233  0.19579512532358478  1.0000
  O   O10       1.0  0.9116112142708925  0.3726560406666197  0.4116889464073372  1.0000
