data_image0
_chemical_formula_structural       NC5NC3H4C10H6C7NH4Zn2C4O8
_chemical_formula_sum              "N3 C29 H14 Zn2 O8"
_cell_length_a       13.859018345313864
_cell_length_b       9.275150299802176
_cell_length_c       9.275157849593905
_cell_angle_alpha    85.78415629139576
_cell_angle_beta     89.74087919435236
_cell_angle_gamma    89.48388887768701

_space_group_name_H-M_alt    "P 1"
_space_group_IT_number       1

loop_
  _space_group_symop_operation_xyz
  'x, y, z'

loop_
  _atom_site_type_symbol
  _atom_site_label
  _atom_site_symmetry_multiplicity
  _atom_site_fract_x
  _atom_site_fract_y
  _atom_site_fract_z
  _atom_site_occupancy
  N   N1        1.0  0.9040018294130342  0.5636614070896004  0.4015082489301991  1.0000
  C   C1        1.0  0.8317270495300447  0.5245951467607964  0.452971512307641  1.0000
  C   C2        1.0  0.7418214610605558  0.4760019519775316  0.5169849662814576  1.0000
  C   C3        1.0  0.6541095962870446  0.5233746289409331  0.45457968656154213  1.0000
  C   C4        1.0  0.5665911587241664  0.47600166019010365  0.516984842414556  1.0000
  C   C5        1.0  0.476487170882868  0.5245950330846842  0.4529714156628252  1.0000
  N   N2        1.0  0.404052927272269  0.5636613725106514  0.40150818011630407  1.0000
  C   C6        1.0  0.5669670934538418  0.38124200573231204  0.6418139484465748  1.0000
  C   C7        1.0  0.6544960444775123  0.33405168838299537  0.7039790773440919  1.0000
  C   C8        1.0  0.741832434603834  0.381242302991234  0.6418141503700343  1.0000
  H   H1        1.0  0.6539598190325471  0.5967211864557493  0.35795860067636376  1.0000
  H   H2        1.0  0.4997477391586199  0.34395485856092245  0.6909327503636427  1.0000
  H   H3        1.0  0.6546454542795992  0.26085403949315245  0.8004041964574828  1.0000
  H   H4        1.0  0.8092039963267387  0.34395539285837806  0.6909331725391681  1.0000
  C   C9        1.0  0.1565704414735154  0.13997906879296118  0.40392075204878997  1.0000
  C   C10       1.0  0.20764892599354248  0.22098118475466033  0.2948963001168434  1.0000
  C   C11       1.0  0.25046953175660924  0.1537283232133766  0.1803313684960446  1.0000
  C   C12       1.0  0.24264713132411495  0.00449324372796589  0.17331524033383405  1.0000
  C   C13       1.0  0.19367718922603738  0.9220410495969347  0.28169203147760147  1.0000
  C   C14       1.0  0.15149352855320863  0.9873326572363534  0.3991082439323146  1.0000
  C   C15       1.0  0.3015674217672588  0.23844857056073532  0.06881418351132917  1.0000
  C   C16       1.0  0.34434925403984873  0.3094044191636707  0.9754510563830538  1.0000
  C   C17       1.0  0.39444479515515996  0.3924986988130557  0.866126906282707  1.0000
  C   C18       1.0  0.43721837886005654  0.4634492376219153  0.7727816762096587  1.0000
  H   H5        1.0  0.1101110858384946  0.4045066451793233  0.6327588941225251  1.0000
  H   H6        1.0  0.2122780816343246  0.33745098780128346  0.29712253973217684  1.0000
  H   H7        1.0  0.27526516022523406  0.9514943705402982  0.0846660541005213  1.0000
  H   H8        1.0  0.19074551374106896  0.805981073834633  0.27547041630651825  1.0000
  H   H9        1.0  0.08774002835915962  0.8601591646279336  0.741499481434597  1.0000
  H   H10       1.0  0.4747771532171157  0.5257498358708215  0.6908168543808322  1.0000
  C   C19       1.0  0.1553367545273583  0.5595776739245459  0.9783398871987662  1.0000
  C   C20       1.0  0.23822053918874325  0.6066120090115719  0.04776878439525989  1.0000
  C   C21       1.0  0.31608673462352027  0.6649914028543209  0.9675590507116087  1.0000
  C   C22       1.0  0.311975408432005  0.6772645733571314  0.816830398842701  1.0000
  C   C23       1.0  0.23108238626138022  0.6290619221025722  0.7460665950726422  1.0000
  C   C24       1.0  0.15272727240192996  0.5677340419040309  0.8246891341333304  1.0000
  C   C25       1.0  0.39990418364038405  0.714034994508266  0.04028412849053775  1.0000
  N   N3        1.0  0.4672719549618629  0.7534528179940633  0.09874285066219257  1.0000
  H   H11       1.0  0.9208599454663468  0.5109316516520567  0.086453794114153  1.0000
  H   H12       1.0  0.3717856334452435  0.7229017690946228  0.7537484038379043  1.0000
  H   H13       1.0  0.2308234829091755  0.636647248835112  0.6289590747483174  1.0000
  H   H14       1.0  0.9959028073228723  0.5289236154496229  0.5475030643172554  1.0000
  Zn  Zn1       1.0  0.04830577049559115  0.5636576047078297  0.4015165820638822  1.0000
  Zn  Zn2       1.0  0.25974899711101274  0.5636534480480175  0.4015117501440695  1.0000
  C   C26       1.0  0.15325278171211104  0.5604446380269978  0.6647436227513439  1.0000
  C   C27       1.0  0.15480428350484995  0.5668682364733526  0.1382848405041317  1.0000
  C   C28       1.0  0.1524659364778133  0.8271094726115007  0.39427543173173984  1.0000
  C   C29       1.0  0.1555910667371856  0.30020166921024743  0.40875311819885596  1.0000
  O   O1        1.0  0.23486722163283952  0.5693071440704043  0.19196203000882162  1.0000
  O   O2        1.0  0.23367036792226106  0.558001483199426  0.6110623572859137  1.0000
  O   O3        1.0  0.2330338941293897  0.7733367240252134  0.39265737093476427  1.0000
  O   O4        1.0  0.23550362354576543  0.3539719125257364  0.41036690825411437  1.0000
  O   O5        1.0  0.07255107190565657  0.7733391402330274  0.3926614239478976  1.0000
  O   O6        1.0  0.07318753554530821  0.5580056320887574  0.6110663236179867  1.0000
  O   O7        1.0  0.07438439496321991  0.5693112259855763  0.1919642640648762  1.0000
  O   O8        1.0  0.07502079660090932  0.35397598516270445  0.41036925041008576  1.0000
