data_image0
_chemical_formula_structural       NC6NC3H6C7NH3C6BrH4Zn2C4O8
_chemical_formula_sum              "N3 C26 H13 Br1 Zn2 O8"
_cell_length_a       14.934028789175542
_cell_length_b       9.275154477615127
_cell_length_c       9.27656775626242
_cell_angle_alpha    86.34818767424132
_cell_angle_beta     90.16168567554362
_cell_angle_gamma    89.3962875590186

_space_group_name_H-M_alt    "P 1"
_space_group_IT_number       1

loop_
  _space_group_symop_operation_xyz
  'x, y, z'

loop_
  _atom_site_type_symbol
  _atom_site_label
  _atom_site_symmetry_multiplicity
  _atom_site_fract_x
  _atom_site_fract_y
  _atom_site_fract_z
  _atom_site_occupancy
  N   N1        1.0  0.8304039393384469  0.5615447783926699  0.41631300559086726  1.0000
  C   C1        1.0  0.7529232687969212  0.5604402006828464  0.4156300719481354  1.0000
  C   C2        1.0  0.656533434435418  0.5590610292287315  0.41477755509220793  1.0000
  C   C3        1.0  0.6082486495897894  0.6664707764787046  0.48106517309015207  1.0000
  C   C4        1.0  0.5147423081411503  0.6653634077701843  0.4803816347375854  1.0000
  C   C5        1.0  0.468607936381027  0.5569011079386625  0.41344450724691956  1.0000
  C   C6        1.0  0.3719508568524293  0.55922828876995  0.41488200495028504  1.0000
  N   N2        1.0  0.29446176067843327  0.561075203374467  0.4160231688329221  1.0000
  C   C7        1.0  0.5168943742415618  0.44800536490029574  0.3462392598535837  1.0000
  C   C8        1.0  0.4691514579530004  0.33008431133337046  0.27346591863091496  1.0000
  C   C9        1.0  0.6110262898260849  0.4502426961125605  0.3476200744623732  1.0000
  H   H1        1.0  0.6428814641056233  0.7510996997782198  0.5332942564194021  1.0000
  H   H2        1.0  0.47829834603747806  0.749340564242889  0.5322083387526579  1.0000
  H   H3        1.0  0.4259275207583241  0.37827765833990656  0.18508750938689467  1.0000
  H   H4        1.0  0.4269488433405303  0.26803499672360104  0.35329978297843256  1.0000
  H   H5        1.0  0.5169816357836388  0.2537050749723224  0.22632227537214858  1.0000
  H   H6        1.0  0.648957880907171  0.36738268894303006  0.29648310530879174  1.0000
  C   C10       1.0  0.06502506707969322  0.13790173419100293  0.4144990340485408  1.0000
  C   C11       1.0  0.04019741994364634  0.2198618660581979  0.2874676101191123  1.0000
  C   C12       1.0  0.008099556977733787  0.15267774573255144  0.1671705925503053  1.0000
  C   C13       1.0  0.0003019409010094322  0.0026171365424483297  0.17248833398483399  1.0000
  C   C14       1.0  0.0259538279870295  0.9194201378385926  0.2966233094667532  1.0000
  C   C15       1.0  0.05984933384834165  0.9847072674679481  0.41784957810112155  1.0000
  C   C16       1.0  0.9820776105510178  0.2382059040872692  0.038608667763039735  1.0000
  N   N3        1.0  0.9611631783080116  0.3069549525736406  0.9352778107331737  1.0000
  H   H7        1.0  0.08308053770503405  0.21801801130200893  0.7681844631146146  1.0000
  H   H8        1.0  0.9751555918009776  0.9496105047831657  0.08003281874414192  1.0000
  H   H9        1.0  0.0758041347355023  0.6882415140856688  0.65482646687295  1.0000
  C   C17       1.0  0.061607805293506054  0.5571618090991024  0.993031671468443  1.0000
  C   C18       1.0  0.9818237387332437  0.5919529263602201  0.06382954569778888  1.0000
  C   C19       1.0  0.9059461613783852  0.6386167361710126  0.9853600988282634  1.0000
  C   C20       1.0  0.9084270200452447  0.6514344579351954  0.8349133819234513  1.0000
  C   C21       1.0  0.9864651347625127  0.6150875763573564  0.7623833791707342  1.0000
  C   C22       1.0  0.0632666202411063  0.5654472159852539  0.8393169157310454  1.0000
  Br  Br1       1.0  0.8045676832891568  0.7164607574309543  0.7279846474515632  1.0000
  H   H10       1.0  0.18559256304671767  0.42607577922164114  0.283270754397535  1.0000
  H   H11       1.0  0.8454094191858859  0.6661681096829417  0.04182396073603667  1.0000
  H   H12       1.0  0.9862791902139669  0.6224528282813175  0.6453621450761715  1.0000
  H   H13       1.0  0.21069186112780813  0.5504095938236182  0.5597712517280571  1.0000
  Zn  Zn1       1.0  0.964321055802636  0.5614054868767379  0.4162376643768242  1.0000
  Zn  Zn2       1.0  0.1605447695593354  0.561202799424614  0.4161102440546436  1.0000
  C   C23       1.0  0.06298615350805403  0.5581370721714378  0.6793281421652007  1.0000
  C   C24       1.0  0.061881803768594854  0.5644730325504834  0.1530199135015864  1.0000
  C   C25       1.0  0.0608117897663327  0.8245867651993346  0.411474180979001  1.0000
  C   C26       1.0  0.0640561112913971  0.29802160804468936  0.4208739446999561  1.0000
  O   O1        1.0  0.1364396753487629  0.566843536805625  0.20666504880194858  1.0000
  O   O2        1.0  0.1373575461967411  0.5556116410489376  0.6255858786891924  1.0000
  O   O3        1.0  0.1356007190778603  0.7707731535908726  0.4092919165038076  1.0000
  O   O4        1.0  0.13819643523497216  0.35168203358941597  0.4229589030309051  1.0000
  O   O5        1.0  0.9866693231654512  0.7709262527825989  0.4093890054364717  1.0000
  O   O6        1.0  0.9884261395417033  0.5557664717892233  0.6256828976455957  1.0000
  O   O7        1.0  0.987508265664679  0.5669983003402306  0.2067603351289451  1.0000
  O   O8        1.0  0.9892650258220118  0.35183678786895767  0.42305429735023914  1.0000
