data_image0
_chemical_formula_structural       NC6NC2H4C6NH7C6OCH6Zn2C4O8
_chemical_formula_sum              "N3 C25 H17 O9 Zn2"
_cell_length_a       14.927258858638513
_cell_length_b       9.274771166103582
_cell_length_c       9.273891588657152
_cell_angle_alpha    85.97469330815719
_cell_angle_beta     89.68012649256188
_cell_angle_gamma    90.59705168739299

_space_group_name_H-M_alt    "P 1"
_space_group_IT_number       1

loop_
  _space_group_symop_operation_xyz
  'x, y, z'

loop_
  _atom_site_type_symbol
  _atom_site_label
  _atom_site_symmetry_multiplicity
  _atom_site_fract_x
  _atom_site_fract_y
  _atom_site_fract_z
  _atom_site_occupancy
  N   N1        1.0  0.8592209307716691  0.5642843696660778  0.4072193534474418  1.0000
  C   C1        1.0  0.7816944393830855  0.5642843412448326  0.4072193640869347  1.0000
  C   C2        1.0  0.6852619327549188  0.5642844559218618  0.407219314022748  1.0000
  C   C3        1.0  0.63848792810643  0.5394444739963207  0.28059297621534274  1.0000
  C   C4        1.0  0.5447766173841079  0.5394444984342078  0.2805928427274371  1.0000
  C   C5        1.0  0.49744586754874426  0.5642842784955597  0.4072193329742997  1.0000
  C   C6        1.0  0.4010132939290803  0.5642843931755006  0.4072192829041844  1.0000
  N   N2        1.0  0.3234868025404969  0.564284364754255  0.40721929354367725  1.0000
  C   C7        1.0  0.5442198052057365  0.5891242604240129  0.5338456707757762  1.0000
  C   C8        1.0  0.6379311159280582  0.5891242359861253  0.5338458042636822  1.0000
  H   H1        1.0  0.6744007128803547  0.5201175664016886  0.18207041792250656  1.0000
  H   H2        1.0  0.5092970586666102  0.5201177639441308  0.18207041262669543  1.0000
  H   H3        1.0  0.5083070869842409  0.6084511586739358  0.6323683371587541  1.0000
  H   H4        1.0  0.6734106748991237  0.6084510688223235  0.6323683442012753  1.0000
  C   C9        1.0  0.08860515841908856  0.14069489707054772  0.4080049773319302  1.0000
  C   C10       1.0  0.0684301641340152  0.22284028033005399  0.2791089708279473  1.0000
  C   C11       1.0  0.05662207412477031  0.15662014497708188  0.1493951743230117  1.0000
  C   C12       1.0  0.0650391457943662  0.00686867350588383  0.14763785516418368  1.0000
  C   C13       1.0  0.08356361584553686  0.9233878809458137  0.27476320751461647  1.0000
  C   C14       1.0  0.09411106178364674  0.9878628666853863  0.40644620708181023  1.0000
  N   N3        1.0  0.037002307333915185  0.2418522400879093  0.019082525954184464  1.0000
  H   H5        1.0  0.1883490767386231  0.22320233014422144  0.7234531560741311  1.0000
  H   H6        1.0  0.0639151163662195  0.3394279913858269  0.278555299800042  1.0000
  H   H7        1.0  0.05637800883870206  0.9544806770586032  0.047836175575951316  1.0000
  H   H8        1.0  0.08752565701091974  0.8071866074130438  0.27063518831811306  1.0000
  H   H9        1.0  0.15765435950666573  0.6927336023950983  0.6210626589829941  1.0000
  H   H10       1.0  0.030830241090103804  0.3539257190685614  0.019035711009342867  1.0000
  H   H11       1.0  0.028417426077826945  0.19350284582545466  0.9216512550130025  1.0000
  C   C15       1.0  0.09280085328288168  0.5604586012029313  0.983957274275958  1.0000
  C   C16       1.0  0.1665602161311175  0.6213848660211487  0.05241886489143566  1.0000
  C   C17       1.0  0.23530813362991332  0.6930822991794704  0.9724771907570791  1.0000
  C   C18       1.0  0.2305432059323057  0.70421491310326  0.821016094076473  1.0000
  C   C19       1.0  0.1586602404513474  0.6424152384809878  0.7512139125437176  1.0000
  C   C20       1.0  0.08991533314535216  0.5680990716135603  0.8304938565630069  1.0000
  O   O1        1.0  0.3066094513422348  0.7522325641090863  0.047574957124616006  1.0000
  C   C21       1.0  0.38087306925686293  0.8281465051688365  0.9803588988244373  1.0000
  H   H12       1.0  0.8791421731803546  0.47186349472239925  0.09513754247148798  1.0000
  H   H13       1.0  0.2825063174598055  0.7592965537140344  0.7559926041129255  1.0000
  H   H14       1.0  0.9473925041899769  0.5027334992140045  0.5551714905483554  1.0000
  H   H15       1.0  0.3574603960453444  0.9257591229537918  0.9157837134115424  1.0000
  H   H16       1.0  0.41776063050759604  0.7565573397398344  0.9100779540057332  1.0000
  H   H17       1.0  0.4269544328044752  0.8626250722842501  0.06513899999595685  1.0000
  Zn  Zn1       1.0  0.9931979871399697  0.5642805782405784  0.40722767183529185  1.0000
  Zn  Zn2       1.0  0.18950963996323592  0.5642764476709444  0.4072228206007178  1.0000
  C   C22       1.0  0.09042142778412937  0.5609084556029296  0.6704909078617192  1.0000
  C   C23       1.0  0.0922883543826789  0.56765039156825  0.14395972264308887  1.0000
  C   C24       1.0  0.0930852849997337  0.8276782154101296  0.4009970771379193  1.0000
  C   C25       1.0  0.08962441865436471  0.3008788994154607  0.4134536334029477  1.0000
  O   O2        1.0  0.1666155633305012  0.5700561615986239  0.1976561765164544  1.0000
  O   O3        1.0  0.16509021532870694  0.5584984586352411  0.6167903590969221  1.0000
  O   O4        1.0  0.1672403043252657  0.773918426991846  0.3991721813389624  1.0000
  O   O5        1.0  0.16446540778151264  0.3546362025867285  0.4152742461842729  1.0000
  O   O6        1.0  0.01824215233019634  0.7739208233277056  0.3991762462458076  1.0000
  O   O7        1.0  0.016092074854850986  0.5585025873196017  0.6167943439617792  1.0000
  O   O8        1.0  0.017617428496444754  0.5700602243759039  0.19765842852863202  1.0000
  O   O9        1.0  0.015467272508389316  0.35464025602221083  0.41527660628066365  1.0000
