data_image0
_chemical_formula_structural       NC8NC6H8C6OCH8C6NCH6Zn2C4O8
_chemical_formula_sum              "N3 C32 H22 O9 Zn2"
_cell_length_a       17.457602349358154
_cell_length_b       9.273888216677433
_cell_length_c       9.273390368590327
_cell_angle_alpha    86.36751786552816
_cell_angle_beta     92.8511133753594
_cell_angle_gamma    91.10627454168798

_space_group_name_H-M_alt    "P 1"
_space_group_IT_number       1

loop_
  _space_group_symop_operation_xyz
  'x, y, z'

loop_
  _atom_site_type_symbol
  _atom_site_label
  _atom_site_symmetry_multiplicity
  _atom_site_fract_x
  _atom_site_fract_y
  _atom_site_fract_z
  _atom_site_occupancy
  N   N1        1.0  0.7140590901017301  0.5966312825462687  0.4805027570964042  1.0000
  C   C1        1.0  0.6532540333233167  0.545523871788661  0.468567604666019  1.0000
  C   C2        1.0  0.577609924422803  0.481952708853477  0.45373088413589985  1.0000
  C   C3        1.0  0.5188324350198162  0.5274194610406315  0.5369891318992273  1.0000
  C   C4        1.0  0.4446138032237681  0.4662070555651039  0.5228414139703009  1.0000
  C   C5        1.0  0.3822314807548267  0.5142160601929031  0.6110146286122049  1.0000
  C   C6        1.0  0.307584441174332  0.53406115477789  0.5491880518322838  1.0000
  C   C7        1.0  0.24880801831055097  0.5793250001305694  0.6325654957954701  1.0000
  C   C8        1.0  0.17271959079316862  0.5998165605297403  0.5682821476072222  1.0000
  N   N2        1.0  0.11155744922962246  0.6162846946632741  0.5165984819852312  1.0000
  C   C9        1.0  0.2641849571242195  0.6050196574118365  0.7783346995062229  1.0000
  C   C10       1.0  0.33804493502491795  0.5856109498849038  0.8405927459168874  1.0000
  C   C11       1.0  0.3968086182630303  0.5405523784855704  0.7577238986349937  1.0000
  C   C12       1.0  0.430465530696941  0.3587590013399284  0.42384288058802194  1.0000
  C   C13       1.0  0.4892295937900034  0.31360632908503594  0.3410295016081568  1.0000
  C   C14       1.0  0.5626627105344709  0.37494996385350887  0.3557879484698039  1.0000
  H   H1        1.0  0.5307220113568775  0.6116789487379444  0.6111894668146669  1.0000
  H   H2        1.0  0.29534375542251223  0.5162403954882951  0.4359077083806475  1.0000
  H   H3        1.0  0.21913242817997955  0.6399963092944629  0.8437359501437075  1.0000
  H   H4        1.0  0.3497627688422324  0.6051564961721101  0.9534640365055456  1.0000
  H   H5        1.0  0.4533755821819121  0.5244529283763264  0.8088443532300509  1.0000
  H   H6        1.0  0.37425027516144216  0.3083057654242629  0.4118696146586309  1.0000
  H   H7        1.0  0.47784742055663937  0.23057212573050873  0.26550295852625005  1.0000
  H   H8        1.0  0.6077203398945794  0.3390138677479799  0.290951056157706  1.0000
  C   C15       1.0  0.9150641986731408  0.18309174997752975  0.4972828901026345  1.0000
  C   C16       1.0  0.8971716179569734  0.2641020692344287  0.3669189247278508  1.0000
  C   C17       1.0  0.8727531588925121  0.19686238988782637  0.24161705487376084  1.0000
  C   C18       1.0  0.8660854987809232  0.04560699968213866  0.2462034097911392  1.0000
  C   C19       1.0  0.8847810863273516  0.963411822495536  0.373867798773837  1.0000
  C   C20       1.0  0.910559710842351  0.02981359364163061  0.49983144840406857  1.0000
  O   O1        1.0  0.8553248445172213  0.28410778636112144  0.11553270102918113  1.0000
  C   C21       1.0  0.8297446698940674  0.23050916035806204  0.9805687234163397  1.0000
  H   H9        1.0  0.9212612036298164  0.26385120068103163  0.8525381106399925  1.0000
  H   H10       1.0  0.9004116336700265  0.381092443241829  0.36294095055232867  1.0000
  H   H11       1.0  0.847167104721619  0.9902442683614456  0.15126773450912867  1.0000
  H   H12       1.0  0.8807955578365522  0.8467412496787996  0.3730259451131684  1.0000
  H   H13       1.0  0.9179475782708169  0.7337758219378332  0.7384027036313563  1.0000
  H   H14       1.0  0.7747028169371165  0.16984021478415476  0.9921817227251939  1.0000
  H   H15       1.0  0.8737852090250455  0.15961915585831  0.941349249134801  1.0000
  H   H16       1.0  0.8204276767547776  0.3228872743920035  0.9000360180926297  1.0000
  C   C22       1.0  0.9128714305816554  0.6019586326550206  0.07530109208275992  1.0000
  C   C23       1.0  0.983332342800639  0.6025770866940177  0.1552919347697732  1.0000
  C   C24       1.0  0.05249322620332421  0.6165368565064637  0.08619426451699264  1.0000
  C   C25       1.0  0.05294975863386677  0.6303556957598362  0.9346559098321827  1.0000
  C   C26       1.0  0.982969285139441  0.6273290102310594  0.8538905998285782  1.0000
  C   C27       1.0  0.9127525139907923  0.6109467409221423  0.921813235706944  1.0000
  N   N3        1.0  0.12339817257746777  0.64603953967854  0.8603074718880804  1.0000
  C   C28       1.0  0.19912685934426866  0.6499537322106936  0.9341729781533168  1.0000
  H   H17       1.0  0.7921772502835471  0.5267203193277026  0.3499392805595727  1.0000
  H   H18       1.0  0.10534659834933452  0.6178231061699306  0.1521101052824032  1.0000
  H   H19       1.0  0.7345998264545404  0.4901040524968052  0.8097533617175543  1.0000
  H   H20       1.0  0.12085869143795437  0.6554712590775718  0.7472344097900576  1.0000
  H   H21       1.0  0.2036126902562965  0.74268314081537  0.004371901464538257  1.0000
  H   H22       1.0  0.20903096007571764  0.5473612764876674  0.00026631172447166954  1.0000
  Zn  Zn1       1.0  0.8287685495398502  0.6022990548792218  0.49092751400485657  1.0000
  Zn  Zn2       1.0  0.9968480367668698  0.6106052272322648  0.5061854898358265  1.0000
  C   C29       1.0  0.9128038192133158  0.6035042681966911  0.761786877815761  1.0000
  C   C30       1.0  0.9128145928190446  0.6094019251895457  0.2353264395833401  1.0000
  C   C31       1.0  0.911408027666258  0.8697039638469644  0.4936057756823762  1.0000
  C   C32       1.0  0.9142103362162642  0.3432004953928361  0.5035076081400625  1.0000
  O   O2        1.0  0.9765808404561226  0.6150458216086965  0.2948227114330473  1.0000
  O   O3        1.0  0.9766060191312248  0.6041634723837264  0.7138706383956863  1.0000
  O   O4        1.0  0.9754780397380036  0.8191230665963258  0.49731242745177934  1.0000
  O   O5        1.0  0.9777087624555183  0.40008623372759355  0.5113808091317948  1.0000
  O   O6        1.0  0.8479077664939149  0.8128180455508932  0.4857321894945131  1.0000
  O   O7        1.0  0.849035736679688  0.59786018265173  0.7022903288007076  1.0000
  O   O8        1.0  0.8490105585663394  0.6087424632400258  0.2832406687963745  1.0000
  O   O9        1.0  0.8501384806022735  0.39378286619442604  0.4997988745259068  1.0000
