data_image0
_chemical_formula_structural       NC6NC2H4C6NCH9C6NCOH5Zn2C4O8
_chemical_formula_sum              "N4 C26 H18 O9 Zn2"
_cell_length_a       14.927258858638513
_cell_length_b       9.273386996610927
_cell_length_c       9.27373355559583
_cell_angle_alpha    86.07967468279998
_cell_angle_beta     90.01105750145625
_cell_angle_gamma    89.39858807063658

_space_group_name_H-M_alt    "P 1"
_space_group_IT_number       1

loop_
  _space_group_symop_operation_xyz
  'x, y, z'

loop_
  _atom_site_type_symbol
  _atom_site_label
  _atom_site_symmetry_multiplicity
  _atom_site_fract_x
  _atom_site_fract_y
  _atom_site_fract_z
  _atom_site_occupancy
  N   N1        1.0  0.8331936343515153  0.5617731583837302  0.40769134959803877  1.0000
  C   C1        1.0  0.7556671433703573  0.5617731299767872  0.4076913602310974  1.0000
  C   C2        1.0  0.659234635072744  0.5617732445838952  0.40769131019370786  1.0000
  C   C3        1.0  0.6123304901328598  0.5367130974213892  0.28107525342691964  1.0000
  C   C4        1.0  0.5186191786154314  0.536713121634145  0.2810751199590953  1.0000
  C   C5        1.0  0.47141857224021844  0.5617730671656269  0.40769132911064565  1.0000
  C   C6        1.0  0.3749859969510493  0.5617731817756366  0.4076912790673286  1.0000
  N   N2        1.0  0.2974595059698913  0.5617731533686936  0.40769128970038726  1.0000
  C   C7        1.0  0.5183226501885465  0.5868332143310349  0.5343073858715071  1.0000
  C   C8        1.0  0.6120339617059756  0.5868331901182788  0.534307519339331  1.0000
  H   H1        1.0  0.6481420179791847  0.5172148886397316  0.18256069437812394  1.0000
  H   H2        1.0  0.48303836117920823  0.5172150862002827  0.1825606891190017  1.0000
  H   H3        1.0  0.4825111894027536  0.6063314139517175  0.6328220529960895  1.0000
  H   H4        1.0  0.6476147785105517  0.6063313240998003  0.632822060021381  1.0000
  C   C9        1.0  0.06808569760419014  0.13812676319282646  0.4083995379284353  1.0000
  C   C10       1.0  0.08380871359013803  0.2202028567345431  0.2780892081513824  1.0000
  C   C11       1.0  0.09109689741855376  0.15430037565533916  0.14777082382060547  1.0000
  C   C12       1.0  0.08277224557393531  0.003963840748718365  0.14443083091971198  1.0000
  C   C13       1.0  0.06862791233397462  0.9209199711682917  0.2742884916864261  1.0000
  C   C14       1.0  0.06257608551426097  0.9854085423490152  0.4069956333565603  1.0000
  N   N3        1.0  0.08930298747082421  0.9329960391075294  0.011421894713443908  1.0000
  C   C15       1.0  0.104219374101441  0.009382094674642339  0.8707821558078274  1.0000
  H   H5        1.0  0.08640003570978191  0.4028126479264719  0.64501190512425  1.0000
  H   H6        1.0  0.08837784317134428  0.3368297602414403  0.2763210547590278  1.0000
  H   H7        1.0  0.102389279753375  0.22185111600545193  0.049875243324315255  1.0000
  H   H8        1.0  0.06439938083358077  0.8044944841862901  0.2720149222389505  1.0000
  H   H9        1.0  0.09557828489750292  0.8578165068058312  0.7580191501927798  1.0000
  H   H10       1.0  0.0829696856173543  0.8206610134184249  0.014410459515011851  1.0000
  H   H11       1.0  0.0486825438326193  0.08768672937503964  0.845741607663173  1.0000
  H   H12       1.0  0.16906031279156353  0.066936337004436  0.871014712669667  1.0000
  H   H13       1.0  0.10647331706010249  0.9310291742571699  0.7854614276618088  1.0000
  C   C16       1.0  0.06530919640278168  0.5572223591395893  0.9844780979390539  1.0000
  C   C17       1.0  0.9830263155534056  0.5489420508799434  0.05844329195663023  1.0000
  C   C18       1.0  0.9014821075277131  0.5523530103972221  0.9834881661400593  1.0000
  C   C19       1.0  0.9021664078216761  0.5687336963249097  0.8321132885335101  1.0000
  C   C20       1.0  0.9831162591160723  0.5748612675045375  0.7569476692251658  1.0000
  C   C21       1.0  0.06535260201838478  0.5663129442130386  0.8309170674241253  1.0000
  N   N4        1.0  0.8189127762590388  0.5472931258642435  0.0635110473089926  1.0000
  C   C22       1.0  0.7386351188078242  0.48086005373626856  0.01683871472276133  1.0000
  O   O1        1.0  0.7386605029898159  0.40451350610753845  0.9096143888089512  1.0000
  H   H14       1.0  0.27576059716109425  0.6573963408556809  0.08062552888238295  1.0000
  H   H15       1.0  0.8402347737256751  0.578338999608272  0.7714827682661336  1.0000
  H   H16       1.0  0.20784122349700118  0.6276842286880324  0.5457091175350386  1.0000
  H   H17       1.0  0.818342512569637  0.5856520736407695  0.16686648512582458  1.0000
  H   H18       1.0  0.6773265591683922  0.4929589572143633  0.07723951583994193  1.0000
  Zn  Zn1       1.0  0.9671707697499794  0.5617693806754149  0.4076996663202712  1.0000
  Zn  Zn2       1.0  0.16348245890098645  0.5617652412336589  0.40769481489913706  1.0000
  C   C23       1.0  0.06537977245252008  0.5588474261055985  0.6709314820919869  1.0000
  C   C24       1.0  0.06527558808661031  0.5646890175499932  0.14446313751260975  1.0000
  C   C25       1.0  0.06361262887859986  0.8251925848150456  0.4015178947067979  1.0000
  C   C26       1.0  0.06704267594791771  0.29834212639366076  0.413876804608182  1.0000
  O   O2        1.0  0.13976361270122684  0.5671870315945053  0.19815374761462468  1.0000
  O   O3        1.0  0.13988778461601958  0.5563451775330384  0.6172367768058851  1.0000
  O   O4        1.0  0.1384597896226521  0.7714222777007198  0.39968339638577155  1.0000
  O   O5        1.0  0.14119154063406228  0.35210994058779876  0.41570701995895054  1.0000
  O   O6        1.0  0.9894616210253481  0.771424681324177  0.3996874612545298  1.0000
  O   O7        1.0  0.9908896047397726  0.5563493136062823  0.617240761958332  1.0000
  O   O8        1.0  0.9907654331226068  0.5671910987854514  0.19815600010512013  1.0000
  O   O9        1.0  0.9921933611244186  0.3521139986206714  0.4157093805193066  1.0000
