data_image0
_chemical_formula_structural       NC8NC6H8C6NH6C6OCH7Zn2C4O8
_chemical_formula_sum              "N3 C31 H21 O9 Zn2"
_cell_length_a       17.457602349358154
_cell_length_b       9.274771166103582
_cell_length_c       9.273891588657152
_cell_angle_alpha    85.97469330815719
_cell_angle_beta     92.54290593679646
_cell_angle_gamma    92.29117059398062

_space_group_name_H-M_alt    "P 1"
_space_group_IT_number       1

loop_
  _space_group_symop_operation_xyz
  'x, y, z'

loop_
  _atom_site_type_symbol
  _atom_site_label
  _atom_site_symmetry_multiplicity
  _atom_site_fract_x
  _atom_site_fract_y
  _atom_site_fract_z
  _atom_site_occupancy
  N   N1        1.0  0.7358566795791949  0.6005699095995545  0.4738513715095947  1.0000
  C   C1        1.0  0.674529221892254  0.5494420903654313  0.46214059386807116  1.0000
  C   C2        1.0  0.5982352859088939  0.48584552598693437  0.44758296550860016  1.0000
  C   C3        1.0  0.5397122837835626  0.5312037195926251  0.5306278509963629  1.0000
  C   C4        1.0  0.46486753534098696  0.4699666135770048  0.5167488435261482  1.0000
  C   C5        1.0  0.4027531782191026  0.51786053673586  0.6046967166910713  1.0000
  C   C6        1.0  0.3285013586566823  0.5378294912530721  0.5427955964366464  1.0000
  C   C7        1.0  0.2699768668646543  0.5829844064125294  0.6259605374026587  1.0000
  C   C8        1.0  0.19429781538265278  0.6036046338645258  0.5616003012549571  1.0000
  N   N2        1.0  0.1334647345685016  0.6201762103415156  0.5098548484577574  1.0000
  C   C9        1.0  0.28521188752799553  0.608445510230743  0.7715904754932754  1.0000
  C   C10       1.0  0.3586801520883492  0.5889125421443488  0.8339210871375844  1.0000
  C   C11       1.0  0.4171926691152449  0.5439621793311433  0.7512637544403056  1.0000
  C   C12       1.0  0.4498348894518596  0.3626045752169429  0.41823602602771337  1.0000
  C   C13       1.0  0.5083466003095498  0.31755993887766254  0.3356345600988635  1.0000
  C   C14       1.0  0.5824054960325107  0.37892731468684804  0.3501236105565293  1.0000
  H   H1        1.0  0.5523053123972648  0.6154017434734174  0.6044479432082488  1.0000
  H   H2        1.0  0.3163943587562266  0.5201919633851846  0.4296141478321347  1.0000
  H   H3        1.0  0.2403512160806421  0.6433362911127358  0.8368273348376569  1.0000
  H   H4        1.0  0.370284280059007  0.6082769619492675  0.9466860643057836  1.0000
  H   H5        1.0  0.4734362202580504  0.527760566766502  0.8024445005120234  1.0000
  H   H6        1.0  0.3931044722498377  0.31213152503231634  0.40648429902582245  1.0000
  H   H7        1.0  0.49627816613235454  0.23459050122616237  0.26048318563602035  1.0000
  H   H8        1.0  0.6272591787449284  0.34307533112707017  0.2854551724922503  1.0000
  C   C15       1.0  0.932306637976826  0.1866675038041017  0.49242559137957587  1.0000
  C   C16       1.0  0.915028306207359  0.26796088202675294  0.36196502733810415  1.0000
  C   C17       1.0  0.9049155847928889  0.20124208223693607  0.2313355212192643  1.0000
  C   C18       1.0  0.912124159664321  0.05184606997215634  0.23023094043241146  1.0000
  C   C19       1.0  0.9279889443019299  0.9691475795810806  0.35879285325156185  1.0000
  C   C20       1.0  0.9370220209741753  0.03406799181933006  0.49129380031408326  1.0000
  N   N3        1.0  0.8881127626923255  0.28564561998157356  0.0995013728399452  1.0000
  H   H9        1.0  0.017729636782165777  0.2733871968468786  0.8156088453847693  1.0000
  H   H10       1.0  0.9111615148623582  0.3843579192520676  0.36106121732540325  1.0000
  H   H11       1.0  0.9047065616364752  0.9990923072596243  0.12975759536979337  1.0000
  H   H12       1.0  0.9313821280011404  0.8531136259980185  0.35497208774155475  1.0000
  H   H13       1.0  0.8828268623963039  0.39745844800722563  0.09897591821733313  1.0000
  H   H14       1.0  0.880760471809452  0.23693367978886348  0.001404350003725746  1.0000
  C   C21       1.0  0.9358999281079513  0.6066083952559238  0.06870326170073549  1.0000
  C   C22       1.0  0.9990691525641505  0.6706495729099975  0.14288484239273805  1.0000
  C   C23       1.0  0.05794645930435572  0.7452502818340832  0.06827452404414004  1.0000
  C   C24       1.0  0.05386566500754133  0.756181669311845  0.9164439103545315  1.0000
  C   C25       1.0  0.9923034306592485  0.6913463235122494  0.8410672521269551  1.0000
  C   C26       1.0  0.9334287019177857  0.6141270080017431  0.9150160737989577  1.0000
  O   O1        1.0  0.1190105570496105  0.807411654522487  0.14890166070459657  1.0000
  C   C27       1.0  0.1826116372084905  0.8864618034851632  0.0874446971296874  1.0000
  H   H15       1.0  0.7529176923722394  0.508990323561973  0.1633144397800113  1.0000
  H   H16       1.0  0.0019609091574370663  0.6657632405198262  0.2600898965686771  1.0000
  H   H17       1.0  0.09836807566796146  0.813457750829343  0.8554501255132232  1.0000
  H   H18       1.0  0.8113688545335439  0.5427425903712553  0.6286411561376704  1.0000
  H   H19       1.0  0.16256048231631628  0.983085686640478  0.021053874308015315  1.0000
  H   H20       1.0  0.21420299790236974  0.8164304272450369  0.02002435842461715  1.0000
  H   H21       1.0  0.22207678284940635  0.9228864209088415  0.175798377736097  1.0000
  Zn  Zn1       1.0  0.8505977296493203  0.6062240690629548  0.48424952250060255  1.0000
  Zn  Zn2       1.0  0.018723569972478368  0.6145103258230709  0.49946851082610877  1.0000
  C   C28       1.0  0.9338621330728075  0.6069577647446941  0.755052372404043  1.0000
  C   C29       1.0  0.9354610121953091  0.6137785424109305  0.22866596611523152  1.0000
  C   C30       1.0  0.9361435220093961  0.8738400212263953  0.4857651220552648  1.0000
  C   C31       1.0  0.9331795560186197  0.3468945502679892  0.4979532904114601  1.0000
  O   O2        1.0  0.9991165531859274  0.6193232058409308  0.28812644615666594  1.0000
  O   O3        1.0  0.9978102098746733  0.6077010862952124  0.7071423390028337  1.0000
  O   O4        1.0  0.9996515958246021  0.8232118545117261  0.48969089923241943  1.0000
  O   O5        1.0  0.9972751102389589  0.4038124441585671  0.5055777726758425  1.0000
  O   O6        1.0  0.8720461320097734  0.8169219479012695  0.4781402554497934  1.0000
  O   O7        1.0  0.8702047559268783  0.6014129125198057  0.695591616071682  1.0000
  O   O8        1.0  0.8715111040681869  0.6130349663966166  0.27657399081019785  1.0000
  O   O9        1.0  0.8696696607451911  0.39752419535391326  0.4940254253795373  1.0000
