data_image0
_chemical_formula_structural       NC10NC5H10C7OC4NC3H8C6NCOC6H10Zn2C4O8
_chemical_formula_sum              "N4 C46 H28 O10 Zn2"
_cell_length_a       19.4436361288709
_cell_length_b       10.299371701877257
_cell_length_c       10.299662537453274
_cell_angle_alpha    85.55951811676591
_cell_angle_beta     89.69093770751046
_cell_angle_gamma    89.42830201241743

_space_group_name_H-M_alt    "P 1"
_space_group_IT_number       1

loop_
  _space_group_symop_operation_xyz
  'x, y, z'

loop_
  _atom_site_type_symbol
  _atom_site_label
  _atom_site_symmetry_multiplicity
  _atom_site_fract_x
  _atom_site_fract_y
  _atom_site_fract_z
  _atom_site_occupancy
  N   N1        1.0  0.6479546282809703  0.4098491890726079  0.5625920245375334  1.0000
  C   C1        1.0  0.5891186658168651  0.4197431042781805  0.5769800244717553  1.0000
  C   C2        1.0  0.515789344640596  0.43208211319562473  0.5949773626470511  1.0000
  C   C3        1.0  0.4736087993702218  0.40013767397042005  0.5002895857307645  1.0000
  C   C4        1.0  0.3977047202155449  0.4105729866403493  0.5056216974695693  1.0000
  C   C5        1.0  0.35795607590608325  0.3857658994980869  0.6126871293596978  1.0000
  C   C6        1.0  0.2818367464583025  0.38968967989430564  0.5997289435095932  1.0000
  C   C7        1.0  0.24127274395386003  0.4472989507296249  0.6935232876332276  1.0000
  C   C8        1.0  0.1696103781604602  0.45094252959302494  0.6829805271652796  1.0000
  C   C9        1.0  0.1375172043988007  0.3965806686923222  0.5789298066051648  1.0000
  C   C10       1.0  0.06372560983282248  0.4002855765923119  0.5682317838119046  1.0000
  N   N2        1.0  0.0044021728052743  0.40326412805207784  0.5596312827716672  1.0000
  C   C11       1.0  0.1773562266603411  0.338264097157287  0.48551844001906663  1.0000
  C   C12       1.0  0.2490350335388218  0.33456643382884477  0.49580939729069096  1.0000
  C   C13       1.0  0.38607642006342807  0.3452326735974267  0.7437693707798133  1.0000
  C   C14       1.0  0.4447406957711705  0.3883282680023976  0.7910290821499887  1.0000
  C   C15       1.0  0.48896191249047233  0.4862273454112262  0.716696824927658  1.0000
  H   H1        1.0  0.49571130128951724  0.37107066439847003  0.40996989188735145  1.0000
  H   H2        1.0  0.373014605788234  0.43311916195701156  0.4124698014264539  1.0000
  H   H3        1.0  0.265141618122063  0.49054494270647736  0.7743896128905512  1.0000
  H   H4        1.0  0.13926470324411272  0.4962166313116376  0.7559199773975394  1.0000
  H   H5        1.0  0.1530154649217955  0.2952135768695894  0.4049866784151242  1.0000
  H   H6        1.0  0.2787148436358267  0.2870485641299023  0.4235654520297252  1.0000
  H   H7        1.0  0.35510084162108424  0.28098022781119963  0.8079935272624806  1.0000
  H   H8        1.0  0.4598809492779091  0.35420691661974923  0.8889528179535249  1.0000
  H   H9        1.0  0.45886276517273084  0.5769553093097717  0.6914784612981092  1.0000
  H   H10       1.0  0.5322450384929114  0.5117783257439502  0.7797927713018498  1.0000
  C   C16       1.0  0.8261457299632097  0.025186879521994707  0.5609849545795612  1.0000
  C   C17       1.0  0.8295045682993956  0.03451716510863511  0.4242925414001722  1.0000
  C   C18       1.0  0.8304177089565908  0.9220686413503328  0.35529276572673996  1.0000
  C   C19       1.0  0.8295130367396141  0.7992485734295554  0.42460986605288237  1.0000
  C   C20       1.0  0.8262176479004582  0.7879163090440424  0.5612495685371065  1.0000
  C   C21       1.0  0.8243721049766722  0.901490359387453  0.6286321890916671  1.0000
  C   C22       1.0  0.8346867350792619  0.9317636551441105  0.21100771983881542  1.0000
  O   O1        1.0  0.8677966443017685  0.8454258411696385  0.15578698918615697  1.0000
  C   C23       1.0  0.801383053394673  0.03932302365686513  0.12937238671984574  1.0000
  C   C24       1.0  0.83085487829859  0.08346800833164747  0.00915765200446184  1.0000
  C   C25       1.0  0.7993647677496047  0.1839826376792939  0.9306286501856152  1.0000
  C   C26       1.0  0.8301711776214752  0.2292878411601131  0.8082166871797658  1.0000
  N   N3        1.0  0.8549381579850508  0.2657036140057598  0.7098151946148842  1.0000
  C   C27       1.0  0.7378894642597671  0.24028164697742588  0.9713110009100812  1.0000
  C   C28       1.0  0.7078372505966045  0.19593741245470553  0.0897910113990954  1.0000
  C   C29       1.0  0.7391298841037552  0.09572391004838729  0.16831025590501825  1.0000
  H   H11       1.0  0.8321848217307662  0.1294112908758824  0.3713838011881766  1.0000
  H   H12       1.0  0.8307267407654956  0.7124085832315292  0.37158767120861236  1.0000
  H   H13       1.0  0.8217830623223132  0.8934934922582216  0.7340122934266506  1.0000
  H   H14       1.0  0.8255305987501612  0.4560918447509684  0.6137803998847122  1.0000
  H   H15       1.0  0.8785564378162115  0.04050750260300196  0.9771846345527573  1.0000
  H   H16       1.0  0.7131026476099611  0.3179784681468427  0.9112775609609152  1.0000
  H   H17       1.0  0.6600183945553647  0.23891670446462454  0.12061200014825003  1.0000
  H   H18       1.0  0.7142703094327599  0.061439344523373844  0.258672825786024  1.0000
  C   C30       1.0  0.8262290469915975  0.40669125655892885  0.1797409370522381  1.0000
  C   C31       1.0  0.8964423138093299  0.4377687594636297  0.1753550093921912  1.0000
  C   C32       1.0  0.9320146706684006  0.4515366953826241  0.05645989226718751  1.0000
  C   C33       1.0  0.8963219337967614  0.4374609095154869  0.9402126048941346  1.0000
  C   C34       1.0  0.8261343492472986  0.4064119365063556  0.9424935822164384  1.0000
  C   C35       1.0  0.7915428555805926  0.3907567858181513  0.06282226566214355  1.0000
  N   N4        1.0  0.0036392231945059344  0.4852991403323186  0.05539359386978604  1.0000
  C   C36       1.0  0.052313279634514924  0.44454981600335336  0.9607624414393983  1.0000
  O   O2        1.0  0.0397594245559605  0.3462233384628072  0.8992809275554721  1.0000
  C   C37       1.0  0.11835512998716702  0.5136585948023412  0.937887908293042  1.0000
  C   C38       1.0  0.12666483742334278  0.6415755775375085  0.974217232070905  1.0000
  C   C39       1.0  0.18906687473659844  0.7059784192305685  0.9515311162474704  1.0000
  C   C40       1.0  0.243659394137838  0.6439427356824063  0.8920816100447859  1.0000
  C   C41       1.0  0.23590792663973995  0.517461825985605  0.8547421844742452  1.0000
  C   C42       1.0  0.173623115885289  0.45259978561408576  0.8770980882123705  1.0000
  H   H19       1.0  0.6936249426724416  0.3492777627178425  0.39518641027568724  1.0000
  H   H20       1.0  0.9240001320818861  0.45047885049268593  0.26455108292911333  1.0000
  H   H21       1.0  0.9229629486471651  0.4529326937435554  0.8478836716818133  1.0000
  H   H22       1.0  0.7374185132444109  0.3667825418469872  0.06533918543367578  1.0000
  H   H23       1.0  0.7989884906267513  0.3961863730329502  0.6157917553395866  1.0000
  H   H24       1.0  0.02241442930354243  0.5321562021492421  0.13417664953183306  1.0000
  H   H25       1.0  0.08487855554476399  0.6928828681574069  0.018355738321390813  1.0000
  H   H26       1.0  0.19499284156474575  0.8043486887546614  0.9796319924057499  1.0000
  H   H27       1.0  0.29189059558403074  0.6940299431863348  0.8745812066130818  1.0000
  H   H28       1.0  0.1688757289934764  0.35443036439162473  0.8476124626494413  1.0000
  Zn  Zn1       1.0  0.7508176899466966  0.4079454085796243  0.5617451295003415  1.0000
  Zn  Zn2       1.0  0.901539100328127  0.40515729692838254  0.5604888555160812  1.0000
  C   C43       1.0  0.826150209299352  0.4012910851200339  0.7983152240891433  1.0000
  C   C44       1.0  0.8262082269872588  0.41181322851822894  0.3239188752462326  1.0000
  C   C45       1.0  0.8262011545852663  0.6437461874910517  0.5560243116443429  1.0000
  C   C46       1.0  0.8261572301149465  0.1693565667673875  0.5662098568183608  1.0000
  O   O3        1.0  0.8833992288179212  0.4124684695029623  0.37182955699031317  1.0000
  O   O4        1.0  0.8833532704462028  0.39851875231685874  0.7494506852660083  1.0000
  O   O5        1.0  0.8833936381849159  0.5943043275135721  0.5537990661138201  1.0000
  O   O6        1.0  0.8833588096611685  0.21668290458354117  0.5674810791978451  1.0000
  O   O7        1.0  0.7689979291798358  0.5964198018773275  0.5547529062404515  1.0000
  O   O8        1.0  0.7689575615937014  0.4006357870132999  0.7504044566871862  1.0000
  O   O9        1.0  0.7690035202007945  0.4145854595142619  0.3727817669643768  1.0000
  O   O10       1.0  0.7689631010282625  0.21879988527041047  0.5684333865384392  1.0000
