data_image0
_chemical_formula_structural       NC11NC3H8C12NH11C12NH10Zn2C4O8
_chemical_formula_sum              "N4 C42 H29 Zn2 O8"
_cell_length_a       17.807433833752565
_cell_length_b       10.299770795358612
_cell_length_c       10.299774167527175
_cell_angle_alpha    85.57276865105106
_cell_angle_beta     88.5175958409119
_cell_angle_gamma    90.70213480944163

_space_group_name_H-M_alt    "P 1"
_space_group_IT_number       1

loop_
  _space_group_symop_operation_xyz
  'x, y, z'

loop_
  _atom_site_type_symbol
  _atom_site_label
  _atom_site_symmetry_multiplicity
  _atom_site_fract_x
  _atom_site_fract_y
  _atom_site_fract_z
  _atom_site_occupancy
  N   N1        1.0  0.7077660601614544  0.438043386414001  0.5346041105927419  1.0000
  C   C1        1.0  0.6569360157267806  0.4033363587187813  0.6011661883968253  1.0000
  C   C2        1.0  0.5936983158937331  0.36016367622301976  0.6839609190636272  1.0000
  C   C3        1.0  0.6054060346057749  0.2966497790771278  0.8066787975582241  1.0000
  C   C4        1.0  0.5440761778588113  0.2551561960634037  0.8871895676711137  1.0000
  C   C5        1.0  0.47088415678527457  0.27686343128437024  0.8456232505649577  1.0000
  C   C6        1.0  0.45819970254687387  0.34053174361791005  0.7224451840480273  1.0000
  C   C7        1.0  0.3804398824147763  0.3635682751772229  0.6780982378284233  1.0000
  C   C8        1.0  0.36166179158548384  0.3466576272884527  0.5485254792847212  1.0000
  C   C9        1.0  0.2884398239595035  0.3683261214380031  0.5069150960003923  1.0000
  C   C10       1.0  0.23305298413619444  0.4072235480209083  0.594057209721911  1.0000
  C   C11       1.0  0.15769450215230083  0.42955010407174776  0.5510855421564298  1.0000
  N   N2        1.0  0.0971116555776002  0.44749899643728774  0.5165394489060577  1.0000
  C   C12       1.0  0.2511395839788053  0.42434461554266434  0.7230988419833766  1.0000
  C   C13       1.0  0.3243087668767727  0.40264126710358833  0.7649646452947838  1.0000
  C   C14       1.0  0.5203868692856046  0.38202076656476475  0.6419508293602288  1.0000
  H   H1        1.0  0.6618665216004397  0.27924518969683  0.840044198660898  1.0000
  H   H2        1.0  0.5532592145027503  0.20573199494253203  0.9819253142921824  1.0000
  H   H3        1.0  0.4242345512668452  0.24232620512502073  0.9090621795034846  1.0000
  H   H4        1.0  0.403338996324155  0.3149954412516729  0.47981489722460724  1.0000
  H   H5        1.0  0.2750024253285365  0.3544157481333534  0.4068865163512956  1.0000
  H   H6        1.0  0.20874541091157733  0.4547836231984888  0.7912947824185859  1.0000
  H   H7        1.0  0.3372180213296713  0.4180969942308215  0.86481035012275  1.0000
  H   H8        1.0  0.5119025382657902  0.4328073886441415  0.5474492736731541  1.0000
  C   C15       1.0  0.9023743666590337  0.061401096160178734  0.5256143390829644  1.0000
  C   C16       1.0  0.8805780915111455  0.0700091152963962  0.39522113708389167  1.0000
  C   C17       1.0  0.8696026576521283  0.9572363721865121  0.3291115827363291  1.0000
  C   C18       1.0  0.880715604007123  0.8347308217136377  0.3951462070654628  1.0000
  C   C19       1.0  0.902510519579288  0.8241314779044155  0.5255400226682256  1.0000
  C   C20       1.0  0.9132182144040467  0.9380182123870614  0.5900437588814151  1.0000
  C   C21       1.0  0.8465437925222116  0.9673965699747509  0.1911631279225237  1.0000
  C   C22       1.0  0.7918431458824137  0.0572329770354556  0.14851597834236507  1.0000
  C   C23       1.0  0.7701723550724624  0.06666731191044106  0.01867633723410744  1.0000
  C   C24       1.0  0.8027920887075568  0.9866741235148166  0.9294228290524469  1.0000
  C   C25       1.0  0.8573125174646778  0.897031164434705  0.9711878215273614  1.0000
  C   C26       1.0  0.8790434923471033  0.887342256765532  0.10099469856921828  1.0000
  N   N3        1.0  0.780593668180602  0.9964548384514569  0.7966232973793914  1.0000
  H   H9        1.0  0.9106478047651771  0.3855725296141837  0.5753188083664611  1.0000
  H   H10       1.0  0.8730816999643901  0.16471755374417008  0.34421901808794014  1.0000
  H   H11       1.0  0.8713333317150568  0.7474594840816567  0.3451716494150858  1.0000
  H   H12       1.0  0.9300324823129789  0.930609465546337  0.6906363670517197  1.0000
  H   H13       1.0  0.9108480564697834  0.49264098479897145  0.5752098979227357  1.0000
  H   H14       1.0  0.7651142447828237  0.1190140279829992  0.21595639008862588  1.0000
  H   H15       1.0  0.7278187436668059  0.13611038919405247  0.9877313532614928  1.0000
  H   H16       1.0  0.8831123633230421  0.8348817969595643  0.9031012736138593  1.0000
  H   H17       1.0  0.9219731330005274  0.8184230253014156  0.13047347826214506  1.0000
  H   H18       1.0  0.8045902708742149  0.9372232301521373  0.7293732667329142  1.0000
  H   H19       1.0  0.7399985542414507  0.06300030808454046  0.7645736014081868  1.0000
  C   C27       1.0  0.9024679863309661  0.44265238245725214  0.14422393892373808  1.0000
  C   C28       1.0  0.8288817591079422  0.39156342789435183  0.15046332213269942  1.0000
  C   C29       1.0  0.7915687518396483  0.36579142951022714  0.036478256873843096  1.0000
  C   C30       1.0  0.8288301876658244  0.3917934763810966  0.9151609832806483  1.0000
  C   C31       1.0  0.9024168923749648  0.44288021604394046  0.9069304337539817  1.0000
  C   C32       1.0  0.9388236055090463  0.4680240890600247  0.0220002561784578  1.0000
  C   C33       1.0  0.7137187883633368  0.3117428433043319  0.04413251128705586  1.0000
  C   C34       1.0  0.6925875185948844  0.21277583033934652  0.14042046338364148  1.0000
  C   C35       1.0  0.6193116535712857  0.16196074054464327  0.14749109968810228  1.0000
  C   C36       1.0  0.5660079147226064  0.20919186763983963  0.0586553427756702  1.0000
  C   C37       1.0  0.586643360539084  0.30775667856884437  0.9625497951820388  1.0000
  C   C38       1.0  0.6598966849076322  0.3586724827480852  0.9552139155863131  1.0000
  N   N4        1.0  0.4910636999976672  0.15716020950079135  0.06602369149944144  1.0000
  H   H20       1.0  0.9305204751567658  0.46206625718484484  0.46930346132447565  1.0000
  H   H21       1.0  0.8000356388034783  0.3733597411212494  0.2440889567510305  1.0000
  H   H22       1.0  0.8006909863679873  0.37043455251326773  0.8271380023295754  1.0000
  H   H23       1.0  0.9955921547895719  0.5074359825002954  0.016418864696434502  1.0000
  H   H24       1.0  0.7329925285562726  0.1734889367244452  0.20919917365881813  1.0000
  H   H25       1.0  0.6041430601335666  0.08554574723511378  0.22202000978565598  1.0000
  H   H26       1.0  0.5459244282589157  0.34537063881447705  0.8935157454063627  1.0000
  H   H27       1.0  0.674187177782579  0.43593264497193734  0.8810576879142866  1.0000
  H   H28       1.0  0.450936733334624  0.19174209546574716  0.0002177790123869505  1.0000
  H   H29       1.0  0.47515177118656393  0.08367243296461813  0.13733969324522377  1.0000
  Zn  Zn1       1.0  0.8201227873480559  0.4407685987993162  0.5293985239982006  1.0000
  Zn  Zn2       1.0  0.984754911025709  0.444763167586546  0.5217556221138284  1.0000
  C   C39       1.0  0.9024239600865201  0.4376633876262792  0.7627631857721726  1.0000
  C   C40       1.0  0.9024555363488982  0.4478700610432306  0.2883910041812696  1.0000
  C   C41       1.0  0.9024812678367276  0.6799575537359772  0.5203793287309783  1.0000
  C   C42       1.0  0.9023981721380793  0.2055743332833964  0.5307749332181717  1.0000
  O   O1        1.0  0.9649283899579097  0.4511314139174649  0.33387434738198873  1.0000
  O   O2        1.0  0.9649030788709513  0.4374328401961209  0.71147868315063  1.0000
  O   O3        1.0  0.9649485132932755  0.6330884235256606  0.5157520426522799  1.0000
  O   O4        1.0  0.9648828993659733  0.25547583848602073  0.5296008931167666  1.0000
  O   O5        1.0  0.8399947428269281  0.6300559265381026  0.5215532555965786  1.0000
  O   O6        1.0  0.8399493086843519  0.4344019034969615  0.7172798267005374  1.0000
  O   O7        1.0  0.8399746199177656  0.44810043149707135  0.3396739295973674  1.0000
  O   O8        1.0  0.8399291293145781  0.2524448468057936  0.5354005726970341  1.0000
