data_image0
_chemical_formula_structural       NC6NCNCH5C6BrH3C6H4Zn2C4O8
_chemical_formula_sum              "N3 C24 H12 Br1 Zn2 O8"
_cell_length_a       14.933214217465613
_cell_length_b       9.276564384272257
_cell_length_c       10.681121600428288
_cell_angle_alpha    85.5120417802204
_cell_angle_beta     89.96595612778619
_cell_angle_gamma    90.62004099175812

_space_group_name_H-M_alt    "P 1"
_space_group_IT_number       1

loop_
  _space_group_symop_operation_xyz
  'x, y, z'

loop_
  _atom_site_type_symbol
  _atom_site_label
  _atom_site_symmetry_multiplicity
  _atom_site_fract_x
  _atom_site_fract_y
  _atom_site_fract_z
  _atom_site_occupancy
  N   N1        1.0  0.8532662712080495  0.5791161452663054  0.6167397018961032  1.0000
  C   C1        1.0  0.7757823420561734  0.5801128597062859  0.6158784477458715  1.0000
  C   C2        1.0  0.6793917942908904  0.5813555080070687  0.614804570359633  1.0000
  C   C3        1.0  0.6309591219324874  0.48558940725131144  0.6975721576835157  1.0000
  C   C4        1.0  0.5374325754657558  0.48667231547035555  0.6966362602898829  1.0000
  C   C5        1.0  0.4914359988822774  0.5834664552593848  0.612980203442673  1.0000
  C   C6        1.0  0.39484707700334293  0.5813576647507963  0.614802769692981  1.0000
  N   N2        1.0  0.3173502614191132  0.5795984675747172  0.6163228683840656  1.0000
  C   C7        1.0  0.539975118077598  0.6804418207284137  0.5291675984082187  1.0000
  N   N3        1.0  0.49530246332908967  0.7810481161088592  0.44221702101305566  1.0000
  C   C8        1.0  0.6339758857744627  0.6783927485636481  0.5309386471689415  1.0000
  H   H1        1.0  0.6654771212885997  0.41008427730079156  0.7628287966820877  1.0000
  H   H2        1.0  0.500873603350474  0.4118023464384932  0.7613438389781298  1.0000
  H   H3        1.0  0.5321093794815323  0.8521059498047199  0.38080396568033315  1.0000
  H   H4        1.0  0.4255949889332628  0.7864012290498046  0.4375905582137751  1.0000
  H   H5        1.0  0.6716545094575899  0.7525094025215984  0.4668819919829928  1.0000
  C   C9        1.0  0.08261456585156562  0.15587352337543936  0.6168539545611975  1.0000
  C   C10       1.0  0.07113883061433258  0.23936088315894444  0.5024074198735728  1.0000
  C   C11       1.0  0.0679970011500044  0.17436874613618242  0.3890224843356245  1.0000
  C   C12       1.0  0.07631101090958797  0.024970225661887998  0.3879311017433192  1.0000
  C   C13       1.0  0.08620917916111705  0.9397878973308229  0.5006482725774104  1.0000
  C   C14       1.0  0.0880104592456652  0.00282993341970438  0.6162194341470522  1.0000
  Br  Br1       1.0  0.07267129231552773  0.9366086649101778  0.23234655648040886  1.0000
  H   H6        1.0  0.059949959424619115  0.24058061402577113  0.3017995779650371  1.0000
  H   H7        1.0  0.09035248932832432  0.8235522206750485  0.497944610342804  1.0000
  H   H8        1.0  0.13740978776058654  0.7049486136275757  0.8112174215836971  1.0000
  C   C15       1.0  0.085312530184601  0.5793517231121024  0.2487914874294888  1.0000
  C   C16       1.0  0.02070639099669292  0.4990809514481467  0.1874866435582181  1.0000
  C   C17       1.0  0.020706335676188514  0.4990810438585959  0.05660450358626635  1.0000
  C   C18       1.0  0.08531246023800493  0.5793517937303987  0.9842819231161002  1.0000
  C   C19       1.0  0.14986527368470193  0.6595560451855396  0.0455862839408252  1.0000
  C   C20       1.0  0.14986526208521347  0.6595560228119002  0.17647858263091165  1.0000
  H   H9        1.0  0.9700650491079992  0.4361609268550081  0.24061569338563984  1.0000
  H   H10       1.0  0.9700650308383213  0.436160994717548  0.012111664126051695  1.0000
  H   H11       1.0  0.20051322916803005  0.7224843609560383  0.9925015573830973  1.0000
  H   H12       1.0  0.20051318372789217  0.722484310355557  0.22092592494589436  1.0000
  Zn  Zn1       1.0  0.9871908619704891  0.5792514635559867  0.6166266549224788  1.0000
  Zn  Zn2       1.0  0.18342558062176018  0.5794513186386995  0.6164462081288187  1.0000
  C   C21       1.0  0.0852738982910935  0.5736067404717716  0.8452628035461405  1.0000
  C   C22       1.0  0.08534469877052714  0.5850978634788684  0.38781017908454235  1.0000
  C   C23       1.0  0.08698590828723951  0.842737160785802  0.6113491116785461  1.0000
  C   C24       1.0  0.08363261077488221  0.31596571048871613  0.6217239390768656  1.0000
  O   O1        1.0  0.1598255078020797  0.5870958732265672  0.43439764805069436  1.0000
  O   O2        1.0  0.15973069322255684  0.5717593281935303  0.7985380199627532  1.0000
  O   O3        1.0  0.16111215905376106  0.7890855451934714  0.6096510586013311  1.0000
  O   O4        1.0  0.15844397507498698  0.36976966647457177  0.6232845155698216  1.0000
  O   O5        1.0  0.012172400551993423  0.7889331156534835  0.6097883475364652  1.0000
  O   O6        1.0  0.010790945755019495  0.5716086312630331  0.798675240828148  1.0000
  O   O7        1.0  0.010885760074018876  0.5869451260424374  0.4345333633310968  1.0000
  O   O8        1.0  0.00950422727754586  0.369618908975865  0.6234203247475085  1.0000
