data_image0
_chemical_formula_structural       NC8NH4C6NH5C6ClH3Zn2C4O8
_chemical_formula_sum              "N3 C24 H12 Cl1 Zn2 O8"
_cell_length_a       14.927258825633057
_cell_length_b       9.274771166103582
_cell_length_c       9.276548810779735
_cell_angle_alpha    85.98017888068892
_cell_angle_beta     89.72476465157726
_cell_angle_gamma    90.59705077502286

_space_group_name_H-M_alt    "P 1"
_space_group_IT_number       1

loop_
  _space_group_symop_operation_xyz
  'x, y, z'

loop_
  _atom_site_type_symbol
  _atom_site_label
  _atom_site_symmetry_multiplicity
  _atom_site_fract_x
  _atom_site_fract_y
  _atom_site_fract_z
  _atom_site_occupancy
  N   N1        1.0  0.8584488765737599  0.5641180237247563  0.40769372523201985  1.0000
  C   C1        1.0  0.7809224520265304  0.5641179973550247  0.4076937349293111  1.0000
  C   C2        1.0  0.6844898101177618  0.5641179975680863  0.4076937899926809  1.0000
  C   C3        1.0  0.6371275913179887  0.47496317245097996  0.3181469230042806  1.0000
  C   C4        1.0  0.5434162792630784  0.4749630823382916  0.3181468947138005  1.0000
  C   C5        1.0  0.4966738133096796  0.5641180498219382  0.4076937021074609  1.0000
  C   C6        1.0  0.5440360324961284  0.6532728842695557  0.49724046104383907  1.0000
  C   C7        1.0  0.6377474115425381  0.6532729743793317  0.4972404893402465  1.0000
  C   C8        1.0  0.4002411710941031  0.5641179516774089  0.4076936473666908  1.0000
  N   N2        1.0  0.3227147472403574  0.5641180329957792  0.40769365881609965  1.0000
  H   H1        1.0  0.6725825983385189  0.40559549125772393  0.24847445416725455  1.0000
  H   H2        1.0  0.5074789420178247  0.4055954684657255  0.24847455140838196  1.0000
  H   H3        1.0  0.5085810254755984  0.7226405654628113  0.5669129298808644  1.0000
  H   H4        1.0  0.6736846814096165  0.7226405789242993  0.5669129406917608  1.0000
  C   C9        1.0  0.08783348548991543  0.14052862709123337  0.408479117938245  1.0000
  C   C10       1.0  0.0675960124263868  0.22266055115707314  0.27962149894679333  1.0000
  C   C11       1.0  0.0557250472545916  0.15642687099261998  0.14994633361027154  1.0000
  C   C12       1.0  0.0641412671296826  0.006675215793677805  0.1481895379181455  1.0000
  C   C13       1.0  0.08272735768087003  0.9232076975736905  0.2752770300714591  1.0000
  C   C14       1.0  0.09333863329517356  0.9876964337885343  0.406920811987584  1.0000
  N   N3        1.0  0.03604211500882748  0.24164535896485903  0.01967249466447108  1.0000
  H   H5        1.0  0.18773030870087526  0.223068997618056  0.7238333512425108  1.0000
  H   H6        1.0  0.0554317540807594  0.9542767979692681  0.04841758112167739  1.0000
  H   H7        1.0  0.15698596047456245  0.6925895787428727  0.6214733476751945  1.0000
  H   H8        1.0  0.02987002606041566  0.3537188332204157  0.019625693586807772  1.0000
  H   H9        1.0  0.02741000664899972  0.19328579084881167  0.9222702405618032  1.0000
  C   C15       1.0  0.0918236350851529  0.560248050712344  0.9845577046551371  1.0000
  C   C16       1.0  0.16732672123490278  0.6150807154124118  0.05356330817516674  1.0000
  C   C17       1.0  0.23787522453686272  0.680664352878796  0.9732101920445375  1.0000
  C   C18       1.0  0.233979550305921  0.6925192306686498  0.8227488596663837  1.0000
  C   C19       1.0  0.16042184550423833  0.6366747497290502  0.7520960108817762  1.0000
  C   C20       1.0  0.08934844709427847  0.567976914227164  0.830842225120068  1.0000
  Cl  Cl1       1.0  0.33081129079589844  0.7501197041064256  0.06158689057906753  1.0000
  H   H10       1.0  0.9820811828790991  0.3987948432237438  0.27785684160389645  1.0000
  H   H11       1.0  0.2884007951601135  0.7438332860791022  0.7601652097813294  1.0000
  H   H12       1.0  0.9451020821920297  0.5150928553261664  0.5543434161783014  1.0000
  Zn  Zn1       1.0  0.9924259372425518  0.5641142296194612  0.40770204277552047  1.0000
  Zn  Zn2       1.0  0.18873758810757368  0.5641100933438647  0.4076971953785573  1.0000
  C   C21       1.0  0.08977698758005515  0.5607695951852165  0.6708868750326009  1.0000
  C   C22       1.0  0.09138869290060203  0.5674565490521271  0.14451250114918174  1.0000
  C   C23       1.0  0.09231021519570404  0.8275112135250907  0.40147330488894717  1.0000
  C   C24       1.0  0.08885538681103866  0.30071319837502286  0.4139261513050576  1.0000
  O   O1        1.0  0.16574192985315528  0.569867924267188  0.198192964071539  1.0000
  O   O2        1.0  0.16441974543348925  0.5583539886590299  0.617202320254445  1.0000
  O   O3        1.0  0.16646435010253047  0.7737512325814047  0.3996489534836123  1.0000
  O   O4        1.0  0.16369725857929085  0.354470689678237  0.41574622278442114  1.0000
  O   O5        1.0  0.01746619977933506  0.7737536332880017  0.39965301536372877  1.0000
  O   O6        1.0  0.015421606592709523  0.5583581217057689  0.6172063021164116  1.0000
  O   O7        1.0  0.016743795812222517  0.569871991225896  0.19819521359690362  1.0000
  O   O8        1.0  0.014699124151682282  0.3544747473064347  0.4157485803618089  1.0000
