data_image0
_chemical_formula_structural       NC9NC3NH7C7NC2NH7C7OCH10Zn2C4O8
_chemical_formula_sum              "N5 C33 H24 O9 Zn2"
_cell_length_a       16.053384444249904
_cell_length_b       9.273995741505848
_cell_length_c       10.300835455316061
_cell_angle_alpha    85.71363745915025
_cell_angle_beta     89.8165277291342
_cell_angle_gamma    89.75855226915094

_space_group_name_H-M_alt    "P 1"
_space_group_IT_number       1

loop_
  _space_group_symop_operation_xyz
  'x, y, z'

loop_
  _atom_site_type_symbol
  _atom_site_label
  _atom_site_symmetry_multiplicity
  _atom_site_fract_x
  _atom_site_fract_y
  _atom_site_fract_z
  _atom_site_occupancy
  N   N1        1.0  0.7933369596221412  0.558504009166821  0.5682302621289439  1.0000
  C   C1        1.0  0.7424348397174827  0.5353820515662949  0.4933433846170085  1.0000
  C   C2        1.0  0.6791774542520403  0.506652772282137  0.400315613373184  1.0000
  C   C3        1.0  0.6926963290875332  0.4932174653681995  0.2695742083595156  1.0000
  C   C4        1.0  0.6158989965413998  0.46508701841948086  0.21726645880779216  1.0000
  C   C5        1.0  0.5588059074902997  0.46292576086428316  0.31891636895914655  1.0000
  C   C6        1.0  0.467996428353876  0.4364753610958023  0.3086122164124785  1.0000
  C   C7        1.0  0.4123933685804804  0.4839168893118926  0.40260948944956415  1.0000
  C   C8        1.0  0.326695874812195  0.45883113216866644  0.3927406137879477  1.0000
  C   C9        1.0  0.2703244906706169  0.5082104056982476  0.48911372599913094  1.0000
  N   N2        1.0  0.2250185175963958  0.5479043780327599  0.5665826175204991  1.0000
  C   C10       1.0  0.2958746818853547  0.38617951587797633  0.2888878953038878  1.0000
  C   C11       1.0  0.3504700022432367  0.33887083425971753  0.19510255252960731  1.0000
  C   C12       1.0  0.4359603891142176  0.3637725114570712  0.20457450018567802  1.0000
  N   N3        1.0  0.5981611432282882  0.4884531962926133  0.4305097529962869  1.0000
  H   H1        1.0  0.7514794608302857  0.5027946626202822  0.21798818743196602  1.0000
  H   H2        1.0  0.6035336116553499  0.44977483586615974  0.1160737501684257  1.0000
  H   H3        1.0  0.4350655053825485  0.5421763955555907  0.4825246940977339  1.0000
  H   H4        1.0  0.229733861304234  0.36622981370428387  0.28041221369932257  1.0000
  H   H5        1.0  0.3265182128663882  0.2824340949932207  0.11495760510021569  1.0000
  H   H6        1.0  0.4768372719686041  0.3244051090493618  0.1312509912935944  1.0000
  H   H7        1.0  0.5720264716554293  0.49110022129331954  0.523259426178226  1.0000
  C   C13       1.0  0.0066903809325331584  0.1297761059582445  0.5664673588449578  1.0000
  C   C14       1.0  0.021293405154576568  0.21262927765234882  0.448982395770138  1.0000
  C   C15       1.0  0.043350739595822585  0.14694977335069503  0.33633937675241343  1.0000
  C   C16       1.0  0.051725427812582714  0.9962984111750555  0.3379626356366978  1.0000
  C   C17       1.0  0.0353730943276498  0.9122103712896563  0.45437860338709896  1.0000
  C   C18       1.0  0.011672986787516942  0.9766209811658467  0.5683566498125423  1.0000
  C   C19       1.0  0.07611743850474674  0.9286769591630192  0.217204342251329  1.0000
  N   N4        1.0  0.07912962573360671  0.002862931306807366  0.09920211901830234  1.0000
  C   C20       1.0  0.10409921734139949  0.9043453007123762  0.017440727576967466  1.0000
  C   C21       1.0  0.11599750628064844  0.7731530823967359  0.0863284878587498  1.0000
  N   N5        1.0  0.09843558416664733  0.788609335387868  0.21194398444823093  1.0000
  H   H8        1.0  0.9391755816642905  0.39607457307081617  0.753605723073246  1.0000
  H   H9        1.0  0.017668245184394134  0.32956129509979304  0.44480822293204825  1.0000
  H   H10       1.0  0.0550903018173412  0.21484305463237474  0.24808574580328857  1.0000
  H   H11       1.0  0.038193987146765584  0.7955793796729154  0.4561673110496543  1.0000
  H   H12       1.0  0.012803333870490938  0.6786075152695392  0.7842869851782052  1.0000
  H   H13       1.0  0.11329552987264127  0.9271195238092773  0.913879075660315  1.0000
  H   H14       1.0  0.10297680822876187  0.707972924566102  0.28782822216508075  1.0000
  C   C22       1.0  0.009105563970678524  0.5531268603148973  0.18609560237917733  1.0000
  C   C23       1.0  0.08599331732928839  0.6250193929852084  0.1800319948606115  1.0000
  C   C24       1.0  0.1242445077073917  0.6627677278126156  0.05975996852519683  1.0000
  C   C25       1.0  0.08619338643511076  0.6252061160279725  0.9447328780531401  1.0000
  C   C26       1.0  0.009257818488032093  0.553270261146362  0.9487284566360626  1.0000
  C   C27       1.0  0.971074643512819  0.5179648029169037  0.06984162449233877  1.0000
  C   C28       1.0  0.20765009871329276  0.7358865217600764  0.05464572205251805  1.0000
  O   O1        1.0  0.270688609016132  0.6290773374868597  0.06167601413615964  1.0000
  C   C29       1.0  0.34933759920108165  0.6963628645731106  0.05699188370755137  1.0000
  H   H15       1.0  0.980113443975496  0.5240864935547428  0.5159156139480696  1.0000
  H   H16       1.0  0.11645209600065343  0.6519236224014533  0.26871654775903653  1.0000
  H   H17       1.0  0.11678939556255763  0.6522398478092075  0.8522423767839933  1.0000
  H   H18       1.0  0.9117794136803509  0.46250715119847613  0.07375576603854994  1.0000
  H   H19       1.0  0.8645786052339891  0.416120668406936  0.7491108697460493  1.0000
  H   H20       1.0  0.21247216471135655  0.8061594505250884  0.13746855231670274  1.0000
  H   H21       1.0  0.21266529438833381  0.806176704794598  0.9623538168141246  1.0000
  H   H22       1.0  0.39818925903365976  0.6111897206185266  0.06259377049884018  1.0000
  H   H23       1.0  0.35815749320953993  0.7631083236642372  0.14125197977893977  1.0000
  H   H24       1.0  0.3583612323629455  0.7631634748582499  0.9637403216183413  1.0000
  Zn  Zn1       1.0  0.9179109090186252  0.5554413404943315  0.5677622707133008  1.0000
  Zn  Zn2       1.0  0.10044447774099496  0.5509553014457034  0.5670611955148297  1.0000
  C   C30       1.0  0.009193368993820622  0.5474989604097233  0.8045616885735309  1.0000
  C   C31       1.0  0.009164021756600471  0.5588994519008437  0.33026190150672985  1.0000
  C   C32       1.0  0.01072584676217803  0.8165484482468095  0.5628251115103702  1.0000
  C   C33       1.0  0.007631471523263711  0.28984823322773434  0.5719985441732662  1.0000
  O   O2        1.0  0.07845414175993899  0.5591280673455594  0.3783793600508705  1.0000
  O   O3        1.0  0.07844199763671722  0.5438644572859457  0.7559117539541329  1.0000
  O   O4        1.0  0.07967855928503487  0.7611253445130329  0.5607077645807355  1.0000
  O   O5        1.0  0.07721751786653287  0.3418671919457337  0.5735832523252469  1.0000
  O   O6        1.0  0.9411378066033464  0.7645294515267346  0.5612402141352999  1.0000
  O   O7        1.0  0.9399012551302673  0.5472702966681036  0.7564441381377376  1.0000
  O   O8        1.0  0.9399133987016014  0.5625338561857647  0.37891018293642054  1.0000
  O   O9        1.0  0.938676774763543  0.34527297049111083  0.5741141725422341  1.0000
