data_image0
_chemical_formula_structural       NC6NCNCH5C6NCH9C9H9Zn2C4O8
_chemical_formula_sum              "N4 C28 H23 Zn2 O8"
_cell_length_a       14.933214217465613
_cell_length_b       9.273386996610927
_cell_length_c       10.297187173949778
_cell_angle_alpha    85.47297527559209
_cell_angle_beta     89.94016841995526
_cell_angle_gamma    89.43266693644959

_space_group_name_H-M_alt    "P 1"
_space_group_IT_number       1

loop_
  _space_group_symop_operation_xyz
  'x, y, z'

loop_
  _atom_site_type_symbol
  _atom_site_label
  _atom_site_symmetry_multiplicity
  _atom_site_fract_x
  _atom_site_fract_y
  _atom_site_fract_z
  _atom_site_occupancy
  N   N1        1.0  0.8333845816830548  0.5795444271883747  0.5640550878752708  1.0000
  C   C1        1.0  0.7558880996852991  0.5805414136277463  0.5631610212938951  1.0000
  C   C2        1.0  0.6594819017643936  0.5817844010262443  0.5620462309583427  1.0000
  C   C3        1.0  0.6122553238149722  0.48599216845302395  0.6479671196492649  1.0000
  C   C4        1.0  0.5187151390113867  0.48707537217023583  0.6469955661688409  1.0000
  C   C5        1.0  0.4714995207118465  0.5838959243035458  0.5601523587822237  1.0000
  C   C6        1.0  0.3749371572940073  0.5817865583674422  0.5620443616373174  1.0000
  N   N2        1.0  0.2974624974385056  0.5800268811118372  0.5636223737118491  1.0000
  C   C7        1.0  0.5188173157787306  0.6808977515793639  0.47314663892894093  1.0000
  N   N3        1.0  0.4728776083184743  0.7815314995606706  0.38288339531400983  1.0000
  C   C8        1.0  0.6128438898030864  0.6788481202959623  0.47498516148926156  1.0000
  H   H1        1.0  0.6477242475119199  0.410466435316587  0.7157099233187512  1.0000
  H   H2        1.0  0.48309909194913253  0.4121849732539277  0.714168391374806  1.0000
  H   H3        1.0  0.5087896101519187  0.8526087228927962  0.31913060923418457  1.0000
  H   H4        1.0  0.4031027158962769  0.7868860732211106  0.3780806722640173  1.0000
  H   H5        1.0  0.649589075856217  0.7529849985601385  0.40848805895820645  1.0000
  C   C9        1.0  0.06818130214327489  0.1561346002910453  0.5644744917265796  1.0000
  C   C10       1.0  0.08394118716988719  0.2396105304173859  0.4470094473522537  1.0000
  C   C11       1.0  0.09126965797592117  0.17509920641747612  0.32954500370879636  1.0000
  C   C12       1.0  0.0829494849505308  0.024789481517251133  0.32654238246999556  1.0000
  C   C13       1.0  0.06876779365082775  0.9403522217973258  0.4435979592164592  1.0000
  C   C14       1.0  0.06267438669342718  0.0034255593399068474  0.5632142687056894  1.0000
  N   N4        1.0  0.08952171320388064  0.9552406153138702  0.20665361534688254  1.0000
  C   C15       1.0  0.10447872264460628  0.03313533606637975  0.07987929210856204  1.0000
  H   H6        1.0  0.0864097198303806  0.4183274149402835  0.777719223260602  1.0000
  H   H7        1.0  0.08850905336053483  0.35626095430969884  0.44541152977920917  1.0000
  H   H8        1.0  0.10258994851852267  0.2437010335495655  0.24129992262056832  1.0000
  H   H9        1.0  0.06454172862445386  0.823946479124789  0.44155270211514774  1.0000
  H   H10       1.0  0.0955467583931735  0.8721410192410115  0.8795655672872835  1.0000
  H   H11       1.0  0.08318998413772244  0.8428672789619469  0.209353149597302  1.0000
  H   H12       1.0  0.048972687376914986  0.11164811411850772  0.05736167562041583  1.0000
  H   H13       1.0  0.1692933300714755  0.09075448853873858  0.08002847347495434  1.0000
  H   H14       1.0  0.10676006130193263  0.9556906036132649  0.0029765116155859844  1.0000
  C   C16       1.0  0.06554657683002163  0.5797280632062147  0.18239118125699916  1.0000
  C   C17       1.0  0.9745402566243101  0.6192594698446359  0.1789349424588298  1.0000
  C   C18       1.0  0.9279150380211509  0.6395123326826195  0.06054780604068211  1.0000
  C   C19       1.0  0.9741874750027004  0.6194121595922073  0.9437123177131097  1.0000
  C   C20       1.0  0.0653091390984682  0.5798321424816286  0.9452975565191809  1.0000
  C   C21       1.0  0.11039364110146765  0.5602471450429556  0.06502613296605642  1.0000
  C   C22       1.0  0.8294851455416762  0.682268079105149  0.06624180723961559  1.0000
  C   C23       1.0  0.7671704712928398  0.6241760900292204  0.9661147216494008  1.0000
  C   C24       1.0  0.7927641260072559  0.7833633054531268  0.9547536629474385  1.0000
  H   H15       1.0  0.9394068904652765  0.6345211232285515  0.26902300226360376  1.0000
  H   H16       1.0  0.9400290400173984  0.6342466195208498  0.8511148579187893  1.0000
  H   H17       1.0  0.1806067576414352  0.5297471165730248  0.06696534779029606  1.0000
  H   H18       1.0  0.2374090280228416  0.5050581710475925  0.7410765082980566  1.0000
  H   H19       1.0  0.797848297079968  0.6960117190282493  0.16232801189745838  1.0000
  H   H20       1.0  0.7979197547531883  0.5590919815107294  0.8916583169437096  1.0000
  H   H21       1.0  0.6976999208450665  0.6045831813036389  0.0013272243912627573  1.0000
  H   H22       1.0  0.8390605955904644  0.8149765458930178  0.8733969645632196  1.0000
  H   H23       1.0  0.7382511382914971  0.8568087489297754  0.9833237101110403  1.0000
  Zn  Zn1       1.0  0.9673074669638936  0.5796797829546725  0.5639377307966653  1.0000
  Zn  Zn2       1.0  0.16353967109798195  0.5798796914805637  0.5637504156424225  1.0000
  C   C25       1.0  0.06538936789790875  0.5740651631843057  0.8011004632558936  1.0000
  C   C26       1.0  0.0654599011430157  0.5854961337435622  0.32658780592485903  1.0000
  C   C27       1.0  0.0637123278044778  0.8432688357955196  0.5582761457870555  1.0000
  C   C28       1.0  0.0671368855199448  0.31629072778128897  0.569412195289619  1.0000
  O   O1        1.0  0.1398999516934909  0.5875015212532095  0.37491043465244905  1.0000
  O   O2        1.0  0.13988502697105942  0.5722104132255568  0.7526352943505541  1.0000
  O   O3        1.0  0.13852979158709133  0.7895957825657502  0.5565529386992285  1.0000
  O   O4        1.0  0.14125512007993835  0.3701161621517406  0.5709926929561573  1.0000
  O   O5        1.0  0.9895919510175084  0.7894433122168467  0.556695453540017  1.0000
  O   O6        1.0  0.9909471751535497  0.5720596761610639  0.7527777373525066  1.0000
  O   O7        1.0  0.9909621007483624  0.5873507337023102  0.37505131598341146  1.0000
  O   O8        1.0  0.9923172691679024  0.36996536429546767  0.5711336716918236  1.0000
