data_image0
_chemical_formula_structural       NC8NC6H8C6SCNH4C6NO2H3Zn2C4O8
_chemical_formula_sum              "N4 C31 H15 S1 O10 Zn2"
_cell_length_a       17.457602349358154
_cell_length_b       10.302215558581764
_cell_length_c       9.273395971720358
_cell_angle_alpha    84.96984654489938
_cell_angle_beta     92.78021970675468
_cell_angle_gamma    91.70712283406877

_space_group_name_H-M_alt    "P 1"
_space_group_IT_number       1

loop_
  _space_group_symop_operation_xyz
  'x, y, z'

loop_
  _atom_site_type_symbol
  _atom_site_label
  _atom_site_symmetry_multiplicity
  _atom_site_fract_x
  _atom_site_fract_y
  _atom_site_fract_z
  _atom_site_occupancy
  N   N1        1.0  0.7242901563401607  0.46690138828739736  0.47354327957757447  1.0000
  C   C1        1.0  0.6632152278315521  0.4210993229655926  0.46173738137904485  1.0000
  C   C2        1.0  0.5872354239321089  0.364127166359212  0.4470614508365982  1.0000
  C   C3        1.0  0.5286289225939755  0.4034917248728187  0.5303168544792116  1.0000
  C   C4        1.0  0.45408691975059823  0.34863083913986004  0.5163241743707085  1.0000
  C   C5        1.0  0.3918848991043397  0.390191508012487  0.6044947866744255  1.0000
  C   C6        1.0  0.3174058714203485  0.40924132337674246  0.5425154156364282  1.0000
  C   C7        1.0  0.258799206717308  0.44842086821229277  0.6258907858178435  1.0000
  C   C8        1.0  0.18288468532949237  0.4680996681994602  0.5614489825009324  1.0000
  N   N2        1.0  0.12186232519399669  0.48391504371329686  0.5096379396410129  1.0000
  C   C9        1.0  0.2741788723816966  0.4687883333650923  0.7718107852921147  1.0000
  C   C10       1.0  0.34787282922978846  0.4501233329659901  0.8342210310922209  1.0000
  C   C11       1.0  0.4064674000561984  0.41111898642409533  0.75135444961963  1.0000
  C   C12       1.0  0.43944157207326956  0.2537432061712117  0.4174832860785611  1.0000
  C   C13       1.0  0.49803595218938135  0.21465305336828774  0.33467253045577716  1.0000
  C   C14       1.0  0.571792581138161  0.2696205064303656  0.3492765031591627  1.0000
  H   H1        1.0  0.540911565091245  0.4779668142501206  0.6043882657992689  1.0000
  H   H2        1.0  0.3051748812850794  0.3953470943624666  0.4291116813166804  1.0000
  H   H3        1.0  0.2292565946714328  0.499044954814262  0.8372119358311128  1.0000
  H   H4        1.0  0.35959084739270814  0.46557875261833304  0.9472100970915645  1.0000
  H   H5        1.0  0.4628971470245751  0.39564637945882875  0.802600346599371  1.0000
  H   H6        1.0  0.38296008074122606  0.2085310399048617  0.4056373252349959  1.0000
  H   H7        1.0  0.4862687166152919  0.14130673836198815  0.25926932294253935  1.0000
  H   H8        1.0  0.6167141429637352  0.23848903440906177  0.2844433546321308  1.0000
  C   C15       1.0  0.923003750166201  0.09413325996647903  0.49154428311697435  1.0000
  C   C16       1.0  0.9998412554377804  0.09292434318449282  0.5439459206477466  1.0000
  C   C17       1.0  0.038078430635366756  0.975277729689915  0.5704797053152733  1.0000
  C   C18       1.0  4.052758451523032e-05  0.8577565172341725  0.5440862496835277  1.0000
  C   C19       1.0  0.9231560224162445  0.8566733176489185  0.4916500436262661  1.0000
  C   C20       1.0  0.8850511773481705  0.9753946247011281  0.46572212085769166  1.0000
  S   S1        1.0  0.13624693712874208  0.9752627308752001  0.636785468570648  1.0000
  C   C21       1.0  0.11074666124220103  0.9596059380672431  0.8194630129579235  1.0000
  N   N3        1.0  0.09400563107863591  0.9493409617872829  0.9392216430601245  1.0000
  H   H9        1.0  0.030281016853407578  0.1830325085798081  0.5646227324052501  1.0000
  H   H10       1.0  0.030616881664383477  0.7675879895542341  0.5648593240086281  1.0000
  H   H11       1.0  0.8257909372605208  0.9754771352233118  0.42532812661583996  1.0000
  H   H12       1.0  0.7782618153739832  0.6474267788673242  0.3926675263491262  1.0000
  C   C22       1.0  0.9235172544476494  0.47941063970882086  0.06770065749334077  1.0000
  C   C23       1.0  0.8551487521672048  0.5061195494072996  0.13208391137350417  1.0000
  C   C24       1.0  0.7865630671824211  0.52054247776308  0.04942984441245725  1.0000
  C   C25       1.0  0.7844000939884951  0.5085218741679742  0.8999373965527813  1.0000
  C   C26       1.0  0.8527280454185304  0.48403593977362136  0.8341130515140512  1.0000
  C   C27       1.0  0.9226425228507472  0.4713959630749738  0.9154937296264709  1.0000
  N   N4        1.0  0.713286494666107  0.5224039394369002  0.8153456893835922  1.0000
  O   O1        1.0  0.6466244364513456  0.5474541436301588  0.8800715524278107  1.0000
  O   O2        1.0  0.7108412304487008  0.5115994078727315  0.6821268569423773  1.0000
  H   H13       1.0  0.09135288518373376  0.3411398137188215  0.19934248124159248  1.0000
  H   H14       1.0  0.7349386325190416  0.5398622723779758  0.10312855940648746  1.0000
  H   H15       1.0  0.03707751687870764  0.382161718503182  0.6544223954174595  1.0000
  Zn  Zn1       1.0  0.8390208869774427  0.47180760109080583  0.48396775294683786  1.0000
  Zn  Zn2       1.0  0.0071315659872610605  0.47899807398701233  0.49922528298778746  1.0000
  C   C28       1.0  0.922805136769393  0.4677384341234405  0.7552417954234647  1.0000
  C   C29       1.0  0.9233491521397098  0.4830689563509376  0.2279515490308357  1.0000
  C   C30       1.0  0.923129246295897  0.7125912497976996  0.4858774555380159  1.0000
  C   C31       1.0  0.9230249848578257  0.23821457757704614  0.49731596045316273  1.0000
  O   O3        1.0  0.9870898609062864  0.48701980347912  0.2875233644901338  1.0000
  O   O4        1.0  0.9866565437880427  0.4692440139942225  0.7072496765593876  1.0000
  O   O5        1.0  0.9869174047652143  0.6669657082633762  0.48973598843664035  1.0000
  O   O6        1.0  0.9868289426778523  0.28929811706747044  0.5050369391745937  1.0000
  O   O7        1.0  0.859323452918936  0.6615075555580772  0.4781560915457928  1.0000
  O   O8        1.0  0.859062592329228  0.46378742193628497  0.6956697029174228  1.0000
  O   O9        1.0  0.859495911280079  0.4815631825853759  0.27594165532928305  1.0000
  O   O10       1.0  0.8592349929349911  0.28384148586395197  0.49345533823779153  1.0000
