data_image0
_chemical_formula_structural       NC9NC3NH7C7F3H5C8NH11Zn2C4O8
_chemical_formula_sum              "N4 C31 H23 F3 Zn2 O8"
_cell_length_a       16.053384444249904
_cell_length_b       9.272718291674593
_cell_length_c       9.275652972338538
_cell_angle_alpha    86.37424905988952
_cell_angle_beta     90.23845156290304
_cell_angle_gamma    88.75080299671951

_space_group_name_H-M_alt    "P 1"
_space_group_IT_number       1

loop_
  _space_group_symop_operation_xyz
  'x, y, z'

loop_
  _atom_site_type_symbol
  _atom_site_label
  _atom_site_symmetry_multiplicity
  _atom_site_fract_x
  _atom_site_fract_y
  _atom_site_fract_z
  _atom_site_occupancy
  N   N1        1.0  0.7708874784251801  0.5484417847388356  0.4185636446538965  1.0000
  C   C1        1.0  0.7198728532273364  0.5247901821198535  0.335317454320061  1.0000
  C   C2        1.0  0.6564757713146069  0.49540295431314063  0.2319053459092744  1.0000
  C   C3        1.0  0.6695249656580158  0.48104382867305334  0.08670653930298577  1.0000
  C   C4        1.0  0.5927706020824188  0.4525430459534556  0.028499075289563525  1.0000
  C   C5        1.0  0.5361705993272506  0.4510996426160596  0.14132544601387953  1.0000
  C   C6        1.0  0.4455817337234658  0.42457561999346805  0.12975295881842364  1.0000
  C   C7        1.0  0.3899330036071935  0.47268254370533497  0.23433626367504815  1.0000
  C   C8        1.0  0.3044442948180554  0.44752628167322633  0.22325388687864892  1.0000
  C   C9        1.0  0.2480185915948115  0.4975877926517384  0.3304843490707521  1.0000
  N   N2        1.0  0.20266894668681448  0.5378301770908722  0.4166808537673774  1.0000
  C   C10       1.0  0.2738788809654529  0.37413885586714035  0.10760248238265382  1.0000
  C   C11       1.0  0.328519506079596  0.3261662798116456  0.0032551069025290647  1.0000
  C   C12       1.0  0.41380113590515943  0.35113565261272295  0.01389593592745908  1.0000
  N   N3        1.0  0.5757840719236168  0.4774160474320488  0.26533021573491977  1.0000
  H   H1        1.0  0.7279718177057637  0.49025699591885513  0.02949165920867669  1.0000
  H   H2        1.0  0.5800915412479478  0.43651567829557697  0.9160915210044571  1.0000
  H   H3        1.0  0.4123844355712925  0.5315083346101119  0.3233425669275839  1.0000
  H   H4        1.0  0.2079011908826555  0.35412865311909036  0.09809270562745588  1.0000
  H   H5        1.0  0.304768862276908  0.26916169169198495  0.9140030290143396  1.0000
  H   H6        1.0  0.4547375913714443  0.3112491261866503  0.9323027061065218  1.0000
  H   H7        1.0  0.5500524467706795  0.48071822097903666  0.3683012124067788  1.0000
  C   C13       1.0  0.9885827404256814  0.1196876913290548  0.4144302806084337  1.0000
  C   C14       1.0  0.9373633694498292  0.2015933824395515  0.3150403579439991  1.0000
  C   C15       1.0  0.8802983702920221  0.13487443191477655  0.22704912181011516  1.0000
  C   C16       1.0  0.8766479618808775  0.9837317898370267  0.2354920405064416  1.0000
  C   C17       1.0  0.9279160346005274  0.9008449917158803  0.33176268819193133  1.0000
  C   C18       1.0  0.9849817254542911  0.9665730952103018  0.42082658943613716  1.0000
  C   C19       1.0  0.8275236358972646  0.22435439323298523  0.11849592408275945  1.0000
  F   F1        1.0  0.8063434516893452  0.35664424689159513  0.1709737152257178  1.0000
  F   F2        1.0  0.7546657106799793  0.15454327911854215  0.08869881276840522  1.0000
  F   F3        1.0  0.8719183734570795  0.24720168862894654  0.9920409540306886  1.0000
  H   H8        1.0  0.0888618416759086  0.1979952780600629  0.7250679209028648  1.0000
  H   H9        1.0  0.9406597458668965  0.3184363655086295  0.3083172482444876  1.0000
  H   H10       1.0  0.8347021574613456  0.9292068269038826  0.16636071544009057  1.0000
  H   H11       1.0  0.9245240485454721  0.7841722251169247  0.3337168172057794  1.0000
  H   H12       1.0  0.16459204312122822  0.8474046270380023  0.5935296543926173  1.0000
  C   C20       1.0  0.98493940878035  0.5403655586293541  0.9943445370111306  1.0000
  C   C21       1.0  0.9304975699811495  0.6360174547097093  0.06143971016398254  1.0000
  C   C22       1.0  0.8825984493522527  0.7399220670018836  0.9797225755081952  1.0000
  C   C23       1.0  0.8880216587166208  0.7468132459763019  0.8289664798927904  1.0000
  C   C24       1.0  0.9406287829894712  0.6512706216110555  0.7604717133341037  1.0000
  C   C25       1.0  0.98862509671698  0.5458952435512514  0.840912277647559  1.0000
  C   C26       1.0  0.8237027362470006  0.8400105059607135  0.05326637230644439  1.0000
  C   C27       1.0  0.7383367215585789  0.7716610675329769  0.07389515634077815  1.0000
  N   N4        1.0  0.6814142098674069  0.8704978841812645  0.1430854490163216  1.0000
  H   H13       1.0  0.046918991677728616  0.32462365844864016  0.28906738824979294  1.0000
  H   H14       1.0  0.9265515419059235  0.6321029813609129  0.1782542216614178  1.0000
  H   H15       1.0  0.850747605447806  0.825391079122272  0.7641309917295548  1.0000
  H   H16       1.0  0.9421066679102676  0.6574266582527355  0.6434920543532546  1.0000
  H   H17       1.0  0.10344432020864769  0.4110159682998853  0.5689364217132584  1.0000
  H   H18       1.0  0.8496870849767489  0.8647065160511291  0.16005826300919201  1.0000
  H   H19       1.0  0.8165899813826907  0.9442807869077798  0.9877722431215701  1.0000
  H   H20       1.0  0.7123912965251943  0.7481225707867964  0.9666946705476591  1.0000
  H   H21       1.0  0.7446572053513002  0.6682397780496228  0.14128216622165413  1.0000
  H   H22       1.0  0.6227732688335591  0.8235208028440248  0.14737915487408526  1.0000
  H   H23       1.0  0.7008932546384276  0.8772357976525773  0.2501748150256533  1.0000
  Zn  Zn1       1.0  0.8954903334613247  0.5453757126317875  0.41802859917973995  1.0000
  Zn  Zn2       1.0  0.07806616943280287  0.5408845783318741  0.41722759133788845  1.0000
  C   C28       1.0  0.987950968326658  0.5391055228026307  0.6808494759282995  1.0000
  C   C29       1.0  0.9856075211695856  0.5471565394630293  0.15440686105972445  1.0000
  C   C30       1.0  0.9856331098425399  0.8064563183102442  0.41387357478686543  1.0000
  C   C31       1.0  0.9879253250544244  0.2798040135272617  0.42138282623814716  1.0000
  O   O1        1.0  0.055118350789077564  0.5477250017203619  0.20782121338321868  1.0000
  O   O2        1.0  0.05701097651123965  0.5351273029964039  0.6268267540367319  1.0000
  O   O3        1.0  0.05513834898101732  0.7510164842466498  0.4112418403881919  1.0000
  O   O4        1.0  0.05699091550414484  0.33183583161197405  0.4234060193062103  1.0000
  O   O5        1.0  0.9165655250857707  0.7544244608858115  0.4118501714771928  1.0000
  O   O6        1.0  0.9184381449110602  0.5385370115978425  0.6274350213545192  1.0000
  O   O7        1.0  0.9165455119130532  0.5511346487512383  0.20842774731232153  1.0000
  O   O8        1.0  0.9184180771390635  0.3352454690351159  0.4240126612266366  1.0000
