data_image0
_chemical_formula_structural       NC6NC3H6C6BrH5C7NH4Zn2C4O8
_chemical_formula_sum              "N3 C26 H15 Br1 Zn2 O8"
_cell_length_a       14.934028789175542
_cell_length_b       9.276564384272257
_cell_length_c       9.275157849593905
_cell_angle_alpha    86.064957766791
_cell_angle_beta     89.71635168279133
_cell_angle_gamma    90.54840447220178

_space_group_name_H-M_alt    "P 1"
_space_group_IT_number       1

loop_
  _space_group_symop_operation_xyz
  'x, y, z'

loop_
  _atom_site_type_symbol
  _atom_site_label
  _atom_site_symmetry_multiplicity
  _atom_site_fract_x
  _atom_site_fract_y
  _atom_site_fract_z
  _atom_site_occupancy
  N   N1        1.0  0.857578999211538  0.5620375165879461  0.4085204156402569  1.0000
  C   C1        1.0  0.7800878136588955  0.5609328712695298  0.40784268588892636  1.0000
  C   C2        1.0  0.6836848493706948  0.5595536153697591  0.4069966666243965  1.0000
  C   C3        1.0  0.6364231354301465  0.6669699558039777  0.47277823461876395  1.0000
  C   C4        1.0  0.5429062469886641  0.6658625191413976  0.4720999134982055  1.0000
  C   C5        1.0  0.4957387784885286  0.557393561505332  0.4056737950166316  1.0000
  C   C6        1.0  0.39910385900309386  0.5597208849869217  0.4071003286659367  1.0000
  N   N2        1.0  0.3216323480723868  0.5615679127518074  0.4082327912300119  1.0000
  C   C7        1.0  0.5429879940925633  0.4484911341530254  0.33898159864929567  1.0000
  C   C8        1.0  0.49412188111043487  0.330562841978832  0.2667638305935778  1.0000
  C   C9        1.0  0.6371412198609931  0.45072860269235876  0.34035187231053654  1.0000
  H   H1        1.0  0.6718620321463862  0.7516040738302125  0.5246085975592161  1.0000
  H   H2        1.0  0.5072621597403888  0.7498448303554279  0.523530967832514  1.0000
  H   H3        1.0  0.4519273924359597  0.3787775505640061  0.17813816800968474  1.0000
  H   H4        1.0  0.45075780878484106  0.2684913142305825  0.3469102303834952  1.0000
  H   H5        1.0  0.5412245826321381  0.2541789181939839  0.21998003917317435  1.0000
  H   H6        1.0  0.6742835754642725  0.3678635093109326  0.28960528955287484  1.0000
  C   C10       1.0  0.08691116120351755  0.1383280162106495  0.4087467852998816  1.0000
  C   C11       1.0  0.07579789115406287  0.22056987058395897  0.2770388963198973  1.0000
  C   C12       1.0  0.07301459889494621  0.15432698751463536  0.14655612576485422  1.0000
  C   C13       1.0  0.08133148593250694  0.004899395760932904  0.14530362089679527  1.0000
  C   C14       1.0  0.09087276264810584  0.92094661858885  0.27502073443769715  1.0000
  C   C15       1.0  0.09230868876139775  0.9852663769028067  0.4080188223883243  1.0000
  Br  Br1       1.0  0.07818369876196257  0.9148202157143449  0.9662580455117692  1.0000
  H   H7        1.0  0.06001021837823559  0.40316435538979856  0.6430561937456669  1.0000
  H   H8        1.0  0.07138578056370838  0.3372069644291922  0.27457446557107157  1.0000
  H   H9        1.0  0.06524375396737224  0.21958819421193157  0.04617814748004377  1.0000
  H   H10       1.0  0.09502433205535077  0.8046725076743696  0.27191111979325133  1.0000
  H   H11       1.0  0.1410883840206828  0.68944626979974  0.6324396543947839  1.0000
  C   C16       1.0  0.09077209775921762  0.5577198043516982  0.9851878247056152  1.0000
  C   C17       1.0  0.16825036133286464  0.6046529989444009  0.05479561347537575  1.0000
  C   C18       1.0  0.2412075886633146  0.6629303405874853  0.9748223061143557  1.0000
  C   C19       1.0  0.23753864773562441  0.675201288383452  0.8241551384361183  1.0000
  C   C20       1.0  0.1618938975551587  0.6270984873794052  0.7532056703382732  1.0000
  C   C21       1.0  0.08844777262479009  0.5658745799012359  0.8315778615070961  1.0000
  C   C22       1.0  0.31957627436703584  0.7118709191428314  0.04773541699190197  1.0000
  N   N3        1.0  0.38256462691676907  0.751205946800718  0.10634526641584573  1.0000
  H   H12       1.0  0.872594466437299  0.509318067075825  0.09320226694822531  1.0000
  H   H13       1.0  0.293587704024531  0.7207597021675616  0.7612585760286836  1.0000
  H   H14       1.0  0.16174412512076572  0.63468029752987  0.6361348372306606  1.0000
  H   H15       1.0  0.9424497842492513  0.5272306479423017  0.5542950422291391  1.0000
  Zn  Zn1       1.0  0.9914947376382697  0.5618982148668787  0.4084457324999875  1.0000
  Zn  Zn2       1.0  0.18771653207304728  0.5616955153364733  0.40831926672017627  1.0000
  C   C23       1.0  0.08884848893856408  0.558588295588478  0.671596935019203  1.0000
  C   C24       1.0  0.09036493471607149  0.5650072532989687  0.14516820270228137  1.0000
  C   C25       1.0  0.09129959954055655  0.825121695722216  0.40241371357525835  1.0000
  C   C26       1.0  0.08791374590465478  0.29847212140365675  0.41435150251074315  1.0000
  O   O1        1.0  0.1646933953546208  0.5673697730426375  0.19881109129954688  1.0000
  O   O2        1.0  0.16344782421888904  0.5560708397036171  0.6178576479092224  1.0000
  O   O3        1.0  0.16542611908758492  0.7712999465610775  0.40049029143554327  1.0000
  O   O4        1.0  0.1627150338911988  0.3521406755291925  0.41617833975341867  1.0000
  O   O5        1.0  0.01649616885928085  0.7714530547448281  0.40058665950231975  1.0000
  O   O6        1.0  0.014517885239171855  0.5562256797196101  0.6179539376470564  1.0000
  O   O7        1.0  0.01576346087237534  0.5675245461123073  0.19890564843546787  1.0000
  O   O8        1.0  0.013785099042842077  0.35229543932551577  0.4162730049447214  1.0000
