data_image0
_chemical_formula_structural       NC5N2C2NH4C6ClH5C6NH7Zn2C4O8
_chemical_formula_sum              "N5 C23 H16 Cl1 Zn2 O8"
_cell_length_a       13.87973921873968
_cell_length_b       9.276545438789551
_cell_length_c       9.274774538082514
_cell_angle_alpha    85.10039089897613
_cell_angle_beta     90.34966886769374
_cell_angle_gamma    89.40960813042831

_space_group_name_H-M_alt    "P 1"
_space_group_IT_number       1

loop_
  _space_group_symop_operation_xyz
  'x, y, z'

loop_
  _atom_site_type_symbol
  _atom_site_label
  _atom_site_symmetry_multiplicity
  _atom_site_fract_x
  _atom_site_fract_y
  _atom_site_fract_z
  _atom_site_occupancy
  N   N1        1.0  0.889782365330972  0.5919033872340859  0.4089835882816142  1.0000
  C   C1        1.0  0.8162696768994782  0.6169291948543849  0.35229153456299134  1.0000
  C   C2        1.0  0.7249695490685851  0.6480136997752375  0.2818738773677363  1.0000
  C   C3        1.0  0.6390443971081907  0.6166839856168556  0.35514201697950076  1.0000
  C   C4        1.0  0.5520901485259111  0.6480136348084731  0.28187391728067834  1.0000
  C   C5        1.0  0.46179255573111105  0.6169290510740654  0.35229143112729866  1.0000
  N   N2        1.0  0.38908693430771457  0.5919033627102119  0.40898357726056567  1.0000
  N   N3        1.0  0.5527499081685795  0.7078551894444882  0.14298547397291772  1.0000
  C   C6        1.0  0.6370540347929444  0.7390754802963775  0.07376543358749421  1.0000
  C   C7        1.0  0.6360006085964017  0.8009228919538498  0.9198669730407265  1.0000
  N   N4        1.0  0.7223528071958163  0.7078551426939139  0.142985484709369  1.0000
  H   H1        1.0  0.6398261576697053  0.5688053309325214  0.46597744102195193  1.0000
  H   H2        1.0  0.7004425513644268  0.8689800809211576  0.8974839579561293  1.0000
  H   H3        1.0  0.6363213779666889  0.7116223913500699  0.8475067743017695  1.0000
  H   H4        1.0  0.5704377420724849  0.8689780241684855  0.897483189807959  1.0000
  C   C8        1.0  0.14234601724091056  0.16847029232235622  0.4087456794219808  1.0000
  C   C9        1.0  0.1421502392398888  0.25328094150538494  0.2755362433812989  1.0000
  C   C10       1.0  0.13320131517078848  0.18933550167891158  0.14522613430537024  1.0000
  C   C11       1.0  0.12424080820165262  0.03973657568818712  0.14612067221635527  1.0000
  C   C12       1.0  0.12591272976977286  0.953408787833531  0.27688504740037057  1.0000
  C   C13       1.0  0.13653264412981603  0.015325271264591492  0.4092339874013107  1.0000
  Cl  Cl1       1.0  0.131761597724249  0.29739068609842256  0.9804610663768413  1.0000
  H   H5        1.0  0.19257543994343962  0.4294548083335312  0.635649070896716  1.0000
  H   H6        1.0  0.14665267296197948  0.37002637159752183  0.2726788497565569  1.0000
  H   H7        1.0  0.11689603693062955  0.9898922694125402  0.04530499081365913  1.0000
  H   H8        1.0  0.12119136451599943  0.8371714164334523  0.2742311894359464  1.0000
  H   H9        1.0  0.10521741018768527  0.7145589066360636  0.6426071818720129  1.0000
  C   C14       1.0  0.13768495001608488  0.5955857195783953  0.9851756387586654  1.0000
  C   C15       1.0  0.2053690339592431  0.6806769141643443  0.05196120956004746  1.0000
  C   C16       1.0  0.27745698298256016  0.7538903092142022  0.9712385053263919  1.0000
  C   C17       1.0  0.2824464872609502  0.742344558818927  0.8222544328158995  1.0000
  C   C18       1.0  0.21504970175563806  0.6604297980697434  0.7537681309640084  1.0000
  C   C19       1.0  0.14119367975310215  0.5882097650790006  0.8328040121306959  1.0000
  N   N5        1.0  0.3462484913217183  0.8387808993901642  0.04102920558392986  1.0000
  H   H10       1.0  0.9956077178357182  0.3137131560445139  0.11093342984531862  1.0000
  H   H11       1.0  0.20358783157301108  0.6875156087107152  0.167985282102725  1.0000
  H   H12       1.0  0.33810939916127514  0.7980550692264667  0.7587557831946947  1.0000
  H   H13       1.0  0.21937344639331235  0.6564188915577396  0.6375927686692617  1.0000
  H   H14       1.0  0.042510599856511844  0.40274834332901643  0.566615296742579  1.0000
  H   H15       1.0  0.34338866416738223  0.847823210416979  0.15240434227547817  1.0000
  H   H16       1.0  0.4005285789887958  0.8933575001146469  0.9818185868300349  1.0000
  Zn  Zn1       1.0  0.033870940458710086  0.5918994436363532  0.40899191987900885  1.0000
  Zn  Zn2       1.0  0.2449984748667724  0.5918953917241931  0.408987069842087  1.0000
  C   C20       1.0  0.14056774369664748  0.5838596863125494  0.6725807894202813  1.0000
  C   C21       1.0  0.1383039652320044  0.5999369671265866  0.14539834294999276  1.0000
  C   C22       1.0  0.13760271068136265  0.855301666400599  0.40339052255474384  1.0000
  C   C23       1.0  0.14126893841512  0.32849325397006846  0.4145886857629788  1.0000
  O   O1        1.0  0.21863355458413203  0.6013894572139492  0.19916870193816294  1.0000
  O   O2        1.0  0.22047907354916507  0.5824030367492268  0.6188063332850624  1.0000
  O   O3        1.0  0.21808369802319394  0.8015958554848164  0.40143328911464593  1.0000
  O   O4        1.0  0.22102885754782653  0.3821966497362981  0.4165416379039917  1.0000
  O   O5        1.0  0.057840485730147766  0.8015981856272669  0.40143735181116846  1.0000
  O   O6        1.0  0.060235849040780165  0.5824070999631645  0.6188103200282014  1.0000
  O   O7        1.0  0.0583903233020211  0.6013934852795324  0.1991709534721955  1.0000
  O   O8        1.0  0.06078562678048402  0.3822006665469613  0.4165439976366776  1.0000
