data_image0
_chemical_formula_structural       NC14NH8C6H6C12H10Zn2C4O8
_chemical_formula_sum              "N2 C36 H24 Zn2 O8"
_cell_length_a       19.240038476842887
_cell_length_b       10.30288869885445
_cell_length_c       13.024585202197207
_cell_angle_alpha    85.80961696087208
_cell_angle_beta     93.9928008550644
_cell_angle_gamma    90.01760760462719

_space_group_name_H-M_alt    "P 1"
_space_group_IT_number       1

loop_
  _space_group_symop_operation_xyz
  'x, y, z'

loop_
  _atom_site_type_symbol
  _atom_site_label
  _atom_site_symmetry_multiplicity
  _atom_site_fract_x
  _atom_site_fract_y
  _atom_site_fract_z
  _atom_site_occupancy
  N   N1        1.0  0.6012059730490243  0.4149814343237477  0.8649341561947497  1.0000
  C   C1        1.0  0.5410573588487441  0.41498404282749  0.864929015792405  1.0000
  C   C2        1.0  0.46623906400852433  0.4149874902545496  0.8649225266002345  1.0000
  C   C3        1.0  0.4294500260318013  0.2983211281492515  0.8586611936033794  1.0000
  C   C4        1.0  0.356776943401351  0.29820624071230495  0.858610970719859  1.0000
  C   C5        1.0  0.3199063471651541  0.4149932744052951  0.864914672949424  1.0000
  C   C6        1.0  0.3574116419161819  0.531777952832393  0.8712205929784853  1.0000
  C   C7        1.0  0.4300803324195371  0.5316571977008426  0.8711784501979011  1.0000
  C   C8        1.0  0.2427013751739355  0.41499514974661456  0.8649150751959894  1.0000
  C   C9        1.0  0.20860967701516409  0.49306455146748845  0.9303073531245813  1.0000
  C   C10       1.0  0.1359372396890153  0.4929411227280687  0.9302697591976509  1.0000
  C   C11       1.0  0.09636944753017028  0.4149903895233625  0.864922913042746  1.0000
  C   C12       1.0  0.12974893232628226  0.33704344043602674  0.7995709909732167  1.0000
  C   C13       1.0  0.2024174574705641  0.3369251293630975  0.7995253283026174  1.0000
  C   C14       1.0  0.021551798326737388  0.4149856833068934  0.8649290584129837  1.0000
  N   N2        1.0  0.9614036665040538  0.41498196433423407  0.8649341830586625  1.0000
  H   H1        1.0  0.45693320442046526  0.20737836633455697  0.8540810406117489  1.0000
  H   H2        1.0  0.329499341591848  0.20653554995743484  0.8550371408211286  1.0000
  H   H3        1.0  0.3305024922461233  0.6234507969248098  0.8747920074944138  1.0000
  H   H4        1.0  0.4580270713938694  0.6225975581589107  0.8757627402510977  1.0000
  H   H5        1.0  0.2381727164573533  0.5528927766738927  0.9824772896865158  1.0000
  H   H6        1.0  0.11064279665379978  0.5533867915104902  0.981392309407312  1.0000
  H   H7        1.0  0.09961367968394029  0.2765947816974146  0.7484523409323449  1.0000
  H   H8        1.0  0.2270410093975194  0.2770978919079472  0.7473532925775794  1.0000
  C   C15       1.0  0.7812381656493875  0.03373434753955106  0.8649048202402432  1.0000
  C   C16       1.0  0.8521348931468227  0.02956310966403274  0.899056253336795  1.0000
  C   C17       1.0  0.8873114130583215  0.9106142502952383  0.9160008792885681  1.0000
  C   C18       1.0  0.8523185585065204  0.7945480148108599  0.8991446222704358  1.0000
  C   C19       1.0  0.7813785191644368  0.7962191210546533  0.8649724123251404  1.0000
  C   C20       1.0  0.7462099261813105  0.9163873135554903  0.8480315076215177  1.0000
  H   H9        1.0  0.7543768470110286  0.36260987665739747  0.8519643420351051  1.0000
  H   H10       1.0  0.8804948185397276  0.118151154464051  0.9127174284951824  1.0000
  H   H11       1.0  0.9419477838700645  0.9083711545825416  0.9423193501033762  1.0000
  H   H12       1.0  0.8808038285653668  0.7035954795219043  0.912865982386194  1.0000
  H   H13       1.0  0.691543777232853  0.9186744956097553  0.8216986008368893  1.0000
  H   H14       1.0  0.6477604005907627  0.5922028682337883  0.8006069464127141  1.0000
  C   C21       1.0  0.7670619753456702  0.41341854449635407  0.5627195968791847  1.0000
  C   C22       1.0  0.7517159306669982  0.5171627363247813  0.4882990025349335  1.0000
  C   C23       1.0  0.7754623659386217  0.5151750900201653  0.3894187289769437  1.0000
  C   C24       1.0  0.8144978874014243  0.4090952907887011  0.3629620859449827  1.0000
  C   C25       1.0  0.8305042865676242  0.3060897992626459  0.4373095598662553  1.0000
  C   C26       1.0  0.8067928214877083  0.30796849320337305  0.5362330874552215  1.0000
  C   C27       1.0  0.8406354637440568  0.4078971184522275  0.25876191063471876  1.0000
  C   C28       1.0  0.913122037377704  0.4036645166551487  0.251079329401094  1.0000
  C   C29       1.0  0.9410628812058514  0.41054905447106244  0.1548556134334078  1.0000
  C   C30       1.0  0.8971043790555582  0.4220228476344223  0.06500804046010278  1.0000
  C   C31       1.0  0.8249746948379143  0.42504158471399656  0.07094788911303263  1.0000
  C   C32       1.0  0.7955546859323458  0.4165349249706296  0.1671576101750562  1.0000
  H   H15       1.0  0.7406772008184641  0.31204569270902116  0.8126530299095254  1.0000
  H   H16       1.0  0.7214869842982202  0.6000386392985404  0.5064891331738353  1.0000
  H   H17       1.0  0.7635121450299595  0.5964508480058255  0.3334285232531249  1.0000
  H   H18       1.0  0.8610247534066197  0.2238847218720501  0.41843812738046043  1.0000
  H   H19       1.0  0.8196414900154608  0.22683059528164914  0.5919051590293742  1.0000
  H   H20       1.0  0.948233684113822  0.3973295235424681  0.32002562025061776  1.0000
  H   H21       1.0  0.996970335961051  0.4079737388646287  0.14997419248643884  1.0000
  H   H22       1.0  0.9189411010275733  0.42774794191634186  0.9904416036968777  1.0000
  H   H23       1.0  0.7920648097255145  0.43165556594686133  0.9998156441631907  1.0000
  H   H24       1.0  0.62445606225381  0.46178193047111377  0.08262708066312308  1.0000
  Zn  Zn1       1.0  0.7051515231917126  0.414978146532224  0.8649401060258388  1.0000
  Zn  Zn2       1.0  0.857458488362147  0.41497468716865366  0.8649366596131621  1.0000
  C   C33       1.0  0.7901664721613367  0.41077382529688306  0.05290545012582225  1.0000
  C   C34       1.0  0.7724452076430067  0.41918064698437196  0.6769714166326379  1.0000
  C   C35       1.0  0.7811550920037407  0.6520721171724921  0.8608585324900315  1.0000
  C   C36       1.0  0.7814565381282229  0.17788079558752593  0.8690183890000573  1.0000
  O   O1        1.0  0.8320515680635753  0.42110748447061563  0.7153140626473709  1.0000
  O   O2        1.0  0.8461575600162119  0.4088433812960203  0.014559892019329052  1.0000
  O   O3        1.0  0.8388800278515526  0.6036948091540193  0.8594806474019332  1.0000
  O   O4        1.0  0.8393290446203783  0.22625606550320776  0.870393230101387  1.0000
  O   O5        1.0  0.7232809149583344  0.6036967682002363  0.8594835355333773  1.0000
  O   O6        1.0  0.730558444820226  0.4088468998660404  0.014562725414906996  1.0000
  O   O7        1.0  0.716452394578  0.42111095141956706  0.715315658693755  1.0000
  O   O8        1.0  0.7237298747675123  0.22625952356413426  0.870394903306914  1.0000
