data_image0
_chemical_formula_structural       NC9NC4H8C7ONH7C6OCH7Zn2C4O8
_chemical_formula_sum              "N3 C31 H22 O10 Zn2"
_cell_length_a       16.32274767691083
_cell_length_b       10.297852080636378
_cell_length_c       9.273891588657152
_cell_angle_alpha    86.07585780887825
_cell_angle_beta     89.15205086511824
_cell_angle_gamma    89.50344002776104

_space_group_name_H-M_alt    "P 1"
_space_group_IT_number       1

loop_
  _space_group_symop_operation_xyz
  'x, y, z'

loop_
  _atom_site_type_symbol
  _atom_site_label
  _atom_site_symmetry_multiplicity
  _atom_site_fract_x
  _atom_site_fract_y
  _atom_site_fract_z
  _atom_site_occupancy
  N   N1        1.0  0.7762390149858924  0.39917016641799313  0.39821451863039625  1.0000
  C   C1        1.0  0.7241142774463171  0.35122926332857984  0.33795281811725797  1.0000
  C   C2        1.0  0.6593224667898342  0.2916862883478262  0.26310730420912276  1.0000
  C   C3        1.0  0.6712333656729867  0.21024208498625008  0.16072719608126573  1.0000
  C   C4        1.0  0.5920425171673253  0.170496914049858  0.11076910667230044  1.0000
  C   C5        1.0  0.5328537061055851  0.22866312346648932  0.1838899386141768  1.0000
  C   C6        1.0  0.44298380932146536  0.21329034916037906  0.16456867627469252  1.0000
  C   C7        1.0  0.3870897814270355  0.28108675566769237  0.2497875220035837  1.0000
  C   C8        1.0  0.3024390323362264  0.26794844155350805  0.2332743467985532  1.0000
  C   C9        1.0  0.2461239173795175  0.33782902731722864  0.32111212461612637  1.0000
  N   N2        1.0  0.20086555829340572  0.3940015156936738  0.3917188209526472  1.0000
  C   C10       1.0  0.2726297527463952  0.18690407900336292  0.13140519696945252  1.0000
  C   C11       1.0  0.3272014661878185  0.11919747688790139  0.046299608635151264  1.0000
  C   C12       1.0  0.4116949757242336  0.13198190412498811  0.06236782140220321  1.0000
  C   C13       1.0  0.5702347894911721  0.3134758242121367  0.2905015676119207  1.0000
  H   H1        1.0  0.7302801804941381  0.17857225435797242  0.12091389381571349  1.0000
  H   H2        1.0  0.5840400126855454  0.10393266647212873  0.027093766860348367  1.0000
  H   H3        1.0  0.40892393659551535  0.3443555442629769  0.3293136852102021  1.0000
  H   H4        1.0  0.207285596851187  0.1760808320234568  0.11780201506421074  1.0000
  H   H5        1.0  0.3039687413469125  0.05650210819539781  0.9674944922762618  1.0000
  H   H6        1.0  0.4517144556497453  0.07782098427108174  0.9942892666710854  1.0000
  H   H7        1.0  0.5531096823136117  0.27964660114667006  0.4031622842310594  1.0000
  H   H8        1.0  0.553509196751134  0.4173572583653609  0.2659006194920226  1.0000
  C   C14       1.0  0.9886435295848248  0.015147635370325272  0.3949738799601443  1.0000
  C   C15       1.0  0.9779078306053627  0.023592391236019628  0.24456207356591667  1.0000
  C   C16       1.0  0.9717401221866727  0.9107912773316396  0.16842500391772974  1.0000
  C   C17       1.0  0.9777008498001278  0.7883422974649683  0.24451551488257817  1.0000
  C   C18       1.0  0.9884688273715302  0.7780140198508928  0.39497176000106654  1.0000
  C   C19       1.0  0.9936757005463854  0.8919315064162884  0.46925497875617533  1.0000
  C   C20       1.0  0.9606043585845547  0.9223086522296465  0.009537558870814424  1.0000
  O   O1        1.0  0.9827222231874707  0.02456111900433444  0.9374226489218477  1.0000
  N   N3        1.0  0.924234665394274  0.8203373437580537  0.9356760752563078  1.0000
  H   H9        1.0  0.009230976668846315  0.20645626472353706  0.6791712617849912  1.0000
  H   H10       1.0  0.9736035469124174  0.11829968668539248  0.18652662759450456  1.0000
  H   H11       1.0  0.9755666200307258  0.7006987231628784  0.1867384693082128  1.0000
  H   H12       1.0  0.0019477933059099996  0.8846695038633137  0.5851792581112316  1.0000
  H   H13       1.0  0.010133937491123348  0.551219306001413  0.6790213135137095  1.0000
  H   H14       1.0  0.9204639510693374  0.8285396934505349  0.8231156461473574  1.0000
  H   H15       1.0  0.8960776703149264  0.7409939727203625  0.9914911484508826  1.0000
  C   C21       1.0  0.9898992569004488  0.3931243806174339  0.9716769896921645  1.0000
  C   C22       1.0  0.056986271730187665  0.44717112871527753  0.03922409218504841  1.0000
  C   C23       1.0  0.11942347423480616  0.5109737795850469  0.9584588184764677  1.0000
  C   C24       1.0  0.11499690866516209  0.5210524422220766  0.807085858306702  1.0000
  C   C25       1.0  0.04963145499877198  0.4661982440903314  0.7381702274048352  1.0000
  C   C26       1.0  0.9872131120693173  0.4000372263006585  0.8182686786450857  1.0000
  O   O2        1.0  0.18427323667583506  0.5634484941453208  0.03267306278847926  1.0000
  C   C27       1.0  0.2517292719597308  0.6309869677441744  0.9645643649992666  1.0000
  H   H16       1.0  0.795027798434531  0.31571760818825934  0.08567575088125445  1.0000
  H   H17       1.0  0.1621845978413792  0.5700783982351301  0.7414415653331181  1.0000
  H   H18       1.0  0.04896880123365555  0.47290075767620393  0.6210991465215487  1.0000
  H   H19       1.0  0.8572610058384572  0.3427581469610124  0.5448143253974784  1.0000
  H   H20       1.0  0.22971522685469425  0.7191538850012529  0.9005049980848656  1.0000
  H   H21       1.0  0.28590765412380303  0.5661057803653216  0.8936292576641635  1.0000
  H   H22       1.0  0.293664118956499  0.6615240495555859  0.04876622298533917  1.0000
  Zn  Zn1       1.0  0.8987770435390171  0.39767518723163914  0.396348325127555  1.0000
  Zn  Zn2       1.0  0.07832750088540252  0.3954859323989391  0.393596823314716  1.0000
  C   C28       1.0  0.9877202215426008  0.39355599273810116  0.6582447819267502  1.0000
  C   C29       1.0  0.9893862827430738  0.3996067430583554  0.13170047794462136  1.0000
  C   C30       1.0  0.9885158823712752  0.6337691810829551  0.38922814694593244  1.0000
  C   C31       1.0  0.9885905607598645  0.15939199550208638  0.40071719071915446  1.0000
  O   O3        1.0  0.05735258805517107  0.4009458055405246  0.1843616418517311  1.0000
  O   O4        1.0  0.056028560382564985  0.3905543532051041  0.6034948768658452  1.0000
  O   O5        1.0  0.05667014326953046  0.5845295641425505  0.3862620548541056  1.0000
  O   O6        1.0  0.05671094424059242  0.20697060375950005  0.4015943567225013  1.0000
  O   O7        1.0  0.920393538912092  0.5861905166195156  0.38835079265114003  1.0000
  O   O8        1.0  0.9197519559079254  0.39221686564192143  0.6055835378005354  1.0000
  O   O9        1.0  0.9210759891441588  0.402608258561108  0.18644856972773205  1.0000
  O   O10       1.0  0.9204343449854582  0.2086330483720991  0.4036813926708427  1.0000
