data_image0
_chemical_formula_structural       NC8NH4C7NH5C6H6Zn2C4O8
_chemical_formula_sum              "N3 C25 H15 Zn2 O8"
_cell_length_a       13.859017124695912
_cell_length_b       9.275154477615127
_cell_length_c       10.681121600428288
_cell_angle_alpha    85.78691594316618
_cell_angle_beta     89.99985505477505
_cell_angle_gamma    89.43373790894346

_space_group_name_H-M_alt    "P 1"
_space_group_IT_number       1

loop_
  _space_group_symop_operation_xyz
  'x, y, z'

loop_
  _atom_site_type_symbol
  _atom_site_label
  _atom_site_symmetry_multiplicity
  _atom_site_fract_x
  _atom_site_fract_y
  _atom_site_fract_z
  _atom_site_occupancy
  N   N1        1.0  0.8981556413860005  0.5778884142689348  0.6240997908404954  1.0000
  C   C1        1.0  0.8259523844224319  0.5550350457687114  0.5752251610139927  1.0000
  C   C2        1.0  0.7361358065441573  0.5266087996327116  0.5144314043140841  1.0000
  C   C3        1.0  0.6483372024151376  0.5543215141499942  0.573697670738972  1.0000
  C   C4        1.0  0.5609054785793293  0.5266100251485231  0.5144309052273084  1.0000
  C   C5        1.0  0.5614548174417386  0.4711783237222549  0.3958796845498282  1.0000
  C   C6        1.0  0.6490701563818696  0.44357212155417824  0.336841549291843  1.0000
  C   C7        1.0  0.7363201918507793  0.471175974854301  0.39588070023590033  1.0000
  C   C8        1.0  0.4707125395780332  0.5550359720895213  0.575224731516675  1.0000
  N   N2        1.0  0.3982067648413183  0.577888736797955  0.6240996042776743  1.0000
  H   H1        1.0  0.6480531984819171  0.5972278166913954  0.665459158673025  1.0000
  H   H2        1.0  0.49430374800150984  0.4493673971464676  0.3492306519786452  1.0000
  H   H3        1.0  0.6493536462230876  0.40075346223844677  0.24526589645514263  1.0000
  H   H4        1.0  0.8037599940461003  0.4493629480779494  0.3492325285820572  1.0000
  C   C9        1.0  0.15097797947542024  0.15449929631477355  0.6226505795031227  1.0000
  C   C10       1.0  0.12449299258847414  0.23767835388890624  0.5122366424779663  1.0000
  C   C11       1.0  0.09015968273674348  0.17163989663615256  0.4076714993943679  1.0000
  C   C12       1.0  0.0817460462073143  0.021519366204960866  0.4122888120957078  1.0000
  C   C13       1.0  0.10912531941747262  0.9371326340426225  0.5201859508561351  1.0000
  C   C14       1.0  0.14539373588489313  0.0012668106510367266  0.6255596626155799  1.0000
  C   C15       1.0  0.06239099852354246  0.2584007655113747  0.2959267868254236  1.0000
  N   N3        1.0  0.04007267896674027  0.3281405980544383  0.2061126610705164  1.0000
  H   H5        1.0  0.16968680690660842  0.23117039064309178  0.930041303556683  1.0000
  H   H6        1.0  0.1284335237886267  0.3546377567194621  0.508520952321426  1.0000
  H   H7        1.0  0.054844608960604724  0.9693927652903049  0.3319239325946344  1.0000
  H   H8        1.0  0.10405861013724005  0.8206650343827626  0.5200757445526307  1.0000
  H   H9        1.0  0.16208547058722253  0.7024965928762956  0.8315201899744713  1.0000
  C   C16       1.0  0.14818587650203896  0.5778830224028533  0.256359874080321  1.0000
  C   C17       1.0  0.07965205992439506  0.49769670377133785  0.1946619276235448  1.0000
  C   C18       1.0  0.0796519990720359  0.49769679621921875  0.06377978798827288  1.0000
  C   C19       1.0  0.14818580018312225  0.5778830930784831  0.991850309999494  1.0000
  C   C20       1.0  0.21666305269004948  0.6580029612658482  0.053547447836987505  1.0000
  C   C21       1.0  0.21666304049252874  0.6580029389090952  0.1844397464232308  1.0000
  H   H10       1.0  0.2174917270717902  0.6589734232622835  0.5498961810439749  1.0000
  H   H11       1.0  0.02593201913308273  0.4348428774528941  0.2474828450686668  1.0000
  H   H12       1.0  0.025931998533924805  0.43484294531971135  0.01897881607629559  1.0000
  H   H13       1.0  0.2703901081478086  0.7208650701003476  0.0007708942119410996  1.0000
  H   H14       1.0  0.27039005986634757  0.7208650195579978  0.22919526152272507  1.0000
  H   H15       1.0  0.21749203152909316  0.6589729209418684  0.687967153604736  1.0000
  Zn  Zn1       1.0  0.04245962231066169  0.5778846579714412  0.624106959380436  1.0000
  Zn  Zn2       1.0  0.2539028538430408  0.5778807318957763  0.6241026664988731  1.0000
  C   C22       1.0  0.14822156644537987  0.5721393235177682  0.8528071523395133  1.0000
  C   C23       1.0  0.1481432066648112  0.5836278854741905  0.39540260265556676  1.0000
  C   C24       1.0  0.1464443063791936  0.8412097063017928  0.6200194546462664  1.0000
  C   C25       1.0  0.14992040600382373  0.31455577047010785  0.6281903611644923  1.0000
  O   O1        1.0  0.22837053217977576  0.5855481340658354  0.4420649618011052  1.0000
  O   O2        1.0  0.22847476837312652  0.57021500745425  0.8061411707684479  1.0000
  O   O3        1.0  0.22703852669787516  0.7874927444319314  0.6181634630417886  1.0000
  O   O4        1.0  0.22980670163576278  0.36827040740333533  0.6300425756685208  1.0000
  O   O5        1.0  0.06655570236273123  0.7874949824667912  0.6181670502056713  1.0000
  O   O6        1.0  0.06799193260994829  0.5702189777120774  0.8061446971115349  1.0000
  O   O7        1.0  0.06788769681219664  0.5855520540811793  0.4420669823489995  1.0000
  O   O8        1.0  0.06932386633223975  0.36827431710640757  0.6300446900705425  1.0000
