data_image0
_chemical_formula_structural       NC6NC3H6C9H10C6NCH7Zn2C4O8
_chemical_formula_sum              "N3 C29 H23 Zn2 O8"
_cell_length_a       14.934028789175542
_cell_length_b       10.297183801781406
_cell_length_c       9.273390368590327
_cell_angle_alpha    86.14107260812962
_cell_angle_beta     89.96634751040418
_cell_angle_gamma    89.9601079490019

_space_group_name_H-M_alt    "P 1"
_space_group_IT_number       1

loop_
  _space_group_symop_operation_xyz
  'x, y, z'

loop_
  _atom_site_type_symbol
  _atom_site_label
  _atom_site_symmetry_multiplicity
  _atom_site_fract_x
  _atom_site_fract_y
  _atom_site_fract_z
  _atom_site_occupancy
  N   N1        1.0  0.8433042008032572  0.40569131071387315  0.40895568648703295  1.0000
  C   C1        1.0  0.7658182243851357  0.4046956201932879  0.40827744825862977  1.0000
  C   C2        1.0  0.6694217647211453  0.4034524050064413  0.40743079413289185  1.0000
  C   C3        1.0  0.6216531830188551  0.50027381049356  0.4732617932337613  1.0000
  C   C4        1.0  0.5281415199128053  0.4992756049496234  0.4725829624760203  1.0000
  C   C5        1.0  0.48148588637208833  0.4015054064784699  0.40610692849988883  1.0000
  C   C6        1.0  0.3848399883778848  0.40360317719829797  0.40753453328544054  1.0000
  N   N2        1.0  0.30735976548559535  0.40526802588513805  0.40866784596894085  1.0000
  C   C7        1.0  0.5292489806734212  0.30334449271531067  0.33936461709367505  1.0000
  C   C8        1.0  0.4809393419440443  0.19704797559179843  0.26709258066118613  1.0000
  C   C9        1.0  0.6233916485927272  0.3053612701705024  0.340735920404293  1.0000
  H   H1        1.0  0.6566927165161099  0.576560102528215  0.5251311033687169  1.0000
  H   H2        1.0  0.492101144751834  0.5749743805490861  0.5240526640388772  1.0000
  H   H3        1.0  0.4381972085375082  0.24040153595887406  0.17847595754951698  1.0000
  H   H4        1.0  0.43818831877418196  0.1412043595618615  0.3472235650524724  1.0000
  H   H5        1.0  0.5284024605161419  0.1281981205019325  0.22027363799124022  1.0000
  H   H6        1.0  0.6609250210534907  0.23066951666952962  0.2899512045742463  1.0000
  C   C10       1.0  0.07533939997018813  0.024006046604488906  0.4090159727338749  1.0000
  C   C11       1.0  0.07274391855399709  0.03241677447874559  0.257351284899088  1.0000
  C   C12       1.0  0.07141397040626862  0.9201093491210274  0.1796490303050249  1.0000
  C   C13       1.0  0.07273348621203365  0.7972400648881364  0.2567634552578051  1.0000
  C   C14       1.0  0.07533318445845545  0.7869433886702804  0.40861997618058477  1.0000
  C   C15       1.0  0.07661832100713717  0.9007930362876785  0.4837549507840162  1.0000
  C   C16       1.0  0.06860652623612042  0.9386383402460621  0.015612961292643222  1.0000
  C   C17       1.0  0.01618261648989039  0.8392013288225191  0.9354131232340063  1.0000
  C   C18       1.0  0.11819645292054635  0.8393726639266987  0.9307712594931706  1.0000
  H   H7        1.0  0.07634802465775589  0.34830356961188835  0.46745723635281716  1.0000
  H   H8        1.0  0.07174210756506394  0.12708614464186632  0.19880034769863553  1.0000
  H   H9        1.0  0.07175732295794975  0.7090964058464918  0.19983846760221136  1.0000
  H   H10       1.0  0.07862034061682777  0.893576540657328  0.6007674425767082  1.0000
  H   H11       1.0  0.0802313876896581  0.5602794275201084  0.6954341922476963  1.0000
  H   H12       1.0  0.0677049864054115  0.03885009089054537  0.962888884539574  1.0000
  H   H13       1.0  0.9862962278315697  0.7562188630241243  0.00102256914064691  1.0000
  H   H14       1.0  0.9846022423648217  0.8791271052099212  0.8334595925927641  1.0000
  H   H15       1.0  0.15027799165670092  0.7564950819185283  0.9935617748479242  1.0000
  H   H16       1.0  0.14623867688831785  0.8793961980865937  0.826103433950943  1.0000
  C   C19       1.0  0.0753778202104562  0.40142374662394165  0.985574294041073  1.0000
  C   C20       1.0  0.15761896027246247  0.3987676130473908  0.05912710704296553  1.0000
  C   C21       1.0  0.23842553132684496  0.4081886990651638  0.9836572681666708  1.0000
  C   C22       1.0  0.23904406557490385  0.4206159698125809  0.8320224456071563  1.0000
  C   C23       1.0  0.15734872668067854  0.42108084505270776  0.7576608291120688  1.0000
  C   C24       1.0  0.07529476992307549  0.4095257093439242  0.8320616750432039  1.0000
  N   N3        1.0  0.32136404903990207  0.43153139625876574  0.7511774085879019  1.0000
  C   C25       1.0  0.4097738253373684  0.4316038557311495  0.8181106881618723  1.0000
  H   H17       1.0  0.9340449728500462  0.3391526767053159  0.2715343419943861  1.0000
  H   H18       1.0  0.30012045958512656  0.4069370791760891  0.044740624905225346  1.0000
  H   H19       1.0  0.8666173396381456  0.3087942451418124  0.7367524092924361  1.0000
  H   H20       1.0  0.3184586274437058  0.4401433518462308  0.6382989089670246  1.0000
  H   H21       1.0  0.41558446682915695  0.5149304735424929  0.8875323677181325  1.0000
  H   H22       1.0  0.4206969905377369  0.3387363217973477  0.8837060464369909  1.0000
  H   H23       1.0  0.4622490259104386  0.4413765514753353  0.7331824750470375  1.0000
  Zn  Zn1       1.0  0.9772206253442912  0.4055657584091795  0.4088809404249235  1.0000
  Zn  Zn2       1.0  0.17344336994048737  0.4053830499203117  0.40875438110674667  1.0000
  C   C26       1.0  0.07530849422452277  0.4028191473234296  0.6720601290383978  1.0000
  C   C27       1.0  0.0753576437792558  0.4081312994345106  0.1455753317229913  1.0000
  C   C28       1.0  0.07533030128145873  0.6426770204272805  0.4029514428513796  1.0000
  C   C29       1.0  0.07533576977041798  0.16827186639733616  0.41468409560433783  1.0000
  O   O1        1.0  0.1498163813817459  0.4103074112150816  0.1992251159362397  1.0000
  O   O2        1.0  0.14977827953401757  0.4005033800647407  0.618313874844862  1.0000
  O   O3        1.0  0.14979488503052923  0.5941916612916026  0.40100670670666916  1.0000
  O   O4        1.0  0.14979970893823302  0.21661913830900792  0.41653217604626835  1.0000
  O   O5        1.0  0.0008642193853538605  0.5943296700841741  0.40110314552100834  1.0000
  O   O6        1.0  0.0008476138795523435  0.40064294885432555  0.6184102360004797  1.0000
  O   O7        1.0  0.0008857159572601671  0.4104469181507372  0.1993197442708936  1.0000
  O   O8        1.0  0.0008690434995568563  0.21675863698756623  0.41662691244469313  1.0000
