data_image0
_chemical_formula_structural       NC10NC5H10C7OC6H10C7OC3FC3H9Zn2C4O8
_chemical_formula_sum              "N2 C45 H29 O10 F1 Zn2"
_cell_length_a       19.4436361288709
_cell_length_b       10.299379429549807
_cell_length_c       10.299381723001552
_cell_angle_alpha    85.55361563187328
_cell_angle_beta     89.68829794462899
_cell_angle_gamma    89.41578640036583

_space_group_name_H-M_alt    "P 1"
_space_group_IT_number       1

loop_
  _space_group_symop_operation_xyz
  'x, y, z'

loop_
  _atom_site_type_symbol
  _atom_site_label
  _atom_site_symmetry_multiplicity
  _atom_site_fract_x
  _atom_site_fract_y
  _atom_site_fract_z
  _atom_site_occupancy
  N   N1        1.0  0.6478338478987836  0.4090196226356546  0.5615857107462916  1.0000
  C   C1        1.0  0.5889963601325976  0.41892323893059014  0.5759661146071091  1.0000
  C   C2        1.0  0.515665135220136  0.43127438038262067  0.5939539783134393  1.0000
  C   C3        1.0  0.47349085022398774  0.39926802874002476  0.4992917792595149  1.0000
  C   C4        1.0  0.3975854348520571  0.4097073305836754  0.5046160940453843  1.0000
  C   C5        1.0  0.3578366515059448  0.3849667025190662  0.6116974482882789  1.0000
  C   C6        1.0  0.2817172339428755  0.3888824929705956  0.5987366572033297  1.0000
  C   C7        1.0  0.2411440726939918  0.4465546035381298  0.6924865531127851  1.0000
  C   C8        1.0  0.1694815838190587  0.4501917080587304  0.6819413409393404  1.0000
  C   C9        1.0  0.1373974829139805  0.39576069165268146  0.5779329022275073  1.0000
  C   C10       1.0  0.0636057625802079  0.39945903030927443  0.5672323859771486  1.0000
  N   N2        1.0  0.004282224437866099  0.40243230053587187  0.5586298803250769  1.0000
  C   C11       1.0  0.1772457338767635  0.3373814821057244  0.4845664960869244  1.0000
  C   C12       1.0  0.2489246769691764  0.33369013027306754  0.4948599503656947  1.0000
  C   C13       1.0  0.3859579828196422  0.34451425223254817  0.7428066627756889  1.0000
  C   C14       1.0  0.4446160413852952  0.38764232830934175  0.790033623686911  1.0000
  C   C15       1.0  0.48882816565521714  0.4854999613726454  0.7156309326556178  1.0000
  H   H1        1.0  0.4955991637316145  0.37014204457371613  0.4089954501188415  1.0000
  H   H2        1.0  0.37289533172416417  0.4321957394654468  0.4114496361328934  1.0000
  H   H3        1.0  0.2650057820520097  0.4898543999464427  0.7733192839164684  1.0000
  H   H4        1.0  0.1391287325803432  0.4955147048779409  0.754845876952305  1.0000
  H   H5        1.0  0.1529121054205209  0.294277380952104  0.40406817776521287  1.0000
  H   H6        1.0  0.2786118996944196  0.286123675967475  0.422652555607667  1.0000
  H   H7        1.0  0.3549879443804729  0.2802987985950183  0.8070767090104796  1.0000
  H   H8        1.0  0.45975746986998434  0.3535810959701204  0.887980336806762  1.0000
  H   H9        1.0  0.4587193827525402  0.5762172125359973  0.6903463416358546  1.0000
  H   H10       1.0  0.5321066343447864  0.5110924457719035  0.778706696221587  1.0000
  C   C16       1.0  0.8260688068807174  0.02433390267906121  0.5602617952660209  1.0000
  C   C17       1.0  0.8677446545931142  0.01370503471985862  0.6716607955258898  1.0000
  C   C18       1.0  0.8881199160215059  0.8911170265732586  0.7287037406674013  1.0000
  C   C19       1.0  0.8676609791158816  0.778484434601521  0.6713852095461454  1.0000
  C   C20       1.0  0.8260538455370713  0.7871079272146037  0.5599650145271633  1.0000
  C   C21       1.0  0.8053496879398998  0.9105052109077181  0.5052479690726295  1.0000
  C   C22       1.0  0.9327239543209501  0.8797993081282975  0.8455302720681608  1.0000
  O   O1        1.0  0.9763561428159971  0.7882098432404332  0.8575245431289654  1.0000
  C   C23       1.0  0.9278262357960617  0.9722831543539635  0.9487546887783507  1.0000
  C   C24       1.0  0.9866466017933256  0.0006800557744113285  0.01982891712293111  1.0000
  C   C25       1.0  0.9823716181465127  0.08654503235406154  0.1183557217176121  1.0000
  C   C26       1.0  0.9193634780639672  0.14401076782848077  0.14763616604219787  1.0000
  C   C27       1.0  0.8604373247765892  0.11530755442238205  0.07880689294473986  1.0000
  C   C28       1.0  0.864436122201843  0.029527311247035778  0.9801947124587074  1.0000
  H   H11       1.0  0.7482920581536333  0.2517852085303909  0.34887731263389554  1.0000
  H   H12       1.0  0.8850392957132791  0.1009846019912626  0.7133539901488168  1.0000
  H   H13       1.0  0.8837552907106377  0.6838972310609519  0.7146885425815659  1.0000
  H   H14       1.0  0.7732210739620736  0.917895168112382  0.4193671275197377  1.0000
  H   H15       1.0  0.8105490523965982  0.46300415153013036  0.516526407519426  1.0000
  H   H16       1.0  0.03599083563092842  0.9573173682859301  0.9983726057424961  1.0000
  H   H17       1.0  0.027955638043056563  0.10848728016819109  0.17207327440583375  1.0000
  H   H18       1.0  0.9161481713900348  0.21036105424626728  0.2240031067430853  1.0000
  H   H19       1.0  0.8115353593117519  0.15910134913131516  0.10225934351127651  1.0000
  H   H20       1.0  0.81790176690331  0.006918580724686313  0.9296447559935106  1.0000
  C   C29       1.0  0.8261192271095621  0.40561869427322295  0.17874530140552225  1.0000
  C   C30       1.0  0.8478874062643431  0.27475437295819777  0.18747681514730608  1.0000
  C   C31       1.0  0.8596138778088852  0.20919247715596523  0.07466560432858316  1.0000
  C   C32       1.0  0.8478216174072929  0.2750487398869026  0.9522111965667968  1.0000
  C   C33       1.0  0.8260033968715629  0.4058230922852879  0.9414815387390999  1.0000
  C   C34       1.0  0.8154518154570767  0.4704520914692698  0.05533605099473094  1.0000
  C   C35       1.0  0.8819034472957752  0.07060409318029737  0.08377984957046092  1.0000
  O   O2        1.0  0.860720889836108  0.9977472005715617  0.9998027552141399  1.0000
  C   C36       1.0  0.9282282612353988  0.014671689841591505  0.18806236230782858  1.0000
  C   C37       1.0  0.9226901365800899  0.8828055289240474  0.23343280107580064  1.0000
  C   C38       1.0  0.96667188340951  0.8287825116662451  0.33064527143219036  1.0000
  F   F1        1.0  0.9605837995515387  0.7018204727326962  0.37441401662115603  1.0000
  C   C39       1.0  0.016903078784737298  0.9054823049711108  0.3826664474992514  1.0000
  C   C40       1.0  0.023431706247071696  0.03612464306998597  0.3372232059776141  1.0000
  C   C41       1.0  0.9795863399379819  0.09055693418947941  0.2400804202886866  1.0000
  H   H21       1.0  0.7840296783603133  0.6519809564430468  0.3696441180419201  1.0000
  H   H22       1.0  0.8550141050681781  0.22322921619135583  0.2822433122772443  1.0000
  H   H23       1.0  0.8563475042587384  0.22433876052822432  0.8651343675182335  1.0000
  H   H24       1.0  0.7986698486054498  0.5713384365091807  0.047800651964568175  1.0000
  H   H25       1.0  0.8170675173621509  0.4557323228603034  0.6099341134911755  1.0000
  H   H26       1.0  0.8839455664102236  0.8220017092833787  0.1944050822911716  1.0000
  H   H27       1.0  0.050971888921078845  0.8636418794983645  0.45781666250670505  1.0000
  H   H28       1.0  0.06271600003294343  0.09517064941005485  0.3768860535006262  1.0000
  H   H29       1.0  0.986346564884122  0.19139677216734485  0.20472434000744477  1.0000
  Zn  Zn1       1.0  0.750697149853728  0.40711519420549336  0.5607402354102125  1.0000
  Zn  Zn2       1.0  0.9014189125845008  0.4043261235036737  0.5594860409457587  1.0000
  C   C42       1.0  0.8260238767096191  0.40061052101267686  0.7973100657405165  1.0000
  C   C43       1.0  0.8260938315540667  0.4108324049928594  0.3229163237482964  1.0000
  C   C44       1.0  0.8260539153325557  0.642926070805421  0.5548459881353176  1.0000
  C   C45       1.0  0.8260637415204306  0.168515295773362  0.5653804716270507  1.0000
  O   O3        1.0  0.8832834321480821  0.41151807005785823  0.3708254778066138  1.0000
  O   O4        1.0  0.8832286066400503  0.39780703593769423  0.7484486336397229  1.0000
  O   O5        1.0  0.8832520919448705  0.5934799215239013  0.5526571813907997  1.0000
  O   O6        1.0  0.8832598954267363  0.21584519468805755  0.5666168331054315  1.0000
  O   O7        1.0  0.7688561155775532  0.5955961239742948  0.5536094436717032  1.0000
  O   O8        1.0  0.7688326302494934  0.39992479876802545  0.7494008260682348  1.0000
  O   O9        1.0  0.768887456041225  0.4136357872101451  0.37177610885497114  1.0000
  O   O10       1.0  0.7688639193024657  0.2179629025771228  0.5675675615250579  1.0000
