data_image0
_chemical_formula_structural       NC10NC3NH7C7OC3NC3H11C7OC3OC4H12Zn2C4O8
_chemical_formula_sum              "N4 C44 H30 O11 Zn2"
_cell_length_a       19.210446455230148
_cell_length_b       10.298746005989749
_cell_length_c       10.299374482448636
_cell_angle_alpha    85.55101224981433
_cell_angle_beta     89.97251480092041
_cell_angle_gamma    89.95621662588982

_space_group_name_H-M_alt    "P 1"
_space_group_IT_number       1

loop_
  _space_group_symop_operation_xyz
  'x, y, z'

loop_
  _atom_site_type_symbol
  _atom_site_label
  _atom_site_symmetry_multiplicity
  _atom_site_fract_x
  _atom_site_fract_y
  _atom_site_fract_z
  _atom_site_occupancy
  N   N1        1.0  0.65583102185768  0.4206495019407053  0.5674261127235418  1.0000
  C   C1        1.0  0.5956024467444545  0.4228571145675131  0.5676575047797465  1.0000
  C   C2        1.0  0.52079797525904  0.4255941500232192  0.5679441708875803  1.0000
  C   C3        1.0  0.485185230194448  0.5418290233530159  0.5830688850371984  1.0000
  C   C4        1.0  0.4125197587824153  0.54198058460535  0.5830163022794979  1.0000
  C   C5        1.0  0.3756312099653366  0.42630314494422494  0.5680307327316074  1.0000
  C   C6        1.0  0.29830910064605537  0.4249466116308631  0.567879990645241  1.0000
  C   C7        1.0  0.2605644985541844  0.5285406113566378  0.5045273581535406  1.0000
  C   C8        1.0  0.18778615687207242  0.5271383091058562  0.504418130193276  1.0000
  C   C9        1.0  0.15175101428081944  0.4223995480675322  0.5676105639418703  1.0000
  C   C10       1.0  0.0768215122709138  0.42109740913003724  0.5674735914001745  1.0000
  N   N2        1.0  0.016583674455731102  0.42005044520352564  0.5673635003488794  1.0000
  C   C11       1.0  0.1887719628116546  0.3189312561000459  0.630938200673248  1.0000
  C   C12       1.0  0.2615521454947632  0.3200592581661854  0.6310976466348222  1.0000
  C   C13       1.0  0.4138537774419896  0.31188858267910224  0.5531943871518936  1.0000
  N   N3        1.0  0.4846237039454677  0.3143336878422547  0.5533602170723693  1.0000
  H   H1        1.0  0.5132845413482986  0.6312658663683135  0.5951272669631984  1.0000
  H   H2        1.0  0.38524904824044653  0.6319989768957135  0.5964695126994843  1.0000
  H   H3        1.0  0.28729920806236  0.6098127481120701  0.45354387401066276  1.0000
  H   H4        1.0  0.1596469798971627  0.6075823419193747  0.4547649915635294  1.0000
  H   H5        1.0  0.1613978216872968  0.23752378391710538  0.6804917483634129  1.0000
  H   H6        1.0  0.2890462411479339  0.23973405151673743  0.6821885683558818  1.0000
  H   H7        1.0  0.3875903000888844  0.2210072205336835  0.5396948358190352  1.0000
  C   C14       1.0  0.8361774122784366  0.03894796227631003  0.5673776430492259  1.0000
  C   C15       1.0  0.86876116437892  0.04743002110372042  0.44486434245675444  1.0000
  C   C16       1.0  0.8845052208211865  0.9345969731567654  0.382226799397843  1.0000
  C   C17       1.0  0.8687616945974924  0.8121934317885501  0.44481520390988777  1.0000
  C   C18       1.0  0.8362439204709994  0.8017420329904312  0.5674231873724214  1.0000
  C   C19       1.0  0.8199905847650578  0.9156851905811282  0.627771973704679  1.0000
  C   C20       1.0  0.9195049271674921  0.9433613302591702  0.25340164265749987  1.0000
  O   O1        1.0  0.9620107968829206  0.8553189453505914  0.22818131486302715  1.0000
  C   C21       1.0  0.906285880418785  0.05194544341191288  0.1531954751705402  1.0000
  C   C22       1.0  0.8403748922632883  0.11144993839532913  0.14109913229186777  1.0000
  C   C23       1.0  0.8281933298387136  0.21316464875834382  0.04519180176491289  1.0000
  N   N4        1.0  0.761167890876577  0.27351296804589564  0.03399905339735598  1.0000
  C   C24       1.0  0.8819660373384948  0.25498268686684455  0.9600459619934001  1.0000
  C   C25       1.0  0.9472419446822674  0.19531493591545912  0.9702862926873919  1.0000
  C   C26       1.0  0.9593694138572934  0.09402486382382791  0.06588941634048706  1.0000
  H   H8        1.0  0.7755753350744059  0.23021440938933901  0.7997301214074024  1.0000
  H   H9        1.0  0.8826117412219451  0.14193511711318219  0.39863887650806856  1.0000
  H   H10       1.0  0.8813239549804899  0.7249926507764581  0.39711383902544894  1.0000
  H   H11       1.0  0.7948778258516366  0.9083949718317926  0.7222094368190973  1.0000
  H   H12       1.0  0.7750634528278278  0.5746755832492713  0.7992872270342057  1.0000
  H   H13       1.0  0.7982095431100057  0.07810022550515816  0.2050708141138746  1.0000
  H   H14       1.0  0.720712529236947  0.24311070852106842  0.09695894922876436  1.0000
  H   H15       1.0  0.7515231717510973  0.3491617518772628  0.9627603946668132  1.0000
  H   H16       1.0  0.8732061915685726  0.3333669877987256  0.8855583180906368  1.0000
  H   H17       1.0  0.9885548007470882  0.22763102743396946  0.9039823854707243  1.0000
  H   H18       1.0  0.01042088105904449  0.049296566817783154  0.0724082874116958  1.0000
  C   C27       1.0  0.8362751635191336  0.42043237811468764  0.18601788017547527  1.0000
  C   C28       1.0  0.908985921374491  0.434977224584194  0.18363476311200655  1.0000
  C   C29       1.0  0.9455714130388345  0.4437849021191542  0.06514510025370623  1.0000
  C   C30       1.0  0.9088195293183705  0.43491362461383454  0.9483959374246014  1.0000
  C   C31       1.0  0.836146169767397  0.4202575842232313  0.9487829195193686  1.0000
  C   C32       1.0  0.8002748238825386  0.4134428559633578  0.0681000523368378  1.0000
  C   C33       1.0  0.022430528303390096  0.45778448753746104  0.06259359188715474  1.0000
  O   O2        1.0  0.05657692527886082  0.404181173789971  0.9767373354294384  1.0000
  C   C34       1.0  0.06054933276083707  0.5326089792127209  0.15735927284315765  1.0000
  C   C35       1.0  0.12845991651021804  0.4957752342157626  0.19550957484001152  1.0000
  C   C36       1.0  0.16564738418609437  0.5659835488868619  0.28371065736555057  1.0000
  O   O3        1.0  0.23299216202337084  0.5239759448903589  0.31898970381216163  1.0000
  C   C37       1.0  0.2766110156854449  0.5857794971657204  0.407378156463344  1.0000
  C   C38       1.0  0.13453944345208546  0.6754311605290919  0.3336372471977789  1.0000
  C   C39       1.0  0.06744170396006587  0.7135968826350221  0.2949763295080139  1.0000
  C   C40       1.0  0.03065598162347594  0.6431548717533464  0.20701619588561804  1.0000
  H   H19       1.0  0.6991798383932373  0.39099656858707504  0.39799090206072396  1.0000
  H   H20       1.0  0.9373370309245291  0.43802239718475766  0.27422130765203345  1.0000
  H   H21       1.0  0.9370103031875022  0.4407228938210026  0.8569977823191302  1.0000
  H   H22       1.0  0.7442201418374355  0.40222899049860006  0.06913354598867061  1.0000
  H   H23       1.0  0.8082938549577223  0.4135436915742139  0.6215585701443986  1.0000
  H   H24       1.0  0.15259308053710852  0.41141587532247836  0.15762183967266805  1.0000
  H   H25       1.0  0.32671273233696585  0.5323345500129635  0.4173249590943999  1.0000
  H   H26       1.0  0.2514747914535389  0.5840201445011239  0.504617116308973  1.0000
  H   H27       1.0  0.2873217045206826  0.6877761583793189  0.3697208512343199  1.0000
  H   H28       1.0  0.16182219746569507  0.7318283997190507  0.40182683507046946  1.0000
  H   H29       1.0  0.043962334291190786  0.798444247356782  0.33289291144448824  1.0000
  H   H30       1.0  0.9791842856160365  0.6759699086621411  0.17680291487589425  1.0000
  Zn  Zn1       1.0  0.7599364423014436  0.4204731610341295  0.5674155432729819  1.0000
  Zn  Zn2       1.0  0.9124782353504776  0.4202162002068395  0.5673847053246035  1.0000
  C   C41       1.0  0.8361685547650497  0.41511650889303353  0.8046037216781726  1.0000
  C   C42       1.0  0.836247788759858  0.4255744882745348  0.3301966541515451  1.0000
  C   C43       1.0  0.8362286491805098  0.6575588915994668  0.5622392340033036  1.0000
  C   C44       1.0  0.836187642144762  0.18313054520190714  0.5725612109848432  1.0000
  O   O4        1.0  0.8941274165303326  0.42719704588994917  0.378572664608163  1.0000
  O   O5        1.0  0.89406461831974  0.4132979442335011  0.7562039320143643  1.0000
  O   O6        1.0  0.8941123647229405  0.6090732353764647  0.5604928936863669  1.0000
  O   O7        1.0  0.8940796180922279  0.23142176414801097  0.574283605569091  1.0000
  O   O8        1.0  0.7783350075046669  0.6092675971820616  0.5605166430321868  1.0000
  O   O9        1.0  0.7782872612460761  0.41349386649439607  0.7562276122054478  1.0000
  O   O10       1.0  0.7783500597630622  0.4273929232486673  0.37859478334005514  1.0000
  O   O11       1.0  0.7783022613048357  0.23161763219480802  0.5743058216717449  1.0000
