data_image0
_chemical_formula_structural       NC9NC5H8C9H10C6OCH7Zn2C4O8
_chemical_formula_sum              "N2 C34 H25 O9 Zn2"
_cell_length_a       17.807436237873137
_cell_length_b       9.272676604525724
_cell_length_c       9.273891588657152
_cell_angle_alpha    86.3289676754197
_cell_angle_beta     89.08663702953788
_cell_angle_gamma    88.94495835625186

_space_group_name_H-M_alt    "P 1"
_space_group_IT_number       1

loop_
  _space_group_symop_operation_xyz
  'x, y, z'

loop_
  _atom_site_type_symbol
  _atom_site_label
  _atom_site_symmetry_multiplicity
  _atom_site_fract_x
  _atom_site_fract_y
  _atom_site_fract_z
  _atom_site_occupancy
  N   N1        1.0  0.7197198584797522  0.5259920920906103  0.4050364010164347  1.0000
  C   C1        1.0  0.6589714727497374  0.48681257528143784  0.3926327879005247  1.0000
  C   C2        1.0  0.5834071578027744  0.43807757087139376  0.37720404021306175  1.0000
  C   C3        1.0  0.5652518091228806  0.357724682455578  0.26031333954157954  1.0000
  C   C4        1.0  0.4918824059161009  0.3102821239043807  0.24524077656034501  1.0000
  C   C5        1.0  0.4356176345242704  0.34277299328433886  0.3470210990236333  1.0000
  C   C6        1.0  0.3576452510393974  0.2924821870259924  0.33109451492676834  1.0000
  C   C7        1.0  0.2958415753018575  0.38351114848704837  0.360274842247001  1.0000
  C   C8        1.0  0.22232869359106222  0.33584331796272515  0.34521649997291104  1.0000
  C   C9        1.0  0.1594887530234885  0.4298638989221595  0.3748135455238479  1.0000
  N   N2        1.0  0.1089783988871505  0.505449952419039  0.3986087359885364  1.0000
  C   C10       1.0  0.2100345872946268  0.1968598608380185  0.30094846637550465  1.0000
  C   C11       1.0  0.27098084275681766  0.1058154353011216  0.27175876079974093  1.0000
  C   C12       1.0  0.3443727397738468  0.15304318868004496  0.28659041379555283  1.0000
  C   C13       1.0  0.4544664430209217  0.4236769539514691  0.464157490453386  1.0000
  C   C14       1.0  0.5278881522583337  0.47090655437305223  0.47905637892084996  1.0000
  H   H1        1.0  0.6077493963202344  0.3320320396550893  0.18060660297044295  1.0000
  H   H2        1.0  0.47893447312560933  0.2498407334483319  0.15294540979290372  1.0000
  H   H3        1.0  0.3047898219177871  0.49200967621209984  0.3927910887229953  1.0000
  H   H4        1.0  0.1534137657622492  0.15896551987298713  0.28902656293160534  1.0000
  H   H5        1.0  0.2613426300445451  0.9982151597627024  0.23791397755137253  1.0000
  H   H6        1.0  0.390708130194299  0.0798597845802782  0.2651345445035178  1.0000
  H   H7        1.0  0.4126786230844419  0.44878432147030045  0.5452985346274899  1.0000
  H   H8        1.0  0.541374537946007  0.5326924290923882  0.5702013603885486  1.0000
  C   C15       1.0  0.9122297902865812  0.09232763422554459  0.4000162279924355  1.0000
  C   C16       1.0  0.8818182244175767  0.15912328599448378  0.5198953707034386  1.0000
  C   C17       1.0  0.8582686447774728  0.07735301733423827  0.6431840310272623  1.0000
  C   C18       1.0  0.8643701969939608  0.926351777817078  0.6507416077250204  1.0000
  C   C19       1.0  0.8935543459102947  0.8581610774633458  0.5297721834333277  1.0000
  C   C20       1.0  0.916475574833207  0.939103070307262  0.4036412729754679  1.0000
  C   C21       1.0  0.8380900399391155  0.8453890592778615  0.7896402879403436  1.0000
  C   C22       1.0  0.8001699999343532  0.7011644804337718  0.7759147795504384  1.0000
  C   C23       1.0  0.8793053907503079  0.7049896344850044  0.8355980969366521  1.0000
  H   H9        1.0  0.929592572230701  0.3880764540361026  0.16352796566199101  1.0000
  H   H10       1.0  0.8778553784376074  0.2758536742283153  0.5198222409204587  1.0000
  H   H11       1.0  0.8357554514214756  0.13281611256589065  0.7341233432510925  1.0000
  H   H12       1.0  0.8971337415654799  0.7415840897774183  0.531051582838537  1.0000
  H   H13       1.0  0.9369864353544046  0.857976306786124  0.05036265774596593  1.0000
  H   H14       1.0  0.8165651456295313  0.907478179160648  0.8807509672421028  1.0000
  H   H15       1.0  0.7970021048971061  0.6610761131524303  0.6660811454096631  1.0000
  H   H16       1.0  0.7563987236526786  0.6754528958549966  0.8597943871488318  1.0000
  H   H17       1.0  0.924184891132445  0.6670983645881444  0.7621043819541148  1.0000
  H   H18       1.0  0.8817829556739949  0.6815078917459932  0.9543788067112613  1.0000
  C   C24       1.0  0.9155639984146883  0.5118319334958543  0.9785167453320276  1.0000
  C   C25       1.0  0.9773800568320986  0.5694839087341133  0.046335457012409036  1.0000
  C   C26       1.0  0.034989613265379506  0.6381268978471015  0.9658871635008487  1.0000
  C   C27       1.0  0.030989643127679267  0.6494683862826411  0.8145611576495795  1.0000
  C   C28       1.0  0.9707472111106378  0.5908601309534807  0.7453704540750533  1.0000
  C   C29       1.0  0.9131413241019544  0.5195987351035625  0.8251407161082949  1.0000
  O   O1        1.0  0.09474552821555049  0.6941119448354198  0.04036505444009775  1.0000
  C   C30       1.0  0.15697781729537752  0.7667266512365647  0.972592194305485  1.0000
  H   H19       1.0  0.7364630301651783  0.43270601473268533  0.09210494807847369  1.0000
  H   H20       1.0  0.07453343580156457  0.7022411692080512  0.74916026009025  1.0000
  H   H21       1.0  0.9701784145811234  0.5983229167078687  0.6283310964736342  1.0000
  H   H22       1.0  0.7936732507013277  0.4605507657425765  0.5513856686198224  1.0000
  H   H23       1.0  0.1373050234885762  0.8653580422658924  0.9089472238170972  1.0000
  H   H24       1.0  0.18793709592267893  0.6935179249303889  0.9013560593501908  1.0000
  H   H25       1.0  0.19559913713321464  0.7991602269909761  0.0569483941208162  1.0000
  Zn  Zn1       1.0  0.8320514204551769  0.5200603036595055  0.4031898360969015  1.0000
  Zn  Zn2       1.0  0.9966467258743793  0.5113700968676307  0.4004671014243364  1.0000
  C   C31       1.0  0.9135687990029537  0.5123869897756546  0.6650861142709583  1.0000
  C   C32       1.0  0.9151311534188024  0.5190451363373789  0.1385709427912487  1.0000
  C   C33       1.0  0.9156855820690042  0.7789920069687442  0.39721177394454976  1.0000
  C   C34       1.0  0.9130143052824636  0.252438390577008  0.40644535348457994  1.0000
  O   O2        1.0  0.9774489157564334  0.5181617748473388  0.19125330302546814  1.0000
  O   O3        1.0  0.9761750607361412  0.5066735939000423  0.610336841801963  1.0000
  O   O4        1.0  0.9778835435112514  0.7219605751719378  0.394026437079934  1.0000
  O   O5        1.0  0.975740377177097  0.3028748058632136  0.40756360063676955  1.0000
  O   O6        1.0  0.852957712984189  0.7285555976309641  0.3960933378060285  1.0000
  O   O7        1.0  0.8512492391110971  0.5132703478933907  0.6124036730826954  1.0000
  O   O8        1.0  0.8525230988888467  0.5247584626956467  0.19331840096622427  1.0000
  O   O9        1.0  0.8508145599454663  0.30947148439079286  0.4096288066098137  1.0000
