data_image0
_chemical_formula_structural       NC5NC4H6C6ClH5C6H6Zn2C4O8
_chemical_formula_sum              "N2 C25 H17 Cl1 Zn2 O8"
_cell_length_a       13.854160002989762
_cell_length_b       9.276545438789551
_cell_length_c       10.681121600428286
_cell_angle_alpha    85.59384611870172
_cell_angle_beta     89.99987030852816
_cell_angle_gamma    89.40960627284836

_space_group_name_H-M_alt    "P 1"
_space_group_IT_number       1

loop_
  _space_group_symop_operation_xyz
  'x, y, z'

loop_
  _atom_site_type_symbol
  _atom_site_label
  _atom_site_symmetry_multiplicity
  _atom_site_fract_x
  _atom_site_fract_y
  _atom_site_fract_z
  _atom_site_occupancy
  N   N1        1.0  0.8980234047746566  0.578058516309577  0.6194688905697303  1.0000
  C   C1        1.0  0.8255168945917187  0.6032657775893999  0.5681878184747647  1.0000
  C   C2        1.0  0.735317772978901  0.6346242943221776  0.5043922011085706  1.0000
  C   C3        1.0  0.6479498331468959  0.6051464774785387  0.5666835346903221  1.0000
  C   C4        1.0  0.5601753605088382  0.6346243086489491  0.5043921809857379  1.0000
  C   C5        1.0  0.4704087542434355  0.6032656302977442  0.5681878979916855  1.0000
  N   N2        1.0  0.3982498346148451  0.5780584528246748  0.6194688904618202  1.0000
  C   C6        1.0  0.5597972790450452  0.694186231379366  0.3798263061934124  1.0000
  C   C7        1.0  0.6471176543187643  0.7258137655775123  0.3174462189223468  1.0000
  C   C8        1.0  0.6467052790762332  0.7856168087288762  0.18289989149114505  1.0000
  C   C9        1.0  0.7348743680899916  0.6941862300545198  0.37982622776737957  1.0000
  H   H1        1.0  0.6482685332352971  0.5589354334383818  0.6630951773599412  1.0000
  H   H2        1.0  0.4917741070090366  0.7159687114528861  0.33149430802173896  1.0000
  H   H3        1.0  0.7110893980487634  0.8537645807798948  0.16227129327704914  1.0000
  H   H4        1.0  0.5813809203770447  0.8537645826562309  0.1622713498176831  1.0000
  H   H5        1.0  0.64732988304715  0.6951097827583428  0.12069375000426551  1.0000
  H   H6        1.0  0.802597065315229  0.7159688239153627  0.3314942338690521  1.0000
  C   C10       1.0  0.1510543568038791  0.15462333762117808  0.6192624704970884  1.0000
  C   C11       1.0  0.15141065954509655  0.2382748151759855  0.5036761220891366  1.0000
  C   C12       1.0  0.14298563110187  0.17319543376597868  0.39060553052439984  1.0000
  C   C13       1.0  0.13400487036320397  0.023604292410647664  0.39138172405670696  1.0000
  C   C14       1.0  0.1351375767070091  0.9384143994953139  0.5048464836850766  1.0000
  C   C15       1.0  0.14522822524598547  0.0014825660688808687  0.61968617690878  1.0000
  Cl  Cl1       1.0  0.14222656426458768  0.27981685351235996  0.24763823689881703  1.0000
  H   H7        1.0  0.20043551212725763  0.4175823355133621  0.8161474331526848  1.0000
  H   H8        1.0  0.15593325630112798  0.3549953803496575  0.5011967507270425  1.0000
  H   H9        1.0  0.1270646380851801  0.9728827012391069  0.30390356277539055  1.0000
  H   H10       1.0  0.13041850030017432  0.8221539348122072  0.5025437204861238  1.0000
  H   H11       1.0  0.11288733497160083  0.7027469870939334  0.8221850082746365  1.0000
  C   C16       1.0  0.14814130082935992  0.578052912286827  0.25172909012193534  1.0000
  C   C17       1.0  0.07960617899167463  0.4978579686518716  0.19026647103379554  1.0000
  C   C18       1.0  0.07960611809178395  0.4978580611098149  0.059384331127155354  1.0000
  C   C19       1.0  0.14814122446365885  0.5780529829701747  0.987219525833638  1.0000
  C   C20       1.0  0.21661978122957395  0.6581814690132404  0.04868153131850028  1.0000
  C   C21       1.0  0.21661976903411198  0.6581814466540765  0.1795738299703582  1.0000
  H   H12       1.0  0.2174484711411231  0.6591520353951859  0.5450274164549387  1.0000
  H   H13       1.0  0.025885115077147743  0.4349973816480921  0.24327184919252587  1.0000
  H   H14       1.0  0.02588509445153675  0.43499744952227665  0.014767820000950227  1.0000
  H   H15       1.0  0.2703478599228428  0.7210503394240139  0.995720492672648  1.0000
  H   H16       1.0  0.2703478116387765  0.7210502888762316  0.224144860131759  1.0000
  H   H17       1.0  0.2174487758475096  0.6591515330201194  0.6830983904901835  1.0000
  Zn  Zn1       1.0  0.042377979052844454  0.5780546374969051  0.619476128130297  1.0000
  Zn  Zn2       1.0  0.2538953426886705  0.5780505320751892  0.6194719317508228  1.0000
  C   C22       1.0  0.14817863087543398  0.5723085914136408  0.8481932267295389  1.0000
  C   C23       1.0  0.14809698811238703  0.5837983974782361  0.39075495692896145  1.0000
  C   C24       1.0  0.14632450132705244  0.8414081120566901  0.614615779678958  1.0000
  C   C25       1.0  0.14995105740316306  0.3146971444276059  0.6243324698794368  1.0000
  O   O1        1.0  0.22835189680575763  0.5857187861170182  0.4374117121949186  1.0000
  O   O2        1.0  0.22846051448671834  0.5703839990656976  0.8015329254733345  1.0000
  O   O3        1.0  0.22696219935320439  0.7876852652339578  0.6129174851523904  1.0000
  O   O4        1.0  0.22985013969176515  0.3684175302651176  0.6260270586263139  1.0000
  O   O5        1.0  0.0664231098692436  0.7876876393099479  0.6129210012496515  1.0000
  O   O6        1.0  0.06792141307985777  0.5703881055522395  0.8015363756655469  1.0000
  O   O7        1.0  0.06781279580887166  0.5857228423556355  0.43741365673940535  1.0000
  O   O8        1.0  0.0693110387618796  0.36842157619034627  0.626029097055196  1.0000
