data_image0
_chemical_formula_structural       NC4NH4C12H10C6H6Zn2C4O8
_chemical_formula_sum              "N2 C26 H20 Zn2 O8"
_cell_length_a       11.318664859524475
_cell_length_b       14.994057918209652
_cell_length_c       10.681121600428286
_cell_angle_alpha    85.56355070602301
_cell_angle_beta     89.15265362148361
_cell_angle_gamma    92.10215327452082

_space_group_name_H-M_alt    "P 1"
_space_group_IT_number       1

loop_
  _space_group_symop_operation_xyz
  'x, y, z'

loop_
  _atom_site_type_symbol
  _atom_site_label
  _atom_site_symmetry_multiplicity
  _atom_site_fract_x
  _atom_site_fract_y
  _atom_site_fract_z
  _atom_site_occupancy
  N   N1        1.0  0.11321810063640929  0.008425394194799148  0.5978168544933855  1.0000
  C   C1        1.0  0.04923689309857515  0.019842886042378265  0.6800740294462512  1.0000
  C   C2        1.0  0.9679814773979868  0.03432481913148978  0.7845440538683579  1.0000
  C   C3        1.0  0.871222013534262  0.09832075476508972  0.742844323402434  1.0000
  C   C4        1.0  0.7899796052474807  0.05791335847372459  0.6552673109998957  1.0000
  N   N2        1.0  0.7260084899285515  0.02610752022999518  0.586295188794458  1.0000
  H   H1        1.0  0.9280321021737145  0.9689116591112678  0.8230513829461821  1.0000
  H   H2        1.0  0.01976236273492971  0.06355686160998464  0.8599006440388732  1.0000
  H   H3        1.0  0.9111717862337683  0.1617506242218858  0.6973974378896286  1.0000
  H   H4        1.0  0.8194305305471988  0.11458043339912694  0.8266536682742884  1.0000
  C   C5        1.0  0.4196682385235879  0.7552998471878739  0.5920420622649512  1.0000
  C   C6        1.0  0.4879830173684469  0.7048431483521777  0.6782988588370837  1.0000
  C   C7        1.0  0.48792385929214155  0.6116177953950189  0.678351797778232  1.0000
  C   C8        1.0  0.4196502454668137  0.5667983966391881  0.5921090698691245  1.0000
  C   C9        1.0  0.3514022063049132  0.6173562331599673  0.5058545891062798  1.0000
  C   C10       1.0  0.3513835486984145  0.7105793720312245  0.5058694161125321  1.0000
  C   C11       1.0  0.4196225673706868  0.4677230974988972  0.5921198727252532  1.0000
  C   C12       1.0  0.4214424001573025  0.4263421728492939  0.47845390676082933  1.0000
  C   C13       1.0  0.42146574362133205  0.3331184564282884  0.47845242316495484  1.0000
  C   C14       1.0  0.4195697400852928  0.27922651169758206  0.5920805578701924  1.0000
  C   C15       1.0  0.4176997006215537  0.32050400849106236  0.7057944274698076  1.0000
  C   C16       1.0  0.41777618739535716  0.4137269821515287  0.7057943236534214  1.0000
  H   H5        1.0  0.3506979532844378  0.9709938869638901  0.5047219992072693  1.0000
  H   H6        1.0  0.541817479276931  0.7373849679785238  0.7456703284779036  1.0000
  H   H7        1.0  0.5426246764691849  0.5746652071059504  0.7448756712390259  1.0000
  H   H8        1.0  0.2966830441455466  0.5847096315610032  0.43934226542922056  1.0000
  H   H9        1.0  0.2975592281209271  0.7475384041699469  0.43847840352089823  1.0000
  H   H10       1.0  0.42445615060502084  0.4661317045072534  0.38935579745796023  1.0000
  H   H11       1.0  0.42327406146312385  0.30334531825375133  0.3892971846128024  1.0000
  H   H12       1.0  0.4213194713973998  0.07281896026346571  0.4770939672544828  1.0000
  H   H13       1.0  0.41587222344886926  0.28077759059392066  0.7949415783305018  1.0000
  H   H14       1.0  0.4147831690407944  0.44353616685951314  0.7948888190032875  1.0000
  C   C17       1.0  0.4196189986086565  0.01726317190905124  0.2243160850527988  1.0000
  C   C18       1.0  0.3349951480173261  0.9652068345184972  0.16448122163714207  1.0000
  C   C19       1.0  0.3349950741818351  0.9652068895892615  0.033599083076505394  1.0000
  C   C20       1.0  0.41961890564616455  0.01726321295653333  0.9598065224800836  1.0000
  C   C21       1.0  0.5041729101881847  0.06927641936377182  0.019642115916394202  1.0000
  C   C22       1.0  0.5041728950625881  0.06927640509429378  0.15053441486286356  1.0000
  H   H15       1.0  0.5051961437884578  0.06990640882936416  0.5159683185576593  1.0000
  H   H16       1.0  0.26866297895018887  0.924402617109815  0.21876251153799475  1.0000
  H   H17       1.0  0.2686629542474127  0.9244026583889857  0.9902584827798617  1.0000
  H   H18       1.0  0.5705137413896263  0.11008601144579422  0.965404998876534  1.0000
  H   H19       1.0  0.5705136818202585  0.11008597845432733  0.19382936747877522  1.0000
  H   H20       1.0  0.5051965128862426  0.06990610867349112  0.6540392858827038  1.0000
  Zn  Zn1       1.0  0.29005618596798133  0.013525684475457874  0.5944991715239132  1.0000
  Zn  Zn2       1.0  0.5491704376647406  0.020999925923877564  0.5896230923652421  1.0000
  C   C23       1.0  0.4196169850374139  0.01370925350565444  0.8207828848823724  1.0000
  C   C24       1.0  0.4196124679031881  0.020817564099110616  0.36333944875581947  1.0000
  C   C25       1.0  0.419582245293009  0.1801930496671497  0.5870831027850358  1.0000
  C   C26       1.0  0.4196471194315705  0.854332693597104  0.5970392992034672  1.0000
  O   O1        1.0  0.5179427850043439  0.024842994401213844  0.4081465126938443  1.0000
  O   O2        1.0  0.517948389605023  0.015355926537879764  0.7722746291471629  1.0000
  O   O3        1.0  0.5179190112527361  0.1497936591767847  0.5835604266522656  1.0000
  O   O4        1.0  0.5179720749372956  0.8904052655934153  0.5968606229569444  1.0000
  O   O5        1.0  0.321254460272449  0.14412034225629955  0.5872616425895907  1.0000
  O   O6        1.0  0.32128383841778096  0.00968368140828413  0.7759757783915557  1.0000
  O   O7        1.0  0.32127823390169685  0.019170718186989337  0.41184615631188587  1.0000
  O   O8        1.0  0.32130752383100664  0.8847329829984639  0.600560360464163  1.0000
