data_image0
_chemical_formula_structural       NC8NH4C6NH7C6NCH7Zn2C4O8
_chemical_formula_sum              "N4 C25 H18 Zn2 O8"
_cell_length_a       14.927258825633057
_cell_length_b       9.274771166103582
_cell_length_c       9.274690524155615
_cell_angle_alpha    85.95744674106099
_cell_angle_beta     89.68735870548748
_cell_angle_gamma    90.59705077502286

_space_group_name_H-M_alt    "P 1"
_space_group_IT_number       1

loop_
  _space_group_symop_operation_xyz
  'x, y, z'

loop_
  _atom_site_type_symbol
  _atom_site_label
  _atom_site_symmetry_multiplicity
  _atom_site_fract_x
  _atom_site_fract_y
  _atom_site_fract_z
  _atom_site_occupancy
  N   N1        1.0  0.8590992420762998  0.564762811447525  0.40732399052184487  1.0000
  C   C1        1.0  0.7815728175251097  0.5647627850738666  0.4073240002213878  1.0000
  C   C2        1.0  0.6851401755938507  0.5647627852646306  0.4073240552975435  1.0000
  C   C3        1.0  0.637814531537312  0.47564422121197  0.3177563954595277  1.0000
  C   C4        1.0  0.5441032194939567  0.47564413111073756  0.31775636716247835  1.0000
  C   C5        1.0  0.49732417882166463  0.564762837554071  0.4073239673919167  1.0000
  C   C6        1.0  0.5446498233090122  0.6538814109809972  0.4968915191528198  1.0000
  C   C7        1.0  0.6383612023438645  0.6538815010793149  0.4968915474557984  1.0000
  C   C8        1.0  0.4008915366284467  0.5647627394317082  0.4073239126384356  1.0000
  N   N2        1.0  0.32336511277002455  0.5647628207454425  0.4073239240905027  1.0000
  H   H1        1.0  0.6732979957528719  0.40630475315410974  0.2480677486230296  1.0000
  H   H2        1.0  0.5081943393924604  0.40630473032273406  0.24806784588673603  1.0000
  H   H3        1.0  0.5091663590934523  0.7232208790388577  0.5665801659893177  1.0000
  H   H4        1.0  0.674270015023055  0.7232208924959679  0.5665801768027243  1.0000
  C   C9        1.0  0.08848353020472133  0.14117309677746448  0.40810956559684475  1.0000
  C   C10       1.0  0.06829868806494115  0.2233572003844055  0.27922202576970556  1.0000
  C   C11       1.0  0.05648068773753989  0.15717603081787113  0.1495167497626222  1.0000
  C   C12       1.0  0.06489762516259723  0.007425087014915284  0.14775954614122  1.0000
  C   C13       1.0  0.08343180778500825  0.9239061060481211  0.27487654810544293  1.0000
  C   C14       1.0  0.09398931448830572  0.9883415344944133  0.40655089780637477  1.0000
  N   N3        1.0  0.03685096485989603  0.24244727181462575  0.019212661133799935  1.0000
  H   H5        1.0  0.18825154935475957  0.22358576791555773  0.7235370243903905  1.0000
  H   H6        1.0  0.06378359798697142  0.3399450778802091  0.2786683910563046  1.0000
  H   H7        1.0  0.056228863217810954  0.9550670707978086  0.04796442222162134  1.0000
  H   H8        1.0  0.08739353357253354  0.8077060724498326  0.2707488001186307  1.0000
  H   H9        1.0  0.15754900930079074  0.6931477986500687  0.6211532527535437  1.0000
  H   H10       1.0  0.030678895027031583  0.35452076502178825  0.01916584918889086  1.0000
  H   H11       1.0  0.028258639716991718  0.19412714571963405  0.9217877901547422  1.0000
  C   C15       1.0  0.09264682730766906  0.5610641829279733  0.9840897174439127  1.0000
  C   C16       1.0  0.16583529751341852  0.6234618497685959  0.05271227994053839  1.0000
  C   C17       1.0  0.23448791647350342  0.696783962555414  0.9720795734784722  1.0000
  C   C18       1.0  0.22924964321731256  0.7074389218447321  0.8211635089397037  1.0000
  C   C19       1.0  0.15796725271520118  0.6441818684118366  0.7513318423237432  1.0000
  C   C20       1.0  0.08982597049386754  0.5684504012924225  0.8305706743164244  1.0000
  N   N4        1.0  0.3094645065621613  0.7622442119832855  0.040680919617352984  1.0000
  C   C21       1.0  0.32158927900729384  0.757166454835698  0.1969718091961361  1.0000
  H   H12       1.0  0.9892633846663053  0.3871892268837296  0.2774084115108728  1.0000
  H   H13       1.0  0.28121719147493907  0.7639045739377224  0.7570010559718803  1.0000
  H   H14       1.0  0.9478174442241927  0.5007790427029046  0.5552570087494582  1.0000
  H   H15       1.0  0.358555786468588  0.8162013246889553  0.9759474944302428  1.0000
  H   H16       1.0  0.3846546602162444  0.8143213666138048  0.222544961947184  1.0000
  H   H17       1.0  0.32586185504388254  0.6431313556838019  0.24140627271803175  1.0000
  H   H18       1.0  0.2648047439769488  0.8112432141065085  0.24807433277639435  1.0000
  Zn  Zn1       1.0  0.9930762993478538  0.5647590139741274  0.40733230999668546  1.0000
  Zn  Zn2       1.0  0.1893879521927584  0.5647548796614337  0.4073274614741529  1.0000
  C   C22       1.0  0.09031985382328345  0.5613078056028538  0.6705782539690299  1.0000
  C   C23       1.0  0.0921465527914842  0.5682079092508323  0.1440816555615636  1.0000
  C   C24       1.0  0.09296312138207231  0.8281585201418258  0.40110212579250737  1.0000
  C   C25       1.0  0.08950320672610035  0.30135546234223076  0.41355786376888704  1.0000
  O   O1        1.0  0.16647786436335  0.5705975471255376  0.19777458312763607  1.0000
  O   O2        1.0  0.1649845387286928  0.5589139380739766  0.6168812335970268  1.0000
  O   O3        1.0  0.16711800143148706  0.7743992779501032  0.39927735077140913  1.0000
  O   O4        1.0  0.16434433509986768  0.35511221662659165  0.4153783578702117  1.0000
  O   O5        1.0  0.018119849449247386  0.7744016770118844  0.39928141359469693  1.0000
  O   O6        1.0  0.01598639826155113  0.5589180695083027  0.6168852163835845  1.0000
  O   O7        1.0  0.017479729403615973  0.5706016131733245  0.19777683317534223  1.0000
  O   O8        1.0  0.015346199709324491  0.3551162733001132  0.4153807159950309  1.0000
