data_image0
_chemical_formula_structural       NC10NC3NCH9C12ClH9C11NCOCH12Zn2C4O8
_chemical_formula_sum              "N4 C43 H30 Cl1 O9 Zn2"
_cell_length_a       19.437513618241372
_cell_length_b       10.299768534541528
_cell_length_c       10.299158637457994
_cell_angle_alpha    85.58253282463849
_cell_angle_beta     90.32911859646087
_cell_angle_gamma    89.54057453160664

_space_group_name_H-M_alt    "P 1"
_space_group_IT_number       1

loop_
  _space_group_symop_operation_xyz
  'x, y, z'

loop_
  _atom_site_type_symbol
  _atom_site_label
  _atom_site_symmetry_multiplicity
  _atom_site_fract_x
  _atom_site_fract_y
  _atom_site_fract_z
  _atom_site_occupancy
  N   N1        1.0  0.6483255119005007  0.40995183625484644  0.5757731214716071  1.0000
  C   C1        1.0  0.589395470492654  0.42696064385051485  0.5727989872405772  1.0000
  C   C2        1.0  0.5159591112885596  0.44821159884096273  0.5691073224426786  1.0000
  C   C3        1.0  0.4741808759208199  0.3470202276229917  0.5574365884381443  1.0000
  C   C4        1.0  0.3982935639013933  0.35708264858702987  0.5502163006726435  1.0000
  C   C5        1.0  0.358724736075149  0.43794896035517433  0.6159684866579587  1.0000
  C   C6        1.0  0.2825421104309966  0.4293383855617772  0.6075233404406541  1.0000
  C   C7        1.0  0.24938491029825216  0.30799756518268406  0.6121531654693233  1.0000
  C   C8        1.0  0.1776500409041047  0.30162383035363094  0.6049843260857237  1.0000
  C   C9        1.0  0.138101619004201  0.41611834656424745  0.5935478438313333  1.0000
  C   C10       1.0  0.0642522394218112  0.40940638951347186  0.5862108735990319  1.0000
  N   N2        1.0  0.004882436310661904  0.4040105662319433  0.580312408008288  1.0000
  C   C11       1.0  0.17054207708549746  0.5371488186619655  0.5896632670916009  1.0000
  C   C12       1.0  0.24226138723797952  0.543776557464356  0.5968941569453443  1.0000
  C   C13       1.0  0.3874134276235321  0.530257846078112  0.7058996118563969  1.0000
  N   N3        1.0  0.44441205185197263  0.593463209689429  0.6855023103662132  1.0000
  C   C14       1.0  0.4882647336820902  0.5841700463638433  0.5723926669605988  1.0000
  H   H1        1.0  0.4965496631453531  0.25196256912314796  0.5453046176286502  1.0000
  H   H2        1.0  0.3735741810166816  0.28755533512543074  0.49188983669573466  1.0000
  H   H3        1.0  0.27881815100533247  0.21809078307802165  0.623164035936367  1.0000
  H   H4        1.0  0.1530394806283458  0.20740070247100248  0.6088609714684834  1.0000
  H   H5        1.0  0.1404231620546105  0.6264013625806242  0.5809644923248205  1.0000
  H   H6        1.0  0.2663905000287052  0.6384124716830664  0.5930020979015591  1.0000
  H   H7        1.0  0.3574036875743532  0.5506669031889169  0.7902693265983709  1.0000
  H   H8        1.0  0.5310289858024252  0.6544826050971708  0.5781640017721972  1.0000
  H   H9        1.0  0.4586134227951076  0.612252512484952  0.48174940912654574  1.0000
  C   C15       1.0  0.8265423822450889  0.025616805865074754  0.5780398771681823  1.0000
  C   C16       1.0  0.8310968024035361  0.035058442337201345  0.4416277589372586  1.0000
  C   C17       1.0  0.8334707040538832  0.922702127914653  0.37251488470617855  1.0000
  C   C18       1.0  0.8312282017938394  0.7997685408390753  0.4416449218688976  1.0000
  C   C19       1.0  0.8266721631368148  0.7883354022766397  0.5780569574445138  1.0000
  C   C20       1.0  0.8243552740990181  0.9018159456730696  0.6454905332230381  1.0000
  C   C21       1.0  0.8382898156794724  0.9337442447745146  0.22820224713378498  1.0000
  C   C22       1.0  0.7991620981302773  0.02791002567349299  0.15323966913403053  1.0000
  C   C23       1.0  0.80375928208682  0.03810636723215889  0.01741727869534038  1.0000
  C   C24       1.0  0.8474180303858991  0.9546595677911371  0.954864751681658  1.0000
  C   C25       1.0  0.8865347293190917  0.8608056814903039  0.02831595588333502  1.0000
  C   C26       1.0  0.8820597212777643  0.8502150580365  0.16415454513015892  1.0000
  Cl  Cl1       1.0  0.8531092226845065  0.9676997133325206  0.7844507416623333  1.0000
  H   H10       1.0  0.8247716235022561  0.3494734149589361  0.63001590672029  1.0000
  H   H11       1.0  0.8337582564011232  0.13000784916553898  0.3889285986037805  1.0000
  H   H12       1.0  0.8320942254883248  0.7129016341341873  0.38870934683652214  1.0000
  H   H13       1.0  0.820841051823849  0.8937639806539965  0.7507261941323802  1.0000
  H   H14       1.0  0.8249634916810725  0.4565246407149658  0.6300415784774986  1.0000
  H   H15       1.0  0.7643680838373194  0.09248221981199808  0.19954057615147966  1.0000
  H   H16       1.0  0.7732220429615828  0.11070932273319166  0.9609162676691549  1.0000
  H   H17       1.0  0.9205617514148152  0.7961990563335543  0.9803157918016159  1.0000
  H   H18       1.0  0.9134702510935665  0.7778903324508599  0.2191723559882577  1.0000
  C   C27       1.0  0.8266717484223376  0.40683708467104607  0.1966761659194105  1.0000
  C   C28       1.0  0.8282935379634087  0.5435120569316401  0.1853860420492246  1.0000
  C   C29       1.0  0.8290618334230371  0.612948914236422  0.06250347642642562  1.0000
  C   C30       1.0  0.8281618942523321  0.5438741169444821  0.9500728948111211  1.0000
  C   C31       1.0  0.8265427911843656  0.4071151918061604  0.959420745028906  1.0000
  C   C32       1.0  0.8258106955071344  0.3394375239445393  0.08311045316976373  1.0000
  C   C33       1.0  0.8307783122405953  0.7575342498448352  0.05153345982351242  1.0000
  C   C34       1.0  0.8746383476472591  0.9607260257179336  0.12418581408876395  1.0000
  C   C35       1.0  0.8344885746268369  0.03237975497644063  0.02952655170014462  1.0000
  C   C36       1.0  0.7914301749853874  0.9656243481255026  0.9481927039627882  1.0000
  C   C37       1.0  0.7898375216712552  0.8295894537537104  0.9583862273954167  1.0000
  N   N4        1.0  0.8342496654213271  0.17242841497436556  0.018290972773945535  1.0000
  C   C38       1.0  0.8932088335654288  0.250433134532662  0.04227474959934962  1.0000
  O   O1        1.0  0.9525189066635792  0.20003263670922955  0.05154495651026436  1.0000
  C   C39       1.0  0.8851629697631369  0.39438102286558907  0.04677779488086165  1.0000
  H   H19       1.0  0.8260694932219241  0.35426382318108596  0.5284948782063603  1.0000
  H   H20       1.0  0.8280017708652938  0.5963336775777792  0.2723342539733056  1.0000
  H   H21       1.0  0.8296624749726519  0.5968622249986606  0.8551214655915514  1.0000
  H   H22       1.0  0.8245621265293909  0.2340168854002942  0.09110392233080788  1.0000
  H   H23       1.0  0.823904490786962  0.14896753787521222  0.7697774240618149  1.0000
  H   H24       1.0  0.9063942575407755  0.009535998410540094  0.19162261564368843  1.0000
  H   H25       1.0  0.7592583408489555  0.01926198801384738  0.8761609524366492  1.0000
  H   H26       1.0  0.7558276377609257  0.7807702595894541  0.8946049714602191  1.0000
  H   H27       1.0  0.7896595067754117  0.22062598183570883  0.982777525024173  1.0000
  H   H28       1.0  0.836789391865922  0.4169015542627812  0.09758019403202955  1.0000
  H   H29       1.0  0.8833211565285315  0.44107862269723125  0.9460364981366833  1.0000
  H   H30       1.0  0.9290629739025777  0.4344167784740454  0.0999922729348679  1.0000
  Zn  Zn1       1.0  0.7512201418771977  0.40823382762859795  0.5770905704542488  1.0000
  Zn  Zn2       1.0  0.9019878089243796  0.4057179093281411  0.5790056287525576  1.0000
  C   C40       1.0  0.8265647496562892  0.40188901314124864  0.8152455262895124  1.0000
  C   C41       1.0  0.8266448477807746  0.4120643349880171  0.3408508213340371  1.0000
  C   C42       1.0  0.8266449597110229  0.6441635597679085  0.5728785034812369  1.0000
  C   C43       1.0  0.8265645860023908  0.16978822896136192  0.5832179126930435  1.0000
  O   O2        1.0  0.8838513626278368  0.4128582043896809  0.38996390725951097  1.0000
  O   O3        1.0  0.883787405468203  0.3991846401169506  0.7675855514296968  1.0000
  O   O4        1.0  0.8838514045805829  0.5948244138609973  0.5718724559582951  1.0000
  O   O5        1.0  0.8837873120867092  0.21721844075875474  0.585676904702116  1.0000
  O   O6        1.0  0.7694205872652635  0.5967332970579551  0.570419293844344  1.0000
  O   O7        1.0  0.7693565884269297  0.401095083573874  0.766132320104669  1.0000
  O   O8        1.0  0.7694205458886129  0.41476860202115845  0.38850911451960823  1.0000
  O   O9        1.0  0.7693564953266292  0.21912882913708234  0.5842222093306639  1.0000
