data_image0
_chemical_formula_structural       NC10NC5H10C13OH12C15H12Zn2C4O8
_chemical_formula_sum              "N2 C47 H34 O9 Zn2"
_cell_length_a       19.4436361288709
_cell_length_b       10.299150109392551
_cell_length_c       10.299157797200024
_cell_angle_alpha    85.5240492146119
_cell_angle_beta     89.72702837822625
_cell_angle_gamma    89.39953782186458

_space_group_name_H-M_alt    "P 1"
_space_group_IT_number       1

loop_
  _space_group_symop_operation_xyz
  'x, y, z'

loop_
  _atom_site_type_symbol
  _atom_site_label
  _atom_site_symmetry_multiplicity
  _atom_site_fract_x
  _atom_site_fract_y
  _atom_site_fract_z
  _atom_site_occupancy
  N   N1        1.0  0.6471027997070773  0.40984400188887893  0.5615363343744111  1.0000
  C   C1        1.0  0.5882690151666604  0.4197399299246257  0.5759178870430651  1.0000
  C   C2        1.0  0.5149424280131131  0.43208145359422273  0.5939071867390282  1.0000
  C   C3        1.0  0.4727387782988616  0.4001264771476072  0.4992383317252511  1.0000
  C   C4        1.0  0.39683371623326813  0.4105630886533713  0.5045632568124665  1.0000
  C   C5        1.0  0.35712730935853154  0.3857629393854507  0.6116504758002381  1.0000
  C   C6        1.0  0.2810026242285654  0.3896859553477769  0.598689000024708  1.0000
  C   C7        1.0  0.2404546411651536  0.4473077850034792  0.6924461971049811  1.0000
  C   C8        1.0  0.16878779867382182  0.45095077878014145  0.6819004401709652  1.0000
  C   C9        1.0  0.1366743289741199  0.3965757655896351  0.5778841622221291  1.0000
  C   C10       1.0  0.0628781897537702  0.4002800804129101  0.5671830933977021  1.0000
  N   N2        1.0  0.003551099111894701  0.40325815508249696  0.5585801435141099  1.0000
  C   C11       1.0  0.1764976464645185  0.33824660952452  0.4845104590229503  1.0000
  C   C12       1.0  0.24818086043666793  0.3345495057823875  0.4948044412036955  1.0000
  C   C13       1.0  0.38530205288991043  0.34523737763043477  0.742766593537332  1.0000
  C   C14       1.0  0.4439706797573576  0.3883404491406908  0.789997616850498  1.0000
  C   C15       1.0  0.4881412367743808  0.48624129974638386  0.715593053881522  1.0000
  H   H1        1.0  0.4948188703718158  0.3710495311181463  0.4089356919503366  1.0000
  H   H2        1.0  0.3721065986408209  0.43310330634724425  0.4113917225536267  1.0000
  H   H3        1.0  0.2643390253164096  0.4905640801346849  0.7732850476042691  1.0000
  H   H4        1.0  0.1384544559484723  0.49623468562750833  0.7548106668877246  1.0000
  H   H5        1.0  0.1521414345340382  0.2951858300611976  0.4040060467756354  1.0000
  H   H6        1.0  0.27784916348695665  0.28702170590721554  0.42259133705354274  1.0000
  H   H7        1.0  0.3543648677237221  0.28098506071883644  0.8070388115888403  1.0000
  H   H8        1.0  0.45915258768620715  0.354224509404985  0.887949382234981  1.0000
  H   H9        1.0  0.45800969224364185  0.5769745632116318  0.6903093960000708  1.0000
  H   H10       1.0  0.5314386308073661  0.5117996499847421  0.7786733689790222  1.0000
  C   C16       1.0  0.825395093163365  0.02515013707484571  0.5602018322401819  1.0000
  C   C17       1.0  0.8241567913364501  0.013329090803169574  0.6970306263214336  1.0000
  C   C18       1.0  0.8234690455534196  0.8902021527941949  0.7661425165684363  1.0000
  C   C19       1.0  0.824024108046654  0.7780763031143894  0.6966683110160024  1.0000
  C   C20       1.0  0.8252653873909468  0.7879418630858187  0.5599258961352778  1.0000
  C   C21       1.0  0.8259455176666783  0.9119390621048943  0.4924917531426857  1.0000
  C   C22       1.0  0.8221530469407358  0.878678713887273  0.9108017888327486  1.0000
  C   C23       1.0  0.7798748662064161  0.7865598554540874  0.9791777025809865  1.0000
  C   C24       1.0  0.7786137260848998  0.7757981412750519  0.11530212218625134  1.0000
  C   C25       1.0  0.8200590833533555  0.8559880189455374  0.18550771383918174  1.0000
  C   C26       1.0  0.8616793745119773  0.949072480644734  0.11777986440470076  1.0000
  C   C27       1.0  0.862956480070821  0.9600096969573348  0.9816550236629642  1.0000
  C   C28       1.0  0.8172576865429246  0.8468048846168745  0.33162554166714614  1.0000
  O   O1        1.0  0.7658595328550654  0.9309182498615713  0.3722947533780279  1.0000
  H   H11       1.0  0.8272856029484406  0.2547640078178388  0.30193477726732776  1.0000
  H   H12       1.0  0.8227708072720284  0.10011134821059507  0.7500537185810301  1.0000
  H   H13       1.0  0.8244275723272158  0.6829295745426056  0.7495014901480217  1.0000
  H   H14       1.0  0.8269010073646691  0.9202649082382782  0.3870182530284654  1.0000
  H   H15       1.0  0.8256965338648583  0.4642618907812165  0.5073303514754134  1.0000
  H   H16       1.0  0.7469714997736817  0.7241757643136969  0.9273389184363307  1.0000
  H   H17       1.0  0.745166682275893  0.7050704333629907  0.16595794171392425  1.0000
  H   H18       1.0  0.8933159941792235  0.013032708795160495  0.17037540237669588  1.0000
  H   H19       1.0  0.8964267371192747  0.03118215177590967  0.9318057008451786  1.0000
  H   H20       1.0  0.8678578608069304  0.8736863550189337  0.37137819221149393  1.0000
  H   H21       1.0  0.8060882949860079  0.7449778972525216  0.3695329096974621  1.0000
  H   H22       1.0  0.7661344817736917  0.921205110254506  0.46892465963062707  1.0000
  C   C29       1.0  0.8252504776264994  0.40665375664311854  0.1786724486772042  1.0000
  C   C30       1.0  0.7536148034754814  0.38999650753781195  0.17944823821059774  1.0000
  C   C31       1.0  0.7174406886946736  0.3814390765094051  0.06269808258103725  1.0000
  C   C32       1.0  0.7538191952604851  0.38978398260709435  0.944179324307064  1.0000
  C   C33       1.0  0.8254099777438269  0.40643826612070555  0.9414552252262387  1.0000
  C   C34       1.0  0.8607075756695165  0.41477014040019156  0.05923558204820555  1.0000
  C   C35       1.0  0.6417057377953976  0.36383399039868336  0.06456456235403008  1.0000
  C   C36       1.0  0.6107726785561843  0.2774195247349649  0.9837456499901611  1.0000
  C   C37       1.0  0.5395029009107947  0.26094545771770566  0.9855343111069116  1.0000
  C   C38       1.0  0.4978969094472869  0.32990014795056233  0.0686846828385026  1.0000
  C   C39       1.0  0.5284617395054676  0.4171670319660672  0.1485296266195133  1.0000
  C   C40       1.0  0.5997308229624199  0.4336453105020499  0.14688892046229582  1.0000
  C   C41       1.0  0.421118806530108  0.31450221620578134  0.06826457832319632  1.0000
  C   C42       1.0  0.3901705617214199  0.4088489716228325  0.9710762795015149  1.0000
  C   C43       1.0  0.3647357106640974  0.4864299885094838  0.8911605136992882  1.0000
  H   H23       1.0  0.9605139117820685  0.4372976583513863  0.3845626813326809  1.0000
  H   H24       1.0  0.725951590177007  0.3818820709933932  0.27121852464274854  1.0000
  H   H25       1.0  0.726056429324952  0.3850584835457147  0.8537791680251292  1.0000
  H   H26       1.0  0.9159277135280721  0.4276123117567916  0.05785013716157605  1.0000
  H   H27       1.0  0.8529490234868798  0.41280256930206627  0.6129350726153944  1.0000
  H   H28       1.0  0.6417795701050888  0.22147659821799492  0.9201365158593767  1.0000
  H   H29       1.0  0.5167429788247526  0.1942048977106135  0.9221883268350692  1.0000
  H   H30       1.0  0.49705324337576545  0.47280817529494606  0.21179720441306338  1.0000
  H   H31       1.0  0.6219294032324783  0.5025036385807611  0.20859755386538303  1.0000
  H   H32       1.0  0.4074089831418293  0.2145072971548616  0.044969432670105336  1.0000
  H   H33       1.0  0.3992224038853607  0.33035295216909377  0.16566188015800543  1.0000
  H   H34       1.0  0.3424253637258696  0.5545431017113058  0.821001605329004  1.0000
  Zn  Zn1       1.0  0.7499660826366644  0.4079399949801681  0.5606907553875584  1.0000
  Zn  Zn2       1.0  0.9006878117353108  0.4051515504017372  0.5594364081485755  1.0000
  C   C44       1.0  0.825379193087755  0.40130493515462756  0.7972748575034296  1.0000
  C   C45       1.0  0.8252763469088173  0.41178821849846425  0.3228524192163784  1.0000
  C   C46       1.0  0.8252852813842827  0.6437595560295719  0.5548025881079568  1.0000
  C   C47       1.0  0.8253702074613181  0.16933203812210706  0.5653247588471108  1.0000
  O   O2        1.0  0.8824831405398188  0.412447524399308  0.3707645182394059  1.0000
  O   O3        1.0  0.882566704467629  0.39852828463996154  0.7484103644360216  1.0000
  O   O4        1.0  0.8824900988039367  0.5943134711372344  0.5526122972961243  1.0000
  O   O5        1.0  0.8825596947504488  0.21666234817205043  0.5665624884235558  1.0000
  O   O6        1.0  0.7680941481875954  0.59642919816283  0.5535646755337937  1.0000
  O   O7        1.0  0.7681707535683282  0.40064557211994506  0.7493626728596466  1.0000
  O   O8        1.0  0.768087189367396  0.4145647670597652  0.3717152651862623  1.0000
  O   O9        1.0  0.7681637435971571  0.2187795815154676  0.5675133327473753  1.0000
