data_image0
_chemical_formula_structural       NC9NC5H8C8NH7C12H10Zn2C4O8
_chemical_formula_sum              "N3 C38 H25 Zn2 O8"
_cell_length_a       17.807436237873137
_cell_length_b       9.27426342843186
_cell_length_c       10.299141136925904
_cell_angle_alpha    85.50362818377448
_cell_angle_beta     89.41385425082623
_cell_angle_gamma    89.00683889979415

_space_group_name_H-M_alt    "P 1"
_space_group_IT_number       1

loop_
  _space_group_symop_operation_xyz
  'x, y, z'

loop_
  _atom_site_type_symbol
  _atom_site_label
  _atom_site_symmetry_multiplicity
  _atom_site_fract_x
  _atom_site_fract_y
  _atom_site_fract_z
  _atom_site_occupancy
  N   N1        1.0  0.7157396794174363  0.541404458298341  0.5559310589405493  1.0000
  C   C1        1.0  0.6549304232516694  0.5023348695980895  0.5449346058724467  1.0000
  C   C2        1.0  0.5792903921280825  0.453736603828979  0.5312562121943647  1.0000
  C   C3        1.0  0.5607307079728977  0.37447586199416155  0.4263040254309276  1.0000
  C   C4        1.0  0.487287434643568  0.3271669179209966  0.41294064199352193  1.0000
  C   C5        1.0  0.431352767194773  0.3586995319790745  0.5044972935970451  1.0000
  C   C6        1.0  0.3533022342140315  0.3085498797335211  0.49037746529382803  1.0000
  C   C7        1.0  0.2916410900718162  0.3993200055534338  0.5162525895099255  1.0000
  C   C8        1.0  0.21805424967183862  0.35178561091622707  0.5029030504091545  1.0000
  C   C9        1.0  0.1553598676130846  0.44554398892329933  0.5291399475466998  1.0000
  N   N2        1.0  0.10496653616269387  0.5209192378886667  0.5502336909854952  1.0000
  C   C10       1.0  0.20554339533894303  0.2131946478402021  0.46365324209570985  1.0000
  C   C11       1.0  0.2663470814807019  0.12240914381436196  0.43776973874386327  1.0000
  C   C12       1.0  0.3398119864561834  0.16950552404262087  0.45091704252762965  1.0000
  C   C13       1.0  0.4506069850222038  0.4385091248422884  0.6096683281228783  1.0000
  C   C14       1.0  0.5241019087860201  0.48560671527965243  0.6228762034855893  1.0000
  H   H1        1.0  0.6029696369702603  0.34953360480995876  0.3546048396337824  1.0000
  H   H2        1.0  0.47402200456486093  0.26758845649398344  0.3300580162825264  1.0000
  H   H3        1.0  0.3007523021512865  0.5075314812670275  0.545053444658991  1.0000
  H   H4        1.0  0.1488639287941728  0.17540591980263298  0.4530849321776576  1.0000
  H   H5        1.0  0.2565423694734243  0.015108685607081672  0.4077677424823558  1.0000
  H   H6        1.0  0.3860389117889869  0.09651122202096524  0.4319200585778451  1.0000
  H   H7        1.0  0.4090818638049893  0.46285239991289884  0.6826625231194985  1.0000
  H   H8        1.0  0.5379030639269555  0.5465408247448971  0.704716162029517  1.0000
  C   C15       1.0  0.9079801052442948  0.1077032186646605  0.5533931324490713  1.0000
  C   C16       1.0  0.898247557308846  0.1916145493488668  0.4348396648193693  1.0000
  C   C17       1.0  0.8958816031093302  0.12686676530477947  0.3172528298609507  1.0000
  C   C18       1.0  0.90380019156729  0.9766687851470567  0.3153020414366239  1.0000
  C   C19       1.0  0.9115169716411051  0.8913592064279503  0.4330888782476867  1.0000
  C   C20       1.0  0.912733228802283  0.9546090783016232  0.552782813155849  1.0000
  C   C21       1.0  0.9001288436598597  0.906916229821987  0.1886354902744296  1.0000
  C   C22       1.0  0.8221977245703446  0.8720910098153933  0.1609111233811902  1.0000
  N   N3        1.0  0.7606883558515669  0.8446028573226355  0.1390374602662472  1.0000
  H   H9        1.0  0.9728562222963633  0.18245616047972546  0.8518758848245929  1.0000
  H   H10       1.0  0.8940953371677977  0.3084526880208951  0.4327732910873348  1.0000
  H   H11       1.0  0.888573895996066  0.19420911494649395  0.22735390600754712  1.0000
  H   H12       1.0  0.9147595035803548  0.7746995546447693  0.43133065415147853  1.0000
  H   H13       1.0  0.9534896476463897  0.6549016601732492  0.7555450240669854  1.0000
  H   H14       1.0  0.9348291583031763  0.8059729868818399  0.19315367450567722  1.0000
  H   H15       1.0  0.922291500953289  0.980589600369968  0.10748696617778176  1.0000
  C   C23       1.0  0.9102719885223871  0.5312836864809637  0.17169612525589573  1.0000
  C   C24       1.0  0.9888079678472598  0.5426850553475626  0.16872138418197857  1.0000
  C   C25       1.0  0.02871602384804417  0.5483349342640869  0.050078159047768356  1.0000
  C   C26       1.0  0.9890265352994594  0.5424296321239401  0.9334526359954305  1.0000
  C   C27       1.0  0.9104413628839768  0.5310285602104371  0.9344798315246831  1.0000
  C   C28       1.0  0.8715479590164762  0.5255234116880095  0.05404031141431554  1.0000
  C   C29       1.0  0.1117991982130533  0.5603982518947936  0.04797594460970523  1.0000
  C   C30       1.0  0.15605351449273863  0.47919218692445154  0.9651551355848369  1.0000
  C   C31       1.0  0.23425064068927948  0.4907264822278703  0.9634143149986918  1.0000
  C   C32       1.0  0.26909469362965854  0.5832325720249383  0.0440021600245848  1.0000
  C   C33       1.0  0.22581212890060856  0.6643970613640476  0.1265640580603311  1.0000
  C   C34       1.0  0.1475973511510051  0.6532253408896814  0.12877472257960654  1.0000
  H   H16       1.0  0.8800583869393155  0.5269715895968985  0.5003110371559791  1.0000
  H   H17       1.0  0.01922159746084917  0.5452020546838368  0.25902596355674135  1.0000
  H   H18       1.0  0.019403202772026337  0.548729510355896  0.8415771206239547  1.0000
  H   H19       1.0  0.8109711869086237  0.5167332922785508  0.055618882927082725  1.0000
  H   H20       1.0  0.7620722876875076  0.5104269761675473  0.7290633675073694  1.0000
  H   H21       1.0  0.13027943478853077  0.405468614387978  0.9030689633125997  1.0000
  H   H22       1.0  0.26786850832851344  0.4275802053071595  0.8997327954858384  1.0000
  H   H23       1.0  0.329631237038012  0.5920203799207355  0.04247297303434294  1.0000
  H   H24       1.0  0.2528665333067537  0.7363506992690474  0.18871278725933083  1.0000
  H   H25       1.0  0.11507470182948863  0.718485547686877  0.1923346995211399  1.0000
  Zn  Zn1       1.0  0.8280621213911936  0.535489015950857  0.5542944356353896  1.0000
  Zn  Zn2       1.0  0.992644012392057  0.5268229221547116  0.5518810000154584  1.0000
  C   C35       1.0  0.9103754116401961  0.5253322094980122  0.7903015179879039  1.0000
  C   C36       1.0  0.9103325296119322  0.5369814533962277  0.31587401747118493  1.0000
  C   C37       1.0  0.9118297682463018  0.7945277419732879  0.5477227352225991  1.0000
  C   C38       1.0  0.9088781071375103  0.2677841913505537  0.558452871551379  1.0000
  O   O1        1.0  0.9728107823563236  0.535598647553495  0.3633455534736576  1.0000
  O   O2        1.0  0.9728109998113507  0.5201365629453283  0.740997867108474  1.0000
  O   O3        1.0  0.9739845695001483  0.7375154037433551  0.5451137950065603  1.0000
  O   O4        1.0  0.9716371565431491  0.31821982006072  0.5592295290111586  1.0000
  O   O5        1.0  0.8490689210763863  0.7440921210037326  0.5469459074564436  1.0000
  O   O6        1.0  0.8478953610921904  0.5267150127349887  0.7428299090602233  1.0000
  O   O7        1.0  0.8478951430584106  0.5421770476121703  0.36517603396634923  1.0000
  O   O8        1.0  0.8467215172058986  0.3247982097730282  0.5610601068850176  1.0000
