data_image0
_chemical_formula_structural       NC8NC6H8C10ClC2H9C10IC2H9Zn2C4O8
_chemical_formula_sum              "N2 C42 H26 Cl1 I1 Zn2 O8"
_cell_length_a       17.457602349358154
_cell_length_b       10.299769246903264
_cell_length_c       10.299773630820606
_cell_angle_alpha    85.54463108608702
_cell_angle_beta     92.88150931118494
_cell_angle_gamma    91.7063087843894

_space_group_name_H-M_alt    "P 1"
_space_group_IT_number       1

loop_
  _space_group_symop_operation_xyz
  'x, y, z'

loop_
  _atom_site_type_symbol
  _atom_site_label
  _atom_site_symmetry_multiplicity
  _atom_site_fract_x
  _atom_site_fract_y
  _atom_site_fract_z
  _atom_site_occupancy
  N   N1        1.0  0.7226269289907609  0.4532464723794669  0.626557957125105  1.0000
  C   C1        1.0  0.661539747078325  0.40732489609048894  0.6159401263435476  1.0000
  C   C2        1.0  0.5855447113329124  0.35020416656898923  0.6027410871432783  1.0000
  C   C3        1.0  0.5270276502612068  0.3903425238053051  0.6776411662195068  1.0000
  C   C4        1.0  0.4524711304822481  0.33533985046695625  0.665056663300367  1.0000
  C   C5        1.0  0.39036383181696  0.37771997026143045  0.744378682127087  1.0000
  C   C6        1.0  0.3158177040464615  0.3962054947070561  0.688615508750432  1.0000
  C   C7        1.0  0.25730061107005303  0.4361598944642348  0.7636235343523641  1.0000
  C   C8        1.0  0.18131632508359638  0.4552519532256556  0.7056449077592197  1.0000
  N   N2        1.0  0.12023787445918212  0.47059558877510876  0.6590302427473265  1.0000
  C   C9        1.0  0.27283755611298444  0.4578717519408857  0.8949032659310526  1.0000
  C   C10       1.0  0.34659907399714707  0.43977509118039815  0.9510540577988058  1.0000
  C   C11       1.0  0.40510462038051054  0.40000060263925435  0.8765037653067681  1.0000
  C   C12       1.0  0.4377201135014491  0.23952184932047096  0.5761391196801067  1.0000
  C   C13       1.0  0.4962255303457996  0.19966204608565932  0.5016390595594173  1.0000
  C   C14       1.0  0.5699973348829522  0.25477692389073575  0.5147735218896234  1.0000
  H   H1        1.0  0.5393894454377838  0.4655156504161676  0.7442757457050366  1.0000
  H   H2        1.0  0.30346446141841693  0.38126692331567247  0.58658950343686  1.0000
  H   H3        1.0  0.2279855451765103  0.4887360677092414  0.9537409583793575  1.0000
  H   H4        1.0  0.35843888041317823  0.4562714266268074  0.05270686779486444  1.0000
  H   H5        1.0  0.46158984419421223  0.3849946313963093  0.9226099518528139  1.0000
  H   H6        1.0  0.3812263192246607  0.19418994783679008  0.5654851975904911  1.0000
  H   H7        1.0  0.48437769258043223  0.12560574351903164  0.4338061976702767  1.0000
  H   H8        1.0  0.6148492523434157  0.22304275857837388  0.4564469205626099  1.0000
  C   C15       1.0  0.9213639329383005  0.08055290261731818  0.6427832688377413  1.0000
  C   C16       1.0  0.9284421815292195  0.09045057219997978  0.5071528232978675  1.0000
  C   C17       1.0  0.9321021190838855  0.9783295710079832  0.4384444169535824  1.0000
  C   C18       1.0  0.928587820683194  0.8551687628121232  0.5071866608478239  1.0000
  C   C19       1.0  0.9215082273736875  0.8432794286198527  0.6428167217815306  1.0000
  C   C20       1.0  0.9179361310625088  0.9565304541876447  0.7098555189949851  1.0000
  C   C21       1.0  0.9395916429601641  0.9898535364163487  0.29495893874866486  1.0000
  C   C22       1.0  0.989331765801045  0.9091007260379259  0.23653315889470883  1.0000
  C   C23       1.0  0.9963128184055658  0.920140235277762  0.10146559141350385  1.0000
  C   C24       1.0  0.9537767338243098  0.01167972232624215  0.023188012359547365  1.0000
  Cl  Cl1       1.0  0.9626199993676066  0.025286800533500294  0.8537507033836786  1.0000
  C   C25       1.0  0.9041826960625782  0.09235951387932806  0.0801348054209885  1.0000
  C   C26       1.0  0.897065568495503  0.08170666947988425  0.2151709689571504  1.0000
  H   H9        1.0  0.9186374410844302  0.40423383424230075  0.6944594630991852  1.0000
  H   H10       1.0  0.9321825542664361  0.18563176793169986  0.4548695934348835  1.0000
  H   H11       1.0  0.9303294777244194  0.7684233355699314  0.4544405162340921  1.0000
  H   H12       1.0  0.912475327097311  0.9481267642494485  0.8144880728174063  1.0000
  H   H13       1.0  0.9188468292338658  0.5112965907321295  0.6945072915306323  1.0000
  H   H14       1.0  0.023546259317136938  0.8386390134234522  0.29543229083080647  1.0000
  H   H15       1.0  0.03495497118514203  0.8576891101942357  0.057833621026546884  1.0000
  H   H16       1.0  0.8709638866731294  0.16315502983401453  0.01986456637138123  1.0000
  H   H17       1.0  0.8575930627202418  0.14407793611698683  0.2570098967378571  1.0000
  C   C27       1.0  0.9214158524424387  0.4620334311103001  0.2614282480687218  1.0000
  C   C28       1.0  0.9987752087482631  0.5036003906477846  0.2637947801438214  1.0000
  C   C29       1.0  0.037994175097300756  0.5245434432331493  0.14786634594146641  1.0000
  C   C30       1.0  0.9988160133481951  0.5033633832995807  0.028530263453417255  1.0000
  C   C31       1.0  0.9214562724612451  0.46179895957305894  0.024171745823462713  1.0000
  C   C32       1.0  0.8831894688447648  0.441366069709529  0.14113752828816573  1.0000
  C   C33       1.0  0.11983305146541356  0.5685164031887466  0.15142347722485683  1.0000
  C   C34       1.0  0.17217291183610378  0.5147866560981471  0.07224868283870367  1.0000
  C   C35       1.0  0.24917909445146716  0.5562999116905711  0.07579627379163867  1.0000
  C   C36       1.0  0.274831640890186  0.6518006238239622  0.1581587172231742  1.0000
  I   I1        1.0  0.3910261449712123  0.7142350166274319  0.1632073382852257  1.0000
  C   C37       1.0  0.22337997378007662  0.7058711648817133  0.23717089600878216  1.0000
  C   C38       1.0  0.14633075851778202  0.664607192322956  0.23402415240234767  1.0000
  H   H18       1.0  0.8919285387029244  0.4462510102264212  0.5879745743608222  1.0000
  H   H19       1.0  0.029008162565845153  0.5180713972738877  0.356177360811617  1.0000
  H   H20       1.0  0.02848914703787008  0.521080249390671  0.93875171305096  1.0000
  H   H21       1.0  0.8235100847035353  0.40930008682741686  0.13854343622462717  1.0000
  H   H22       1.0  0.8919882070888369  0.44590581823770137  0.695062512236083  1.0000
  H   H23       1.0  0.15376979504347688  0.4395241444497798  0.00890541311403026  1.0000
  H   H24       1.0  0.2889083927908621  0.5139480383960131  0.014731178859713315  1.0000
  H   H25       1.0  0.24299852549671533  0.7801120541937092  0.300814752993515  1.0000
  H   H26       1.0  0.1072880727224717  0.7090029726769462  0.2948713048011682  1.0000
  Zn  Zn1       1.0  0.8373688587547893  0.4582495676077061  0.6359362556873698  1.0000
  Zn  Zn2       1.0  0.005495928994800447  0.4655818424760565  0.6496625763244801  1.0000
  C   C39       1.0  0.9214459481849323  0.4566695062136934  0.879996553630622  1.0000
  C   C40       1.0  0.9214206758237338  0.4671636225158897  0.4056025558115784  1.0000
  C   C41       1.0  0.9214767078436027  0.6991093175757989  0.6376348967220606  1.0000
  C   C42       1.0  0.9213898585035886  0.2247222483305771  0.6479642772069407  1.0000
  O   O1        1.0  0.9852256404773917  0.4716622559847674  0.45919783743632614  1.0000
  O   O2        1.0  0.9852455394427193  0.45773492010670613  0.8368188578721506  1.0000
  O   O3        1.0  0.9852695182280464  0.6535080959260707  0.6411100350071153  1.0000
  O   O4        1.0  0.9852016043182802  0.27588908698353887  0.6549065582425102  1.0000
  O   O5        1.0  0.8576631260577917  0.6479423205994947  0.6306922690783889  1.0000
  O   O6        1.0  0.8576391475604223  0.45217070510260676  0.8264010227656731  1.0000
  O   O7        1.0  0.8576192485547992  0.4660979962070649  0.4487784409196654  1.0000
  O   O8        1.0  0.8575952123959542  0.2703248178869706  0.6444872590937509  1.0000
