data_image0
_chemical_formula_structural       NC5N2C2NH4C10H6C9H6Zn2C4O8
_chemical_formula_sum              "N4 C30 H16 Zn2 O8"
_cell_length_a       13.87973921873968
_cell_length_b       9.275150299802176
_cell_length_c       9.275153671780862
_cell_angle_alpha    85.37735250896073
_cell_angle_beta     89.40940373860386
_cell_angle_gamma    89.48389152441209

_space_group_name_H-M_alt    "P 1"
_space_group_IT_number       1

loop_
  _space_group_symop_operation_xyz
  'x, y, z'

loop_
  _atom_site_type_symbol
  _atom_site_label
  _atom_site_symmetry_multiplicity
  _atom_site_fract_x
  _atom_site_fract_y
  _atom_site_fract_z
  _atom_site_occupancy
  N   N1        1.0  0.9087703963648641  0.5749703344806978  0.4005682975362748  1.0000
  C   C1        1.0  0.8359055584333737  0.5993730393869701  0.3437748829051781  1.0000
  C   C2        1.0  0.7454101307049895  0.6296835832436107  0.2732313260846735  1.0000
  C   C3        1.0  0.6586486232844371  0.5991597905350252  0.3466241175964109  1.0000
  C   C4        1.0  0.5725307296632759  0.6296835186860525  0.27323136636547773  1.0000
  C   C5        1.0  0.48142843827524406  0.5993728943518493  0.34377478047086135  1.0000
  N   N2        1.0  0.40807496544090127  0.5749703098173948  0.4005682866795609  1.0000
  N   N3        1.0  0.5747763104066635  0.6879976353145874  0.13410379779510098  1.0000
  C   C6        1.0  0.6598720538271743  0.7184575417828334  0.0647558380897606  1.0000
  C   C7        1.0  0.6605717869323938  0.7786096639390154  0.9106203473290974  1.0000
  N   N4        1.0  0.7443792092731153  0.6879975886558627  0.13410380881382958  1.0000
  H   H1        1.0  0.6581647582010781  0.5524999810607807  0.45765114457204814  1.0000
  H   H2        1.0  0.7253222647776809  0.8464570597784564  0.8878330008250344  1.0000
  H   H3        1.0  0.661609516633561  0.688438370361878  0.8388900188015898  1.0000
  H   H4        1.0  0.5953174620913212  0.8464549930914952  0.8878322463066648  1.0000
  C   C8        1.0  0.16095271824611188  0.15127094442470426  0.40298223707916614  1.0000
  C   C9        1.0  0.21237223347493914  0.23304438031233543  0.29389367541890454  1.0000
  C   C10       1.0  0.2555674039114848  0.16660203547634023  0.17926137533602216  1.0000
  C   C11       1.0  0.2477835352874531  0.017416592587070404  0.17224112069543956  1.0000
  C   C12       1.0  0.19847189355076056  0.9341976606778302  0.28068164084971325  1.0000
  C   C13       1.0  0.15590180419583707  0.9986585796592365  0.3981668985456688  1.0000
  C   C14       1.0  0.3070158364601301  0.2521112381213657  0.06767861473877845  1.0000
  C   C15       1.0  0.350091142543709  0.32372760674891055  0.9742605871551865  1.0000
  C   C16       1.0  0.4005303288698223  0.4075953265404067  0.8648721510159812  1.0000
  C   C17       1.0  0.4435973301998894  0.47920625875682665  0.7714720310116436  1.0000
  H   H5        1.0  0.11368685571865898  0.414179553727263  0.6319549472752841  1.0000
  H   H6        1.0  0.21698595749803173  0.3494984336463822  0.29612122452948153  1.0000
  H   H7        1.0  0.28069216906089856  0.9650448890017258  0.08353980539082051  1.0000
  H   H8        1.0  0.19556840761842387  0.8181817008703852  0.2744563667675394  1.0000
  H   H9        1.0  0.09093299705560876  0.8690627633300418  0.7407594793991994  1.0000
  H   H10       1.0  0.48141374941436177  0.5420867369625928  0.6894590112895284  1.0000
  C   C18       1.0  0.16134976053602745  0.5738804118820371  0.9771511035269176  1.0000
  C   C19       1.0  0.185921322422955  0.7013930781346813  0.040170208387684925  1.0000
  C   C20       1.0  0.2014830299737138  0.8302638234142959  0.9544454979742856  1.0000
  C   C21       1.0  0.19256387297431443  0.8332270187436616  0.8044881395667285  1.0000
  C   C22       1.0  0.1698444560991912  0.7073236691697105  0.7398414868209593  1.0000
  C   C23       1.0  0.15550481855432483  0.5760491177750517  0.823998056573489  1.0000
  C   C24       1.0  0.22553088629746298  0.9601499761320967  0.020816476618356946  1.0000
  C   C25       1.0  0.24566610597044858  0.06889280761783789  0.0764102257016588  1.0000
  C   C26       1.0  0.2893747715431658  0.3049479144707701  0.19710733114355833  1.0000
  H   H11       1.0  0.16719655973612624  0.334906173258287  0.27704554885969573  1.0000
  H   H12       1.0  0.19078075319238263  0.701466128672702  0.15678518562890198  1.0000
  H   H13       1.0  0.20411753867582605  0.9327021948021763  0.7372161909459372  1.0000
  H   H14       1.0  0.1657206829174993  0.7118412139010271  0.6229841387157153  1.0000
  H   H15       1.0  0.16969671685782117  0.22121035642695652  0.7495156329910058  1.0000
  H   H16       1.0  0.3070517217881128  0.4004147801216908  0.24592128592992382  1.0000
  Zn  Zn1       1.0  0.0528588760420019  0.5749664822901592  0.4005766456940593  1.0000
  Zn  Zn2       1.0  0.2639864602585582  0.5749623732157361  0.40057182576663675  1.0000
  C   C27       1.0  0.15664172610621205  0.5698912665392586  0.6639584879853997  1.0000
  C   C28       1.0  0.16020590387305433  0.5800394097841608  0.13719011460004515  1.0000
  C   C29       1.0  0.15689125774940815  0.8384695858544851  0.3933312444123704  1.0000
  C   C30       1.0  0.1599563099887142  0.3114593571771278  0.4078174448991609  1.0000
  O   O1        1.0  0.23994387055651617  0.5820985717543143  0.19089887532289906  1.0000
  O   O2        1.0  0.23714472003604237  0.5678278963458443  0.6102456601634432  1.0000
  O   O3        1.0  0.2373451295650919  0.7847082896899469  0.39171223774500713  1.0000
  O   O4        1.0  0.2397433896685981  0.36521818845614495  0.40943218957190064  1.0000
  O   O5        1.0  0.07710187458452178  0.784710667052704  0.3917162818828466  1.0000
  O   O6        1.0  0.07690145524917646  0.567832007003362  0.6102496175692478  1.0000
  O   O7        1.0  0.07970061809865525  0.5821026276930279  0.19090109943399725  1.0000
  O   O8        1.0  0.07950013652216548  0.36522223435187945  0.409434521846485  1.0000
