data_image0
_chemical_formula_structural       NC5NC3H4C6NH7C6ClH3Zn2C4O8
_chemical_formula_sum              "N3 C24 H14 Cl1 Zn2 O8"
_cell_length_a       13.859018345313864
_cell_length_b       9.274771166103582
_cell_length_c       9.276548810779733
_cell_angle_alpha    85.98017888068892
_cell_angle_beta     89.72476444669817
_cell_angle_gamma    90.59704768766964

_space_group_name_H-M_alt    "P 1"
_space_group_IT_number       1

loop_
  _space_group_symop_operation_xyz
  'x, y, z'

loop_
  _atom_site_type_symbol
  _atom_site_label
  _atom_site_symmetry_multiplicity
  _atom_site_fract_x
  _atom_site_fract_y
  _atom_site_fract_z
  _atom_site_occupancy
  N   N1        1.0  0.9246173316678835  0.5641179492524566  0.4076937255159354  1.0000
  C   C1        1.0  0.8518252860039645  0.525034485340127  0.45900114388101687  1.0000
  C   C2        1.0  0.7612762881833938  0.4764198915792861  0.5228207475300066  1.0000
  C   C3        1.0  0.674191672148391  0.5238134298675166  0.460604449147002  1.0000
  C   C4        1.0  0.5860459820810346  0.4764195999189875  0.5228206225567693  1.0000
  C   C5        1.0  0.49658540589890454  0.5250343717378791  0.4590010468106802  1.0000
  N   N2        1.0  0.4246684290912097  0.5641179147158002  0.4076936565770739  1.0000
  C   C6        1.0  0.5851672300402458  0.38161821666086637  0.6472717088997298  1.0000
  C   C7        1.0  0.6720713468848453  0.33440711825334324  0.7092485839293245  1.0000
  C   C8        1.0  0.7600325750122959  0.3816185137521848  0.6472719119416768  1.0000
  H   H1        1.0  0.675013056671946  0.5971922865882662  0.3642759608078366  1.0000
  H   H2        1.0  0.5174541668691083  0.3443146497638767  0.6962417632167932  1.0000
  H   H3        1.0  0.6712515665301906  0.26117723563406736  0.8053816995080021  1.0000
  H   H4        1.0  0.8269104308956844  0.3443151837302876  0.6962421873959814  1.0000
  C   C9        1.0  0.17168269666462316  0.14052853271932197  0.4084791182980245  1.0000
  C   C10       1.0  0.14988533766709788  0.22266045854080585  0.2796214992998798  1.0000
  C   C11       1.0  0.1370993693456346  0.1564267794061851  0.14994633395943224  1.0000
  C   C12       1.0  0.14616430375931316  0.006675123477117406  0.14818953827008974  1.0000
  C   C13       1.0  0.16618299318921334  0.9232076036447467  0.27527703042954954  1.0000
  C   C14       1.0  0.17761217623299408  0.9876963389390394  0.40692081234918476  1.0000
  N   N3        1.0  0.11589929466545733  0.24164526908596098  0.019672495007122086  1.0000
  H   H5        1.0  0.27927947573907264  0.22306889457987866  0.7238333516353297  1.0000
  H   H6        1.0  0.14502198506995898  0.33924811229179763  0.2790679931095372  1.0000
  H   H7        1.0  0.13678346940192765  0.9542767064082769  0.04841758147074127  1.0000
  H   H8        1.0  0.17044826970354188  0.8070058986026992  0.2711502406877182  1.0000
  H   H9        1.0  0.24616538124070403  0.6925894783718342  0.6214733480578452  1.0000
  H   H10       1.0  0.10925146673996156  0.35371874387696  0.019625693927417753  1.0000
  H   H11       1.0  0.10660183127988286  0.19328570171876813  0.9222702409015996  1.0000
  C   C15       1.0  0.17598040334510645  0.5602479559942781  0.9845577050162372  1.0000
  C   C16       1.0  0.2573031983927312  0.6150806141442897  0.0535633085612377  1.0000
  C   C17       1.0  0.3332895158733584  0.6806642454904388  0.9732101924539411  1.0000
  C   C18       1.0  0.32909356663193456  0.69251912361825  0.822748860074499  1.0000
  C   C19       1.0  0.24986610114930943  0.6366746490599413  0.7520960112655639  1.0000
  C   C20       1.0  0.17331443012532288  0.5679768197238266  0.8308422254803496  1.0000
  Cl  Cl1       1.0  0.43338900920964685  0.7501195886556633  0.06158689101920767  1.0000
  H   H12       1.0  0.05777910318796952  0.3987947580260738  0.27785684192870064  1.0000
  H   H13       1.0  0.3877095513181288  0.7438331743075424  0.7601652102074428  1.0000
  H   H14       1.0  0.017949687205480954  0.5150927733365132  0.5543434164908758  1.0000
  Zn  Zn1       1.0  0.06892122176638837  0.5641141435243607  0.40770204310374614  1.0000
  Zn  Zn2       1.0  0.2803643953221495  0.5641099902183033  0.4076971957717088  1.0000
  C   C21       1.0  0.17377600212021194  0.560769500644702  0.6708868753930233  1.0000
  C   C22       1.0  0.17551193621435046  0.5674564543717933  0.14451250151013761  1.0000
  C   C23       1.0  0.17650448860601986  0.8275111187648132  0.40147330525020775  1.0000
  C   C24       1.0  0.17278336520593007  0.30071310391445927  0.4139261516651751  1.0000
  O   O1        1.0  0.2555962527392055  0.5698678231365497  0.19819296445708523  1.0000
  O   O2        1.0  0.2541721555524712  0.5583538876430942  0.6172023206395545  1.0000
  O   O3        1.0  0.25637435648137186  0.7737511313880949  0.3996489538693979  1.0000
  O   O4        1.0  0.25339398007164293  0.3544705887249786  0.41574622316929144  1.0000
  O   O5        1.0  0.09589156486175199  0.7737535450206043  0.3996530157002358  1.0000
  O   O6        1.0  0.09368937630032104  0.5583580336157448  0.6172063024522425  1.0000
  O   O7        1.0  0.09511347865687103  0.5698719030211692  0.1981952139331722  1.0000
  O   O8        1.0  0.09291120557282762  0.35447465927908706  0.41574858069740106  1.0000
