data_image0
_chemical_formula_structural       NC8NC6H8C12SCH10C12NH9Zn2C4O8
_chemical_formula_sum              "N3 C43 H27 S1 Zn2 O8"
_cell_length_a       17.457602349358154
_cell_length_b       10.299776766347527
_cell_length_c       10.299774167527172
_cell_angle_alpha    85.57893362728709
_cell_angle_beta     92.86883644785563
_cell_angle_gamma    91.66964631390691

_space_group_name_H-M_alt    "P 1"
_space_group_IT_number       1

loop_
  _space_group_symop_operation_xyz
  'x, y, z'

loop_
  _atom_site_type_symbol
  _atom_site_label
  _atom_site_symmetry_multiplicity
  _atom_site_fract_x
  _atom_site_fract_y
  _atom_site_fract_z
  _atom_site_occupancy
  N   N1        1.0  0.7222434444784709  0.4523918879820117  0.6265776587881808  1.0000
  C   C1        1.0  0.6611749501848113  0.40646464941738025  0.6159622948436636  1.0000
  C   C2        1.0  0.5852031585129817  0.3493368817011933  0.6027663236116458  1.0000
  C   C3        1.0  0.5266617824663614  0.3895198707152982  0.677660493587514  1.0000
  C   C4        1.0  0.45212762964639447  0.3345104958206022  0.6650789377198991  1.0000
  C   C5        1.0  0.3899946289615583  0.3769378844706815  0.7443947037657379  1.0000
  C   C6        1.0  0.3154482804807561  0.39538938135389223  0.6886339710510317  1.0000
  C   C7        1.0  0.2569069290884  0.4353884812076995  0.7636360888281826  1.0000
  C   C8        1.0  0.1809224620707322  0.45444516261547435  0.7056600050425637  1.0000
  N   N2        1.0  0.11984386829567592  0.46976035496918045  0.6590473846976408  1.0000
  C   C9        1.0  0.2724196825287853  0.4571793698579764  0.8949074329964884  1.0000
  C   C10       1.0  0.3461812266686671  0.4391169646427564  0.9510557462865801  1.0000
  C   C11       1.0  0.40471090764231293  0.39929804984124384  0.8765113281550495  1.0000
  C   C12       1.0  0.4374237253337532  0.23864030595812769  0.5761703596196547  1.0000
  C   C13       1.0  0.49595330297833917  0.19873610824999946  0.501676174441354  1.0000
  C   C14       1.0  0.5697026311630373  0.2538580183391552  0.5148076537228836  1.0000
  H   H1        1.0  0.5389869958886258  0.4647320517793325  0.7442882179751462  1.0000
  H   H2        1.0  0.30311310564482424  0.38038935773193616  0.5866144057766429  1.0000
  H   H3        1.0  0.22754882340964602  0.4880787570903186  0.9537405105391575  1.0000
  H   H4        1.0  0.3580024205614057  0.4556745008961467  0.05270207450625564  1.0000
  H   H5        1.0  0.46119620853347887  0.3843202087185202  0.9226154854416034  1.0000
  H   H6        1.0  0.3809483996816097  0.19330271063013924  0.5655188825525486  1.0000
  H   H7        1.0  0.4841417696246538  0.12464000813008735  0.43385019095729294  1.0000
  H   H8        1.0  0.6145736641667472  0.22208910501128942  0.45648567329526046  1.0000
  C   C15       1.0  0.9211196607623534  0.07971428808728673  0.6428171346343968  1.0000
  C   C16       1.0  0.9257204631888225  0.06839371489197088  0.7796999217221002  1.0000
  C   C17       1.0  0.9279778613276765  0.9455156442618556  0.8490588456587584  1.0000
  C   C18       1.0  0.9255737633048267  0.8330995346700413  0.779703131161033  1.0000
  C   C19       1.0  0.9209750099271417  0.8424282496428115  0.6428197620626718  1.0000
  C   C20       1.0  0.9187732697263842  0.966175805448154  0.5751429634164125  1.0000
  C   C21       1.0  0.9328365364458191  0.9346032919542095  0.9938646993393285  1.0000
  C   C22       1.0  0.8889232941793966  0.8392464077819797  0.06431754488679677  1.0000
  C   C23       1.0  0.8935189175507748  0.8292120686328416  0.2005953502221629  1.0000
  C   C24       1.0  0.9418363762019601  0.9142482162865009  0.2682112608457937  1.0000
  C   C25       1.0  0.9859326073225859  0.009039711699061037  0.19914635509049405  1.0000
  C   C26       1.0  0.9814494812095582  0.019428850777231332  0.06286732227306902  1.0000
  S   S1        1.0  0.9478177953008492  0.9009159366402048  0.44308134331543036  1.0000
  C   C27       1.0  0.8707231612228833  0.013615775879947558  0.4563132084384693  1.0000
  H   H9        1.0  0.9265010115695432  0.15527449266866067  0.8327193470248249  1.0000
  H   H10       1.0  0.9283547155252239  0.7382228309435768  0.8326897913107321  1.0000
  H   H11       1.0  0.915224470822364  0.9741406809489943  0.46954375624932476  1.0000
  H   H12       1.0  0.8503061201285447  0.7735815300812707  0.014052132073284596  1.0000
  H   H13       1.0  0.8592144614637591  0.7556676843738774  0.2535126134162178  1.0000
  H   H14       1.0  0.02373314903812629  0.07472526028813253  0.25093393330513336  1.0000
  H   H15       1.0  0.016722133064991596  0.0926469946484163  0.01144209805494978  1.0000
  H   H16       1.0  0.8860847684538016  0.1106021171591387  0.4086924892516165  1.0000
  H   H17       1.0  0.8618261141885242  0.023937551534531698  0.5608606490149142  1.0000
  H   H18       1.0  0.8167409840151548  0.9757127445292846  0.4097848150896859  1.0000
  C   C28       1.0  0.9210734472954425  0.46095789354424666  0.2614684765326776  1.0000
  C   C29       1.0  0.8459453986982315  0.4083746554338252  0.2581530364646274  1.0000
  C   C30       1.0  0.8078505379963641  0.38184495466733503  0.1393230641929273  1.0000
  C   C31       1.0  0.845892647808521  0.40860364999891097  0.022844021939277374  1.0000
  C   C32       1.0  0.9210211848436344  0.46118468296938864  0.024168357491294094  1.0000
  C   C33       1.0  0.9581907618045452  0.48706785461917224  0.14396540900995825  1.0000
  C   C34       1.0  0.7283694166565597  0.3262155030599103  0.136868869403453  1.0000
  C   C35       1.0  0.7068267489561538  0.22682150554397415  0.23040648345603537  1.0000
  C   C36       1.0  0.6320155437278988  0.1745184331243783  0.2279626000778101  1.0000
  C   C37       1.0  0.577563618719169  0.22066502683700873  0.1322121432119874  1.0000
  C   C38       1.0  0.5986000952380311  0.31964675529244335  0.038792548770266506  1.0000
  C   C39       1.0  0.673388244241031  0.37205008144823415  0.04096827109150559  1.0000
  N   N3        1.0  0.5010491292358764  0.16711150908541206  0.12984934041840424  1.0000
  H   H19       1.0  0.816494199451159  0.38958515719237546  0.3480332804320696  1.0000
  H   H20       1.0  0.817164535606645  0.38667336141071806  0.9311671574352389  1.0000
  H   H21       1.0  0.01614875907320057  0.5276325223522698  0.14575514485500252  1.0000
  H   H22       1.0  0.7481033971045475  0.18835679162326932  0.30442636645835003  1.0000
  H   H23       1.0  0.616553636761369  0.09779707390930525  0.30051682650831846  1.0000
  H   H24       1.0  0.5570034885175537  0.35643219773390916  0.9644764520108331  1.0000
  H   H25       1.0  0.68795311100732  0.4495987418011982  0.9686728228009703  1.0000
  H   H26       1.0  0.4600581720988727  0.200876984583511  0.058837977645808344  1.0000
  H   H27       1.0  0.4848270312553372  0.0933021855006113  0.19909440717079813  1.0000
  Zn  Zn1       1.0  0.8369823383294724  0.45740057196510425  0.6359552183849101  1.0000
  Zn  Zn2       1.0  0.005104961486104952  0.46474102652092  0.6496804570635644  1.0000
  C   C40       1.0  0.9210303430373038  0.4559681293321813  0.8800016219304747  1.0000
  C   C41       1.0  0.9210587923525415  0.4661751879390399  0.40563433086288714  1.0000
  C   C42       1.0  0.9209987370899296  0.6982573695825833  0.6376440087380193  1.0000
  C   C43       1.0  0.9210903412226343  0.22388438493025004  0.6479920086017416  1.0000
  O   O1        1.0  0.9848555344040486  0.4707061582090153  0.4592263650769786  1.0000
  O   O2        1.0  0.984834782080429  0.45700741440769604  0.8368263524622794  1.0000
  O   O3        1.0  0.9848083997088236  0.6526590029249235  0.6411207948774592  1.0000
  O   O4        1.0  0.9848818594116996  0.2750545764480923  0.6549318206085082  1.0000
  O   O5        1.0  0.8572053830318779  0.6470870195344072  0.630703850149385  1.0000
  O   O6        1.0  0.8572317651087646  0.45143699127204195  0.8264093384972255  1.0000
  O   O7        1.0  0.8572525175989535  0.46513568935625255  0.44880778979285557  1.0000
  O   O8        1.0  0.857278842598559  0.26948409833550024  0.6445133426870954  1.0000
