data_image0
_chemical_formula_structural       NC8NH4C6NH7C6H6Zn2C4O8
_chemical_formula_sum              "N3 C24 H17 Zn2 O8"
_cell_length_a       13.859017981522156
_cell_length_b       9.274771166103582
_cell_length_c       10.68112160042829
_cell_angle_alpha    85.45578074471726
_cell_angle_beta     89.99986217780584
_cell_angle_gamma    90.59707920365587

_space_group_name_H-M_alt    "P 1"
_space_group_IT_number       1

loop_
  _space_group_symop_operation_xyz
  'x, y, z'

loop_
  _atom_site_type_symbol
  _atom_site_label
  _atom_site_symmetry_multiplicity
  _atom_site_fract_x
  _atom_site_fract_y
  _atom_site_fract_z
  _atom_site_occupancy
  N   N1        1.0  0.9196013898132246  0.5786608098682997  0.6161554694398252  1.0000
  C   C1        1.0  0.8471978638341489  0.5716283926375676  0.5628993269265394  1.0000
  C   C2        1.0  0.7571321613064059  0.562881358292737  0.49665561479049297  1.0000
  C   C3        1.0  0.7568309819672776  0.5458237751196142  0.3674771270198518  1.0000
  C   C4        1.0  0.669339229189712  0.5373301292964128  0.3031459676906893  1.0000
  C   C5        1.0  0.5819657180298328  0.5458254979454167  0.3674769085690641  1.0000
  C   C6        1.0  0.5819019312056839  0.5628823318277962  0.4966554535734493  1.0000
  C   C7        1.0  0.669576458069684  0.5714091778750057  0.5612350165089914  1.0000
  C   C8        1.0  0.4919580533711687  0.5716292966413876  0.5628991166173221  1.0000
  N   N2        1.0  0.4196524763343336  0.5786611234377794  0.6161553876218202  1.0000
  H   H1        1.0  0.8240797446660358  0.5391114743688692  0.31664675525870556  1.0000
  H   H2        1.0  0.669247490682038  0.5241541392221261  0.20336114383670068  1.0000
  H   H3        1.0  0.5146234965466077  0.5391145729577509  0.31664638549410257  1.0000
  H   H4        1.0  0.66966837359096  0.5846117302206135  0.6612227098814829  1.0000
  C   C9        1.0  0.16666923682010526  0.155064426410336  0.6168380097051895  1.0000
  C   C10       1.0  0.14446595889399547  0.23837315485864116  0.5048501997895858  1.0000
  C   C11       1.0  0.13127149655573048  0.17332375228223063  0.3921518741144028  1.0000
  C   C12       1.0  0.1403308971255195  0.023588148232164038  0.3906250738268615  1.0000
  C   C13       1.0  0.1607499292976174  0.9389599903670193  0.501074498926023  1.0000
  C   C14       1.0  0.17259380771251753  0.002246469145085423  0.6154837136250546  1.0000
  N   N3        1.0  0.10966104168939017  0.2597319790293391  0.27893325312616013  1.0000
  H   H5        1.0  0.2752594261223711  0.23472483543218028  0.8909066240089942  1.0000
  H   H6        1.0  0.13960086252457482  0.3549658595756622  0.5043691582252491  1.0000
  H   H7        1.0  0.1306357678498158  0.9721009128736735  0.3039150823001946  1.0000
  H   H8        1.0  0.16500220602521276  0.8227959777013933  0.497487980509524  1.0000
  H   H9        1.0  0.2418228832614333  0.7051802170717653  0.8019474110192651  1.0000
  H   H10       1.0  0.1030130661212878  0.3718058757027676  0.27889257997483047  1.0000
  H   H11       1.0  0.10005674825932068  0.21226195160647493  0.19428272709261285  1.0000
  C   C15       1.0  0.16963153614772297  0.5786554096043277  0.2484156205552226  1.0000
  C   C16       1.0  0.10000787483690177  0.4984298393202706  0.18712139086184942  1.0000
  C   C17       1.0  0.10000781524104774  0.4984299318134084  0.05623925076110492  1.0000
  C   C18       1.0  0.1696314607893952  0.5786554803145572  0.9839060561185401  1.0000
  C   C19       1.0  0.23919765487458533  0.658814567626594  0.04519981175296017  1.0000
  C   C20       1.0  0.23919764237320473  0.6588145452588969  0.1760921104517652  1.0000
  H   H12       1.0  0.24003951919841904  0.6597855046696353  0.5415436589420726  1.0000
  H   H13       1.0  0.04543356223535745  0.43554524570144765  0.2402587605866366  1.0000
  H   H14       1.0  0.045433542558609874  0.4355453136014888  0.011754731252560987  1.0000
  H   H15       1.0  0.29377909471361086  0.7217074478158116  0.9921067641479748  1.0000
  H   H16       1.0  0.2937790457452086  0.7217073972487208  0.22053113171322586  1.0000
  H   H17       1.0  0.24003981682843611  0.6597850021033147  0.6796146340320028  1.0000
  Zn  Zn1       1.0  0.06390531073958883  0.5786570484085445  0.6161626803983755  1.0000
  Zn  Zn2       1.0  0.2753484758044864  0.5786531155412264  0.6161584417267572  1.0000
  C   C21       1.0  0.16958916084673148  0.5729088990325545  0.8448918176144102  1.0000
  C   C22       1.0  0.16966694737824772  0.5844030849324136  0.38742942446780526  1.0000
  C   C23       1.0  0.1714689596954049  0.8421109986148723  0.6107493844382093  1.0000
  C   C24       1.0  0.16778706425900847  0.3151992522820728  0.6215719271811835  1.0000
  O   O1        1.0  0.24992036689835984  0.586324271686596  0.4340821284741227  1.0000
  O   O2        1.0  0.24981620353901104  0.5709836391193477  0.7982355378029475  1.0000
  O   O3        1.0  0.25133308318767233  0.7883677390774719  0.6091638640405564  1.0000
  O   O4        1.0  0.24840341517063785  0.3689401820487046  0.6231537083253227  1.0000
  O   O5        1.0  0.09085029921827381  0.7883699819039793  0.6091674137946668  1.0000
  O   O6        1.0  0.08933343168501495  0.5709876150167902  0.7982390180147374  1.0000
  O   O7        1.0  0.08943759475709423  0.5863281973169601  0.43408410314368506  1.0000
  O   O8        1.0  0.08792064295326887  0.3689440973617484  0.623155776900933  1.0000
