data_image0
_chemical_formula_structural       NC9NC4H8C8H6C7NC2NH8Zn2C4O8
_chemical_formula_sum              "N4 C34 H22 Zn2 O8"
_cell_length_a       16.32274767691083
_cell_length_b       9.27514070457351
_cell_length_c       9.27399911348925
_cell_angle_alpha    85.20391567868208
_cell_angle_beta     89.127461349941
_cell_angle_gamma    90.11802364943966

_space_group_name_H-M_alt    "P 1"
_space_group_IT_number       1

loop_
  _space_group_symop_operation_xyz
  'x, y, z'

loop_
  _atom_site_type_symbol
  _atom_site_label
  _atom_site_symmetry_multiplicity
  _atom_site_fract_x
  _atom_site_fract_y
  _atom_site_fract_z
  _atom_site_occupancy
  N   N1        1.0  0.7861182399928299  0.5814994507381265  0.399685174372004  1.0000
  C   C1        1.0  0.733686795532057  0.5293535821659084  0.33922078887409063  1.0000
  C   C2        1.0  0.6685140524944139  0.4645880075320936  0.2641235386198022  1.0000
  C   C3        1.0  0.679903904919962  0.376000300684818  0.16139909364228977  1.0000
  C   C4        1.0  0.600458782107459  0.332768995712619  0.11127297132676683  1.0000
  C   C5        1.0  0.5416420937934158  0.3960369418367308  0.1846397267321782  1.0000
  C   C6        1.0  0.4516738474465018  0.3793157584342526  0.1652534742937215  1.0000
  C   C7        1.0  0.396213554460493  0.45305870673114473  0.25075894867578286  1.0000
  C   C8        1.0  0.31147875117229273  0.4387679823843602  0.23419022941137488  1.0000
  C   C9        1.0  0.255610705121037  0.5147779319136261  0.32232344622936604  1.0000
  N   N2        1.0  0.2107117159614671  0.5758774272692309  0.39316762633827285  1.0000
  C   C10       1.0  0.2811509808402031  0.3506150387051015  0.1319784442384948  1.0000
  C   C11       1.0  0.3352895338030834  0.2769697650510228  0.04658660742058762  1.0000
  C   C12       1.0  0.4198648335437266  0.29087556484234156  0.06270886791323549  1.0000
  C   C13       1.0  0.579565774689288  0.4882886493359249  0.29160993039961225  1.0000
  H   H1        1.0  0.7387481098977434  0.3415527406021619  0.1214518916462166  1.0000
  H   H2        1.0  0.5920304270505795  0.26036637509152016  0.02731620516125721  1.0000
  H   H3        1.0  0.4184524790355765  0.5218769392858624  0.33055259668962855  1.0000
  H   H4        1.0  0.21573758164327023  0.3388424401617124  0.11832950587567657  1.0000
  H   H5        1.0  0.3116557079978376  0.20877524330274594  0.9675164309058476  1.0000
  H   H6        1.0  0.45953781287213363  0.23196408265862892  0.9944013334090952  1.0000
  H   H7        1.0  0.5621813932578434  0.44873971137010016  0.40433287528049955  1.0000
  H   H8        1.0  0.5635476213716439  0.6040341046656914  0.2672429268941361  1.0000
  C   C14       1.0  0.9959335411820568  0.15528927566977374  0.39545513266613286  1.0000
  C   C15       1.0  0.008078779141804661  0.2397108067905274  0.26361068019235945  1.0000
  C   C16       1.0  0.02735126472747984  0.17523667141619104  0.1368297542486392  1.0000
  C   C17       1.0  0.03493753160994828  0.025182537385697985  0.13945711757960177  1.0000
  C   C18       1.0  0.021751030583327724  0.9392144449869442  0.26895211256059315  1.0000
  C   C19       1.0  0.0009041373985729812  0.0020762536164287055  0.3974100468788613  1.0000
  C   C20       1.0  0.05534145700170323  0.9589774704837916  0.008624548365339543  1.0000
  C   C21       1.0  0.07242531247441253  0.9035319325942994  0.8990896086198822  1.0000
  H   H9        1.0  0.008131638804916854  0.2285610760354062  0.7499059381946245  1.0000
  H   H10       1.0  0.0045708492369287415  0.35662042339885547  0.259243749771896  1.0000
  H   H11       1.0  0.0371380212873238  0.2427123159875857  0.03690226535965912  1.0000
  H   H12       1.0  0.025881655753168697  0.8225540640021027  0.26871041373689253  1.0000
  H   H13       1.0  0.005971971671798299  0.7014131029935928  0.6362730253109785  1.0000
  H   H14       1.0  0.08742127266460842  0.8548607007692606  0.8029409353651111  1.0000
  C   C22       1.0  0.9998554774359318  0.5823540990458307  0.9725679832013697  1.0000
  C   C23       1.0  0.06376298438409322  0.5124626712436905  0.04990592094026236  1.0000
  C   C24       1.0  0.12218701481784387  0.432378454766575  0.9801667151142972  1.0000
  C   C25       1.0  0.11827023329961617  0.41942659009176114  0.8308992539573281  1.0000
  C   C26       1.0  0.0556100527729213  0.4917365568500369  0.7519893661459696  1.0000
  C   C27       1.0  0.9969822209099038  0.5750114328292062  0.8202971164998862  1.0000
  C   C28       1.0  0.18063968301484068  0.33236301572517446  0.7590394860410088  1.0000
  N   N3        1.0  0.2489512739726443  0.28107721656393236  0.8259088770732435  1.0000
  C   C29       1.0  0.2881887938901697  0.20840966500278868  0.7258105330881821  1.0000
  C   C30       1.0  0.2434789594994362  0.21618784277074624  0.6009719906700672  1.0000
  N   N4        1.0  0.17583788031985764  0.2940778407819562  0.6220280190111462  1.0000
  H   H15       1.0  0.9137128641453598  0.7654957487831884  0.24090398847445105  1.0000
  H   H16       1.0  0.06749944417737219  0.5167041261491396  0.16601000977354263  1.0000
  H   H17       1.0  0.1699213533303896  0.3786273048413882  0.04403430927232276  1.0000
  H   H18       1.0  0.05356056377634322  0.48786218277811444  0.6359064720671297  1.0000
  H   H19       1.0  0.8696304526183025  0.6580795893488898  0.5366850264708667  1.0000
  H   H20       1.0  0.3458229066451657  0.15276653823944253  0.743162659377147  1.0000
  H   H21       1.0  0.25892223613448073  0.167835785643566  0.5019267768692788  1.0000
  H   H22       1.0  0.12961692772942698  0.3165457078886649  0.5470845321756204  1.0000
  Zn  Zn1       1.0  0.9086467006728383  0.5798731142889999  0.3978126775700752  1.0000
  Zn  Zn2       1.0  0.08818315192547499  0.5774918298374201  0.3950519205227445  1.0000
  C   C31       1.0  0.9974897831140457  0.5706555127302457  0.6600449608502772  1.0000
  C   C32       1.0  0.9993420402152727  0.586711223375008  0.13281975296490578  1.0000
  C   C33       1.0  0.9999798833653392  0.8420653644172499  0.39128872399290726  1.0000
  C   C34       1.0  0.9968518682715866  0.31529963957276474  0.4015760637191037  1.0000
  O   O1        1.0  0.06730283665897208  0.5872635389089346  0.18555400338254735  1.0000
  O   O2        1.0  0.06579299400393701  0.5682947732993582  0.6052149416988055  1.0000
  O   O3        1.0  0.06780285789412921  0.7874616601650226  0.3881923965260934  1.0000
  O   O4        1.0  0.06529291193250787  0.3680966641073251  0.4025764412960704  1.0000
  O   O5        1.0  0.9315368793988611  0.7892682808333467  0.3902881577312718  1.0000
  O   O6        1.0  0.9295270259341168  0.5701031268971724  0.6073106299416784  1.0000
  O   O7        1.0  0.9310368742305559  0.5890718572936473  0.18764795612210983  1.0000
  O   O8        1.0  0.9290269490734195  0.3699049712422337  0.40467050222934464  1.0000
