data_image0
_chemical_formula_structural       NC6NC3H6C7NH5C7ONH5Zn2C4O8
_chemical_formula_sum              "N4 C27 H16 O9 Zn2"
_cell_length_a       14.934028789175542
_cell_length_b       9.275154477615127
_cell_length_c       9.273042158839658
_cell_angle_alpha    86.38948304707893
_cell_angle_beta     90.06873718233021
_cell_angle_gamma    89.3962875590186

_space_group_name_H-M_alt    "P 1"
_space_group_IT_number       1

loop_
  _space_group_symop_operation_xyz
  'x, y, z'

loop_
  _atom_site_type_symbol
  _atom_site_label
  _atom_site_symmetry_multiplicity
  _atom_site_fract_x
  _atom_site_fract_y
  _atom_site_fract_z
  _atom_site_occupancy
  N   N1        1.0  0.8320075384521889  0.5603732649321789  0.4157902959535811  1.0000
  C   C1        1.0  0.7545275594310128  0.5592681820303842  0.41510713690267353  1.0000
  C   C2        1.0  0.6581385883052874  0.557888379937149  0.4142543386661587  1.0000
  C   C3        1.0  0.6097866823897451  0.6653471626575294  0.48056383546773146  1.0000
  C   C4        1.0  0.5162810330737686  0.6642392883097108  0.4798800715073992  1.0000
  C   C5        1.0  0.4702144400595082  0.5557274725409248  0.41292085083685914  1.0000
  C   C6        1.0  0.373555904959165  0.558055716743898  0.41435882299881777  1.0000
  N   N2        1.0  0.2960656532731281  0.5599034755107106  0.4155003635324987  1.0000
  C   C7        1.0  0.5185689281569519  0.44678201522681066  0.3456934217683485  1.0000
  C   C8        1.0  0.47089970020825855  0.3288071284535076  0.2728960610728113  1.0000
  C   C9        1.0  0.6126994455655155  0.4490203678801219  0.3470746921269836  1.0000
  H   H1        1.0  0.6443666111320427  0.7500147217950395  0.5328101574592294  1.0000
  H   H2        1.0  0.47978459263509726  0.7482547829651376  0.5317238813759346  1.0000
  H   H3        1.0  0.42776525262815757  0.37693509859175434  0.18448848176778587  1.0000
  H   H4        1.0  0.4286162479589532  0.26681686998741916  0.3527562752801332  1.0000
  H   H5        1.0  0.5187776144317667  0.25239301814776693  0.22573685764542814  1.0000
  H   H6        1.0  0.6506828165745183  0.3661225327509605  0.29592084477291664  1.0000
  C   C10       1.0  0.06663050297252603  0.1367288788668191  0.41397572569420354  1.0000
  C   C11       1.0  0.041931484460411506  0.21859504076168765  0.28690237394080453  1.0000
  C   C12       1.0  0.009955431038582319  0.15132193216005163  0.16656565129729417  1.0000
  C   C13       1.0  0.0021524303590403364  0.001265256705397678  0.17188514789853548  1.0000
  C   C14       1.0  0.027678621687394767  0.9181600853608676  0.296061095206477  1.0000
  C   C15       1.0  0.06145137706983728  0.9835368906685428  0.417327375622928  1.0000
  C   C16       1.0  0.9840636629800521  0.23675498837278927  0.03796129353096656  1.0000
  N   N3        1.0  0.9632538608005242  0.30542759909695016  0.9345963312549314  1.0000
  H   H7        1.0  0.0843278411874881  0.21710679053212384  0.767777891705768  1.0000
  H   H8        1.0  0.04558433062328371  0.3355057185686072  0.28262325526845733  1.0000
  H   H9        1.0  0.9770996992421227  0.9481902320875621  0.07939911691261892  1.0000
  H   H10       1.0  0.022976486801745917  0.8016959142518401  0.2959371814127332  1.0000
  H   H11       1.0  0.07716622149454411  0.6872464380975993  0.6543824806736125  1.0000
  C   C17       1.0  0.06364000777057563  0.5556771783482315  0.9923692541531812  1.0000
  C   C18       1.0  0.9813399473326887  0.5649419561496801  0.0651377897473464  1.0000
  C   C19       1.0  0.9005715919611939  0.5881516170464263  0.9890235452362259  1.0000
  C   C20       1.0  0.9026103819156066  0.6003544515864645  0.8375718307068304  1.0000
  C   C21       1.0  0.9834574931169251  0.5889742337046123  0.7637864017659979  1.0000
  C   C22       1.0  0.06444189478221825  0.5645885295152444  0.8389338316573264  1.0000
  C   C23       1.0  0.8149440923416869  0.598191930158098  0.06897642611603705  1.0000
  O   O1        1.0  0.8093031626276047  0.5424014442090337  0.1961299471645066  1.0000
  N   N4        1.0  0.7383299011698178  0.6714176341929019  0.0057770719075207425  1.0000
  H   H12       1.0  0.2805542540223047  0.6105314643130257  0.09241154503881388  1.0000
  H   H13       1.0  0.8416308990155493  0.6146720752211634  0.7750431692661632  1.0000
  H   H14       1.0  0.21069018981565257  0.5948456662795447  0.5560408938557497  1.0000
  H   H15       1.0  0.7422614101269187  0.7336760033641664  0.9083549805066692  1.0000
  H   H16       1.0  0.6778086886806347  0.6713166179137884  0.062056707015121886  1.0000
  Zn  Zn1       1.0  0.9659247312048778  0.5602339176834876  0.4157149298725164  1.0000
  Zn  Zn2       1.0  0.16214857398398808  0.5600311359737081  0.41558746749415215  1.0000
  C   C24       1.0  0.06432343052569967  0.55716012100381  0.6788922429564428  1.0000
  C   C25       1.0  0.06375200642875684  0.5631067511828711  0.1524103016941416  1.0000
  C   C26       1.0  0.06242028854451997  0.8234116722763709  0.41094987424565543  1.0000
  C   C27       1.0  0.06565509212012527  0.2968534684842037  0.4203527404402072  1.0000
  O   O2        1.0  0.13825555837901804  0.5655169387834693  0.2060731430369942  1.0000
  O   O3        1.0  0.1387492411936877  0.55459493468645  0.6251322413799467  1.0000
  O   O4        1.0  0.13721142755871635  0.7695964463639362  0.4087668894951326  1.0000
  O   O5        1.0  0.13979330489063124  0.3505154363518499  0.4224383869297483  1.0000
  O   O6        1.0  0.9882799333366497  0.7697496173760354  0.4088640104728414  1.0000
  O   O7        1.0  0.989817736299848  0.5547498371953454  0.6252292923582982  1.0000
  O   O8        1.0  0.9893240522105466  0.565671772804992  0.20616846081407036  1.0000
  O   O9        1.0  0.9908617988839337  0.3506702611981958  0.4225338127348056  1.0000
