data_image0
_chemical_formula_structural       NC6NCNCH5C6BrH5C7ONH5Zn2C4O8
_chemical_formula_sum              "N4 C25 H15 Br1 O9 Zn2"
_cell_length_a       14.933214217465613
_cell_length_b       9.276564384272257
_cell_length_c       9.273042158839658
_cell_angle_alpha    86.1127255114725
_cell_angle_beta     90.05893816914777
_cell_angle_gamma    90.62004099175812

_space_group_name_H-M_alt    "P 1"
_space_group_IT_number       1

loop_
  _space_group_symop_operation_xyz
  'x, y, z'

loop_
  _atom_site_type_symbol
  _atom_site_label
  _atom_site_symmetry_multiplicity
  _atom_site_fract_x
  _atom_site_fract_y
  _atom_site_fract_z
  _atom_site_occupancy
  N   N1        1.0  0.851548722129166  0.5623502122884758  0.4079205751764764  1.0000
  C   C1        1.0  0.7740637235861747  0.5633364878187446  0.40692930475976063  1.0000
  C   C2        1.0  0.6776718424224576  0.5645661200904337  0.4056933131725253  1.0000
  C   C3        1.0  0.6293419398706949  0.4698032114480555  0.5009556242511162  1.0000
  C   C4        1.0  0.5358142313307742  0.4708747760371283  0.49987844233084305  1.0000
  C   C5        1.0  0.4897137817571014  0.5666549549366474  0.4035935369873762  1.0000
  C   C6        1.0  0.3931271228990813  0.5645682550090163  0.4056912406744336  1.0000
  N   N2        1.0  0.31563219477168836  0.5628274823281749  0.4074408158289393  1.0000
  C   C7        1.0  0.5381488335814631  0.6626144620595427  0.3071284506987555  1.0000
  N   N3        1.0  0.4933682151443286  0.7621668650128074  0.20705167885970277  1.0000
  C   C8        1.0  0.6321518003316594  0.6605868560532884  0.3091668597358477  1.0000
  H   H1        1.0  0.6639409662615285  0.39508903055991285  0.5760635070011488  1.0000
  H   H2        1.0  0.4993356044999808  0.3967891011319262  0.5743543777718594  1.0000
  H   H3        1.0  0.5300988767142008  0.8324803361537076  0.13636761314567858  1.0000
  H   H4        1.0  0.42365499622093156  0.7674639024881855  0.20172679803825289  1.0000
  H   H5        1.0  0.6697508869607257  0.7339271054624323  0.2354401122217629  1.0000
  C   C9        1.0  0.08089715863648  0.13910897520748788  0.4080520756016517  1.0000
  C   C10       1.0  0.0692793188795817  0.2212091752982388  0.2763285139782312  1.0000
  C   C11       1.0  0.06599670304853777  0.15484274579232604  0.14582681216379045  1.0000
  C   C12       1.0  0.07430935767404527  0.005430997115486448  0.1445706727573448  1.0000
  C   C13       1.0  0.0843474831506934  0.9216148675643943  0.2743038030693062  1.0000
  C   C14       1.0  0.08629226416733053  0.9860576944890302  0.4073217669985807  1.0000
  Br  Br1       1.0  0.07047645483782096  0.9151836596507167  0.9654988424784436  1.0000
  H   H6        1.0  0.05489071362423472  0.40410206354946365  0.6424086797995103  1.0000
  H   H7        1.0  0.06485748464175467  0.337835038047675  0.2738655297751851  1.0000
  H   H8        1.0  0.057841359492542654  0.21999742046647608  0.045436600143485606  1.0000
  H   H9        1.0  0.08848743626891525  0.8053464209231861  0.27119199177732467  1.0000
  H   H10       1.0  0.13593371530672446  0.6905398656411988  0.6317569540023793  1.0000
  C   C15       1.0  0.08313811183989617  0.5581260401425209  0.9844263257891135  1.0000
  C   C16       1.0  0.0009482163794689586  0.5672245021168998  0.057184237019849656  1.0000
  C   C17       1.0  0.920464266706613  0.5902734653890462  0.9809914805024144  1.0000
  C   C18       1.0  0.9226555774864538  0.6024826417577578  0.8294800700857139  1.0000
  C   C19       1.0  0.003366009366386089  0.5912653962413537  0.7557160691842523  1.0000
  C   C20       1.0  0.08405133391726882  0.5670406204523731  0.8309475935310595  1.0000
  C   C21       1.0  0.8349563930547395  0.6001408100817045  0.06093137373254343  1.0000
  O   O1        1.0  0.8286183963188815  0.5443288410506784  0.18835629710460888  1.0000
  N   N4        1.0  0.7592514659073236  0.6732232332054204  0.9974105696070366  1.0000
  H   H11       1.0  0.300751929471184  0.6134328432356013  0.08411429866372444  1.0000
  H   H12       1.0  0.8618507898742387  0.6166783670869318  0.7669075922199369  1.0000
  H   H13       1.0  0.23068729355530815  0.5976016519627865  0.547848209103091  1.0000
  H   H14       1.0  0.7639606952246695  0.7355007524467685  0.8996865897969056  1.0000
  H   H15       1.0  0.6987249256141626  0.6729986772241298  0.05371573727270551  1.0000
  Zn  Zn1       1.0  0.9854731725248747  0.5624841603819721  0.40779046245583195  1.0000
  Zn  Zn2       1.0  0.18170766712126304  0.5626818283428157  0.4075827751334562  1.0000
  C   C22       1.0  0.08384009887471434  0.5596106426517948  0.6709418797946993  1.0000
  C   C23       1.0  0.08334289538927275  0.5655571692783197  0.1444314954258641  1.0000
  C   C24       1.0  0.08526166588875753  0.8259058906661327  0.4017162130728351  1.0000
  C   C25       1.0  0.08192125046031884  0.29926018941357196  0.4136572405566723  1.0000
  O   O2        1.0  0.15788155055760844  0.5681198467052426  0.1980518811893277  1.0000
  O   O3        1.0  0.1582388771703247  0.5571968983599502  0.6171634501857443  1.0000
  O   O4        1.0  0.15938580823830018  0.7722336936661495  0.3997618192612016  1.0000
  O   O5        1.0  0.15673455247722345  0.35308306050956517  0.41545340410499665  1.0000
  O   O6        1.0  0.010446220203714104  0.7720829281492583  0.399919833547582  1.0000
  O   O7        1.0  0.009299300085448655  0.5570478646275042  0.6173213861264715  1.0000
  O   O8        1.0  0.00894197134277341  0.5679707444705835  0.19820808425960967  1.0000
  O   O9        1.0  0.007794973309597447  0.3529339490984199  0.4156097152474432  1.0000
