data_image0
_chemical_formula_structural       NC9NC5H8C6FH5C6FH3Zn2C4O8
_chemical_formula_sum              "N2 C30 H16 F2 Zn2 O8"
_cell_length_a       17.807436237873137
_cell_length_b       9.275642734913903
_cell_length_c       9.275646106892307
_cell_angle_alpha    84.86962330666421
_cell_angle_beta     89.39821068290671
_cell_angle_gamma    88.99238798493903

_space_group_name_H-M_alt    "P 1"
_space_group_IT_number       1

loop_
  _space_group_symop_operation_xyz
  'x, y, z'

loop_
  _atom_site_type_symbol
  _atom_site_label
  _atom_site_symmetry_multiplicity
  _atom_site_fract_x
  _atom_site_fract_y
  _atom_site_fract_z
  _atom_site_occupancy
  N   N1        1.0  0.7156259156258408  0.5579056355882577  0.39404772324430737  1.0000
  C   C1        1.0  0.6548222932113609  0.5189656955953332  0.38185608790198744  1.0000
  C   C2        1.0  0.5791892698549388  0.47052869873678155  0.3666910171967801  1.0000
  C   C3        1.0  0.5606457899810232  0.3924822674096815  0.25011481076664177  1.0000
  C   C4        1.0  0.4872093412678627  0.3453308648893536  0.23529886242181197  1.0000
  C   C5        1.0  0.43126534964015095  0.3758071130338474  0.3370236996255316  1.0000
  C   C6        1.0  0.3532220484096237  0.32582393289802014  0.3213692030963098  1.0000
  C   C7        1.0  0.2915477965075524  0.41628908112915064  0.35005750118682344  1.0000
  C   C8        1.0  0.21796780876697455  0.3689120864075971  0.33525710483856197  1.0000
  C   C9        1.0  0.1552599157418817  0.46236108764787276  0.36434523784335204  1.0000
  N   N2        1.0  0.1048557223461747  0.5374876065118076  0.38773129936030726  1.0000
  C   C10       1.0  0.20547695295237486  0.23078381279028348  0.2917406780965821  1.0000
  C   C11       1.0  0.2662937493055456  0.14030338401232112  0.2630430795236791  1.0000
  C   C12       1.0  0.3397518693441597  0.18724472663901648  0.2776190527189517  1.0000
  C   C13       1.0  0.4505032803239893  0.4543998331408549  0.4538427089388235  1.0000
  C   C14       1.0  0.5239914154963543  0.5013416886562068  0.468485995250296  1.0000
  H   H1        1.0  0.6028920526751443  0.36836728344032643  0.1704529724255337  1.0000
  H   H2        1.0  0.47395632225363876  0.2867111292562581  0.14323431164593536  1.0000
  H   H3        1.0  0.3006435004132788  0.5241605308543142  0.38198431495404056  1.0000
  H   H4        1.0  0.1488029315536751  0.19311970452087257  0.28002389749107137  1.0000
  H   H5        1.0  0.2565044983210295  0.033356706237322134  0.22978074827450953  1.0000
  H   H6        1.0  0.38598923086621656  0.11447483225281684  0.25656138880251533  1.0000
  H   H7        1.0  0.4089708272169926  0.4779009755312815  0.5349441510479378  1.0000
  H   H8        1.0  0.5377800463813355  0.561328967664172  0.5593908142071813  1.0000
  C   C15       1.0  0.9079219738944472  0.12426770091612573  0.3915477794209907  1.0000
  C   C16       1.0  0.8933653323056393  0.20973293931195894  0.261393653844441  1.0000
  C   C17       1.0  0.8858933603465051  0.1462319143100934  0.13156980195778267  1.0000
  C   C18       1.0  0.8929215141898513  0.9965921915337211  0.12960442815045448  1.0000
  C   C19       1.0  0.906120422227853  0.9096301931678903  0.2577615132243267  1.0000
  C   C20       1.0  0.9125667953871943  0.9711139651005972  0.39024365351473356  1.0000
  F   F1        1.0  0.872691811655198  0.23035363314448395  0.006937212852409889  1.0000
  H   H9        1.0  0.9855797911407072  0.19590598971052592  0.7126809659391131  1.0000
  H   H10       1.0  0.8895302684693421  0.32657917044999246  0.2596086767200221  1.0000
  H   H11       1.0  0.887422823054226  0.947494445417212  0.028749554938184648  1.0000
  H   H12       1.0  0.9095115693069243  0.793334627429799  0.25373967820670607  1.0000
  H   H13       1.0  0.9618512886667291  0.668772987212254  0.6083349674504233  1.0000
  C   C21       1.0  0.9101817201847682  0.5522084980334331  0.9670497515249864  1.0000
  C   C22       1.0  0.9790322688552706  0.5636713447978847  0.03797144024098542  1.0000
  C   C23       1.0  0.0468776143018852  0.5616439539482152  0.9614224153668532  1.0000
  C   C24       1.0  0.047063133391054286  0.54797338879968  0.8130629656934114  1.0000
  C   C25       1.0  0.9794026774375784  0.5388530002518954  0.7401865169195938  1.0000
  C   C26       1.0  0.9103070030974393  0.5431731952455457  0.8147416978542111  1.0000
  F   F2        1.0  0.1127203889651951  0.5712118308009393  0.031770252498979135  1.0000
  H   H14       1.0  0.7353856301259714  0.44419874099601864  0.08320919875777788  1.0000
  H   H15       1.0  0.09973340542648024  0.5458138338724106  0.7538920016537882  1.0000
  H   H16       1.0  0.7920048287407309  0.47642014091570495  0.5419215654804428  1.0000
  Zn  Zn1       1.0  0.8279492089571135  0.5520094970186868  0.3922332930267179  1.0000
  Zn  Zn2       1.0  0.9925323481048897  0.5433718649233075  0.38955761345637274  1.0000
  C   C27       1.0  0.9102501624079514  0.5391368664676883  0.6545186439121733  1.0000
  C   C28       1.0  0.9102332018965011  0.5562462189785292  0.1272723722146074  1.0000
  C   C29       1.0  0.9116840952575261  0.8111035063765342  0.3847386546028664  1.0000
  C   C30       1.0  0.9087992033957633  0.2842778488143507  0.39705244205519397  1.0000
  O   O1        1.0  0.9727088887007743  0.5543170880529382  0.180029150604478  1.0000
  O   O2        1.0  0.9726892639945658  0.5345091511501759  0.599730672829351  1.0000
  O   O3        1.0  0.9738463411573155  0.7541256805558272  0.38188143410343756  1.0000
  O   O4        1.0  0.9715517554175248  0.3347005730630235  0.39787828200722863  1.0000
  O   O5        1.0  0.8489297454803381  0.7606807918282212  0.38391262538134496  1.0000
  O   O6        1.0  0.8477726778046106  0.5410659956271529  0.6017617844814633  1.0000
  O   O7        1.0  0.8477923020286486  0.5608739007764305  0.18205852702288383  1.0000
  O   O8        1.0  0.8466351687017584  0.34125737432002956  0.3999077666542814  1.0000
