data_image0
_chemical_formula_structural       NC9NC5H8C6SCH8C6FH3Zn2C4O8
_chemical_formula_sum              "N2 C31 H19 S1 F1 Zn2 O8"
_cell_length_a       17.807436237873137
_cell_length_b       10.302809429070853
_cell_length_c       9.275646106892307
_cell_angle_alpha    84.95236572159425
_cell_angle_beta     89.39821068290671
_cell_angle_gamma    88.39000425637651

_space_group_name_H-M_alt    "P 1"
_space_group_IT_number       1

loop_
  _space_group_symop_operation_xyz
  'x, y, z'

loop_
  _atom_site_type_symbol
  _atom_site_label
  _atom_site_symmetry_multiplicity
  _atom_site_fract_x
  _atom_site_fract_y
  _atom_site_fract_z
  _atom_site_occupancy
  N   N1        1.0  0.7070810106143124  0.4027317387020841  0.3964467211469762  1.0000
  C   C1        1.0  0.6464909685867274  0.3676703790898866  0.3841951227155969  1.0000
  C   C2        1.0  0.5711236157097905  0.3240579090732102  0.36895546453139105  1.0000
  C   C3        1.0  0.5530082101215985  0.2537852277155764  0.2522590754529677  1.0000
  C   C4        1.0  0.479830380574126  0.211330301480839  0.23737051929854336  1.0000
  C   C5        1.0  0.4237192307825605  0.23877098824149748  0.33914228646625466  1.0000
  C   C6        1.0  0.3459500806409556  0.19376634124866837  0.3234108215112339  1.0000
  C   C7        1.0  0.28377963944421186  0.27522078352769563  0.3522384256649089  1.0000
  C   C8        1.0  0.2104595082125134  0.2325627350155666  0.3373650741206618  1.0000
  C   C9        1.0  0.14723905985622496  0.31670382610305575  0.36659710798366857  1.0000
  N   N2        1.0  0.0964228075059352  0.38434743045323194  0.3900988558150402  1.0000
  C   C10       1.0  0.1987262675900691  0.10819261336697861  0.293635945510778  1.0000
  C   C11       1.0  0.2600393370496774  0.02672441254729474  0.2647990173444055  1.0000
  C   C12       1.0  0.33323999007315547  0.06899020172963599  0.27944727488087184  1.0000
  C   C13       1.0  0.4425260908594437  0.30953554573884556  0.45608231965056545  1.0000
  C   C14       1.0  0.5157567562035466  0.351801796723995  0.470797891093022  1.0000
  H   H1        1.0  0.5953867402924305  0.23207219669535428  0.1725601027728825  1.0000
  H   H2        1.0  0.4668988830059663  0.15854933592779988  0.14521570078139567  1.0000
  H   H3        1.0  0.2922836828088238  0.3723477870975607  0.38433134922448914  1.0000
  H   H4        1.0  0.1422588288111084  0.07428000731913875  0.281861166452293  1.0000
  H   H5        1.0  0.2508366743552414  0.9304300697855847  0.2313720003467421  1.0000
  H   H6        1.0  0.3798764847782655  0.0034684922334269346  0.2582775535843076  1.0000
  H   H7        1.0  0.4008647371150776  0.3306958763607713  0.5372199508522777  1.0000
  H   H8        1.0  0.5292163648491097  0.40581409262988744  0.5617950836528003  1.0000
  C   C15       1.0  0.9017555152255755  0.012285950347170393  0.3932790241093238  1.0000
  C   C16       1.0  0.9450680692969784  0.01912243084191978  0.2655744741160384  1.0000
  C   C17       1.0  0.966412774723955  0.9055563192345224  0.2018726195161349  1.0000
  C   C18       1.0  0.9450679745534936  0.7839712781386735  0.2655743980937846  1.0000
  C   C19       1.0  0.9017554852799088  0.7747828132028962  0.3932790170206122  1.0000
  C   C20       1.0  0.8802914153480531  0.8895704474934182  0.456480182926371  1.0000
  S   S1        1.0  0.021889593810687332  0.9157733826048554  0.038877561323411365  1.0000
  C   C21       1.0  0.9404533011424298  0.9290586506646742  0.9210933531742543  1.0000
  H   H9        1.0  0.8854083952204269  0.33702639418993097  0.44137405942842456  1.0000
  H   H10       1.0  0.9622713493751581  0.11240474234107412  0.21484827036722587  1.0000
  H   H11       1.0  0.9622711835672065  0.6970543577606492  0.2148481605986632  1.0000
  H   H12       1.0  0.846870254358578  0.8833918585429769  0.5549697579933968  1.0000
  H   H13       1.0  0.8854071677449702  0.4440106993880092  0.4413724923209637  1.0000
  H   H14       1.0  0.9059816023613889  0.8410466789055332  0.940901394822891  1.0000
  H   H15       1.0  0.9059823058138424  0.017281612385201133  0.9409008586906888  1.0000
  H   H16       1.0  0.959828086355446  0.937178988031861  0.8066958500135764  1.0000
  C   C22       1.0  0.9016680632142842  0.3976020598015478  0.9694399764822769  1.0000
  C   C23       1.0  0.9704557396963007  0.4079231592347004  0.04037931668160044  1.0000
  C   C24       1.0  0.03831220511182477  0.40609770496672637  0.963827169855609  1.0000
  C   C25       1.0  0.03857270543090885  0.39378878510547644  0.8154466690630421  1.0000
  C   C26       1.0  0.9709622735944454  0.38557682528389076  0.742556175925755  1.0000
  C   C27       1.0  0.901842903559902  0.38946671084341467  0.8171180094704478  1.0000
  F   F1        1.0  0.1041025012443424  0.414712581392307  0.03418974043241652  1.0000
  H   H17       1.0  0.7274643922937969  0.30035052490439496  0.08543310094513835  1.0000
  H   H18       1.0  0.09125482233761505  0.3918443308530801  0.7562723795538764  1.0000
  H   H19       1.0  0.783906860819543  0.3293625390471455  0.5441950849675057  1.0000
  Zn  Zn1       1.0  0.8194366434807031  0.3974228801175912  0.39462321154502633  1.0000
  Zn  Zn2       1.0  0.984067158890618  0.3896455921929316  0.39193423100137004  1.0000
  C   C28       1.0  0.9018082015964152  0.38583241724103  0.656888740040096  1.0000
  C   C29       1.0  0.9016973985641639  0.4012376069055093  0.12966881480399217  1.0000
  C   C30       1.0  0.9017504336322575  0.6307100458685482  0.3875275484960916  1.0000
  C   C31       1.0  0.9017551103673784  0.15635842036330394  0.3990300842148786  1.0000
  O   O1        1.0  0.9641836663947438  0.39950062546348786  0.18242262255113673  1.0000
  O   O2        1.0  0.9642726855854711  0.38166564166408623  0.6020936428007935  1.0000
  O   O3        1.0  0.9642251953213729  0.5794074490647532  0.3845825886101941  1.0000
  O   O4        1.0  0.9642311004592742  0.20175883104269016  0.3999335694407713  1.0000
  O   O5        1.0  0.8392726457317301  0.5853096439233261  0.38662387401565046  1.0000
  O   O6        1.0  0.8393201359764545  0.38756939709283916  0.6041348512493926  1.0000
  O   O7        1.0  0.8392311164777203  0.4054043523015354  0.18446209571713235  1.0000
  O   O8        1.0  0.8392785505615018  0.20766254755636163  0.40197315081775686  1.0000
