data_image0
_chemical_formula_structural       NC9NC4H8C7F3H5C6SCNH5Zn2C4O8
_chemical_formula_sum              "N3 C31 H18 F3 S1 Zn2 O8"
_cell_length_a       16.32274767691083
_cell_length_b       9.272718291674593
_cell_length_c       10.30221893075029
_cell_angle_alpha    85.98261342229135
_cell_angle_beta     89.48597253194706
_cell_angle_gamma    89.10298441660798

_space_group_name_H-M_alt    "P 1"
_space_group_IT_number       1

loop_
  _space_group_symop_operation_xyz
  'x, y, z'

loop_
  _atom_site_type_symbol
  _atom_site_label
  _atom_site_symmetry_multiplicity
  _atom_site_fract_x
  _atom_site_fract_y
  _atom_site_fract_z
  _atom_site_occupancy
  N   N1        1.0  0.7645856678358733  0.5678926656863313  0.5679644527188044  1.0000
  C   C1        1.0  0.7124698384763067  0.5152330063885064  0.513324504454456  1.0000
  C   C2        1.0  0.6476890918061247  0.4498292995652493  0.4454612518686101  1.0000
  C   C3        1.0  0.6596151081438062  0.36036870089254514  0.35263210788833677  1.0000
  C   C4        1.0  0.580431650272107  0.3167114536683924  0.30733454786966385  1.0000
  C   C5        1.0  0.5212320510923445  0.380602827270753  0.37363397655231284  1.0000
  C   C6        1.0  0.4313650186460117  0.3637169109220604  0.35611516099453455  1.0000
  C   C7        1.0  0.375458388979826  0.43818643436205007  0.43338403534453995  1.0000
  C   C8        1.0  0.2908100868973579  0.42375491880448213  0.4184113471532116  1.0000
  C   C9        1.0  0.2344819799098137  0.5005137724817794  0.49805484142771905  1.0000
  N   N2        1.0  0.18921317595012102  0.5622152599372127  0.5620747241877679  1.0000
  C   C10       1.0  0.2610158788034704  0.3347334396013093  0.3260454441524285  1.0000
  C   C11       1.0  0.3156001785951863  0.26036255643011996  0.24887925927347276  1.0000
  C   C12       1.0  0.40009130645135693  0.2744053536882983  0.26344849588279873  1.0000
  C   C13       1.0  0.5585973820194137  0.4737635045447713  0.4702999033611485  1.0000
  H   H1        1.0  0.7186677930250754  0.3255816930114178  0.3165329739793912  1.0000
  H   H2        1.0  0.5724415005793813  0.2435954179011464  0.23146521950681762  1.0000
  H   H3        1.0  0.3972807787020918  0.5076827063208831  0.505491300565601  1.0000
  H   H4        1.0  0.19567373958656684  0.3228448604249491  0.313711279244254  1.0000
  H   H5        1.0  0.2923791135253859  0.19149614291293093  0.17742577361772113  1.0000
  H   H6        1.0  0.4401208561149803  0.2149134343236716  0.2017209094053516  1.0000
  H   H7        1.0  0.5420046865510617  0.43517280083970755  0.5715122280511971  1.0000
  H   H8        1.0  0.5413263748643231  0.5893015223592474  0.4489323165042378  1.0000
  C   C14       1.0  0.9786871221515644  0.14164772366380785  0.5621267680142579  1.0000
  C   C15       1.0  0.9287248178484055  0.22363985104247308  0.47309439972451295  1.0000
  C   C16       1.0  0.8729671046896134  0.1568638420868098  0.39438667498714186  1.0000
  C   C17       1.0  0.8693426245714182  0.005622658395752375  0.40202745964664466  1.0000
  C   C18       1.0  0.9193656127717964  0.9226710138052612  0.4882495309576591  1.0000
  C   C19       1.0  0.9751196079150203  0.988448950142602  0.5679234991950411  1.0000
  C   C20       1.0  0.8215128067608775  0.2464743038878412  0.2971151907006018  1.0000
  F   F1        1.0  0.800468748923517  0.3781688652420252  0.34459257985152547  1.0000
  F   F2        1.0  0.7499855006833795  0.1760336948454311  0.2709817697822279  1.0000
  F   F3        1.0  0.8656897026943536  0.2706803517301499  0.18277413553759334  1.0000
  H   H9        1.0  0.07602926098764273  0.21900351407912225  0.840973302708551  1.0000
  H   H10       1.0  0.93199408633114  0.34056574302896014  0.46700624711902994  1.0000
  H   H11       1.0  0.8283760037571481  0.9510857837399256  0.34016178239132877  1.0000
  H   H12       1.0  0.9160218746673138  0.8059464079555725  0.4900427433319176  1.0000
  H   H13       1.0  0.15104272486263537  0.8701630543345389  0.7217488977951888  1.0000
  C   C21       1.0  0.9768266935440122  0.5651168949518974  0.18375146697810973  1.0000
  C   C22       1.0  0.0542790429827271  0.4969038901484533  0.18599991205797625  1.0000
  C   C23       1.0  0.09278472924636283  0.4625083386464044  0.07013889327125611  1.0000
  C   C24       1.0  0.05447957699664215  0.4967226468537269  0.9508416717834043  1.0000
  C   C25       1.0  0.9769800362141073  0.5649797722667708  0.9462987541202049  1.0000
  C   C26       1.0  0.9385654682208255  0.5987495648477503  0.06331374332627382  1.0000
  S   S1        1.0  0.19179151698138552  0.3759926803429652  0.07444944059773673  1.0000
  C   C27       1.0  0.14967543043413434  0.20137313318104066  0.08610738834525833  1.0000
  N   N3        1.0  0.12203996703111762  0.08690227325939115  0.09375054058752008  1.0000
  H   H14       1.0  0.947361318450823  0.5911443583080895  0.5102261811957061  1.0000
  H   H15       1.0  0.08496913370963433  0.4699621808842574  0.27746599488117174  1.0000
  H   H16       1.0  0.08530711955703696  0.4696566387568697  0.8620377963903336  1.0000
  H   H17       1.0  0.8788293350373054  0.6513383431111966  0.060732810664768655  1.0000
  H   H18       1.0  0.830940121196752  0.6937757615154203  0.7305088551978741  1.0000
  Zn  Zn1       1.0  0.8871240182368086  0.5662504178944682  0.5662722759149634  1.0000
  Zn  Zn2       1.0  0.06667488370654229  0.5638456741569489  0.5637774565214666  1.0000
  C   C28       1.0  0.9769734326350538  0.5592617676402214  0.8021216975736348  1.0000
  C   C29       1.0  0.9768274223594928  0.5708361173686543  0.32792814750747157  1.0000
  C   C30       1.0  0.9757886976379445  0.8283864850454865  0.561653939216272  1.0000
  C   C31       1.0  0.978012103400351  0.30170966848108616  0.5683959640792628  1.0000
  O   O1        1.0  0.044966311165510975  0.5718366626810356  0.37536834454607576  1.0000
  O   O2        1.0  0.04510950070362063  0.5564349898256373  0.7527876091430767  1.0000
  O   O3        1.0  0.04415189394078655  0.7737566147363473  0.5586082159459587  1.0000
  O   O4        1.0  0.04592385659676568  0.35451504892266383  0.569547641314769  1.0000
  O   O5        1.0  0.9078749840746787  0.775581043950945  0.560502091966202  1.0000
  O   O6        1.0  0.9088325835218565  0.558261151344731  0.754681427793433  1.0000
  O   O7        1.0  0.908689393935979  0.5736627742356701  0.3772606018410964  1.0000
  O   O8        1.0  0.9096469394269067  0.3563411501471523  0.5714399958827558  1.0000
