data_image0
_chemical_formula_structural       NC12NC2H8C7OC6OCH12C7OC3OC4H12Zn2C4O8
_chemical_formula_sum              "N2 C46 H32 O12 Zn2"
_cell_length_a       19.240039667572717
_cell_length_b       10.299359160628079
_cell_length_c       10.299374482448634
_cell_angle_alpha    85.55316158380268
_cell_angle_beta     89.98179719486372
_cell_angle_gamma    90.02126226386561

_space_group_name_H-M_alt    "P 1"
_space_group_IT_number       1

loop_
  _space_group_symop_operation_xyz
  'x, y, z'

loop_
  _atom_site_type_symbol
  _atom_site_label
  _atom_site_symmetry_multiplicity
  _atom_site_fract_x
  _atom_site_fract_y
  _atom_site_fract_z
  _atom_site_occupancy
  N   N1        1.0  0.6550031376150329  0.42164971890903913  0.5675932043182945  1.0000
  C   C1        1.0  0.5948547688283723  0.4216498029118485  0.5675931223898789  1.0000
  C   C2        1.0  0.5200367317338638  0.4216499202331143  0.5675929850963004  1.0000
  C   C3        1.0  0.4835326209598609  0.35715837955892993  0.6709998342432857  1.0000
  C   C4        1.0  0.4108618361125819  0.3570474749734496  0.6710863643836757  1.0000
  C   C5        1.0  0.37370449685365104  0.4216500128548931  0.5675927574192347  1.0000
  C   C6        1.0  0.4109228359859817  0.486252737680629  0.4640993450278539  1.0000
  C   C7        1.0  0.48359348763480803  0.4861415975607993  0.46418599764089574  1.0000
  C   C8        1.0  0.2964994064146307  0.4216499342146669  0.5675926619895391  1.0000
  C   C9        1.0  0.2592819771784081  0.30837644171452205  0.6094491851528466  1.0000
  C   C10       1.0  0.1866113255640948  0.3084833663284894  0.609357871307751  1.0000
  C   C11       1.0  0.1501671194554139  0.4216498050241453  0.5675927228840802  1.0000
  C   C12       1.0  0.0753490822355672  0.42164969121906354  0.5675929715378512  1.0000
  N   N2        1.0  0.015200765339903699  0.42164965034465035  0.5675931799588525  1.0000
  C   C13       1.0  0.1866704242274052  0.5348163195618798  0.5258275215782969  1.0000
  C   C14       1.0  0.2593411572785446  0.5349234243399972  0.5257360451578641  1.0000
  H   H1        1.0  0.5112238377521109  0.30722746380916477  0.7517370228972258  1.0000
  H   H2        1.0  0.3837448489397707  0.30791439597969705  0.7529392094842962  1.0000
  H   H3        1.0  0.3838532923846881  0.5353858437396315  0.3822464490807682  1.0000
  H   H4        1.0  0.5113320422388072  0.5360724129796155  0.3834490847781611  1.0000
  H   H5        1.0  0.28635224058914777  0.21921147062950563  0.6406055400282387  1.0000
  H   H6        1.0  0.1588734746996632  0.22021734914428961  0.6415473536885744  1.0000
  H   H7        1.0  0.1589784516366978  0.6230823122051541  0.4936380537450187  1.0000
  H   H8        1.0  0.28645737270835836  0.6240884746142372  0.4945796455203382  1.0000
  C   C15       1.0  0.8350235066710834  0.040271411900423715  0.5675616859658836  1.0000
  C   C16       1.0  0.777550942410762  0.045571831478527176  0.48316220154039863  1.0000
  C   C17       1.0  0.7490617754680903  0.931260869318049  0.4395002403797803  1.0000
  C   C18       1.0  0.7777164534833773  0.810310259485838  0.48341731545075084  1.0000
  C   C19       1.0  0.8351870738523363  0.8030179420319247  0.5676359345896922  1.0000
  C   C20       1.0  0.8636056496453423  0.9185849916618855  0.609012303122664  1.0000
  C   C21       1.0  0.6878935003049339  0.9389938105886326  0.3515641146953929  1.0000
  O   O1        1.0  0.6437238841814951  0.027863828094204075  0.3631310009633537  1.0000
  C   C22       1.0  0.676831349876216  0.8459792209125089  0.25051358251520117  1.0000
  C   C23       1.0  0.7333737905880626  0.7926451682551034  0.18645647948722144  1.0000
  C   C24       1.0  0.7222188681387335  0.7062807220352199  0.09037178822369452  1.0000
  C   C25       1.0  0.6547050224290819  0.6723744345020386  0.05560805251720712  1.0000
  C   C26       1.0  0.5979288613009044  0.7267435659420243  0.11835335722284855  1.0000
  C   C27       1.0  0.6090202216155978  0.813166890800565  0.21448447138068172  1.0000
  O   O2        1.0  0.6463034572488245  0.5851697864779448  0.9587068428076523  1.0000
  C   C28       1.0  0.580813739330266  0.5423357147539248  0.9138374256104104  1.0000
  H   H9        1.0  0.9432924529499165  0.23750731954935708  0.7272417458169904  1.0000
  H   H10       1.0  0.7552041579073168  0.13890750548023956  0.4501764296005042  1.0000
  H   H11       1.0  0.7546487880875454  0.7216801296710595  0.4529649445419681  1.0000
  H   H12       1.0  0.9079381054191406  0.9136918617974755  0.6739829766729166  1.0000
  H   H13       1.0  0.8570554031237766  0.4727149794023451  0.6003550330589675  1.0000
  H   H14       1.0  0.7862103592400864  0.8187278182922003  0.2095882860787552  1.0000
  H   H15       1.0  0.7663362207609031  0.6658441634522594  0.04218907169594676  1.0000
  H   H16       1.0  0.5450635258707046  0.7029382865289812  0.09357688559967126  1.0000
  H   H17       1.0  0.5645146070415757  0.8535578985966945  0.2616163951853272  1.0000
  H   H18       1.0  0.589502655355962  0.4739579672156681  0.8373603112660297  1.0000
  H   H19       1.0  0.5502808949130734  0.6266937942894465  0.8713261265055605  1.0000
  H   H20       1.0  0.5516243150758163  0.49074749197487705  0.9953756024348799  1.0000
  C   C29       1.0  0.8351696903651258  0.4217321911701284  0.18621626219583828  1.0000
  C   C30       1.0  0.9077704560097509  0.4363968483595617  0.18384630309140745  1.0000
  C   C31       1.0  0.9443007931244168  0.44526471752269736  0.0653633167647407  1.0000
  C   C32       1.0  0.9076043118002249  0.4363329761043247  0.9486074461550551  1.0000
  C   C33       1.0  0.8350408727727088  0.42155719402118097  0.9489812726030564  1.0000
  C   C34       1.0  0.7992238367363914  0.41468333546437397  0.06829192758132561  1.0000
  C   C35       1.0  0.021043465686917392  0.45939103499094514  0.062825665431403  1.0000
  O   O3        1.0  0.05513051178975469  0.4058477568648926  0.9769733193282603  1.0000
  C   C36       1.0  0.05911316441067038  0.5342741455271094  0.15760076735966866  1.0000
  C   C37       1.0  0.12691459646449044  0.4975554470042418  0.195761465793872  1.0000
  C   C38       1.0  0.16405380312013262  0.5678211222632075  0.28397163444242834  1.0000
  O   O4        1.0  0.23128964068957322  0.5259279481316244  0.3192607849423978  1.0000
  C   C39       1.0  0.2748492701357337  0.5878000630390947  0.4076591237180347  1.0000
  C   C40       1.0  0.13300765135511436  0.677210259043663  0.3338969375234695  1.0000
  C   C41       1.0  0.06601798286223426  0.7152622011056478  0.2952258143933204  1.0000
  C   C42       1.0  0.0292798738148754  0.6447635112132617  0.20725665555813544  1.0000
  H   H21       1.0  0.6982814981396397  0.39207060536020655  0.39816439937139436  1.0000
  H   H22       1.0  0.9360783433649553  0.43948890094148135  0.27443787954189625  1.0000
  H   H23       1.0  0.9357524621180356  0.44218868665755545  0.8572143989223923  1.0000
  H   H24       1.0  0.7432539505412731  0.4033771047410657  0.06931527737609544  1.0000
  H   H25       1.0  0.8072305456870925  0.41479747838787295  0.621751840099551  1.0000
  H   H26       1.0  0.15099989524433788  0.41324141796599984  0.1578747494752637  1.0000
  H   H27       1.0  0.32486711342615177  0.5344416314613518  0.4176126101472677  1.0000
  H   H28       1.0  0.24975148667676184  0.585999087693541  0.5048936575584995  1.0000
  H   H29       1.0  0.28555647314788857  0.6898081436334017  0.37000750557187123  1.0000
  H   H30       1.0  0.16025562102477783  0.7336492761143996  0.4020933750048421  1.0000
  H   H31       1.0  0.04258553491491246  0.8000652909908251  0.3331415092049539  1.0000
  H   H32       1.0  0.9778915312256031  0.6774910450321512  0.17703567861021496  1.0000
  Zn  Zn1       1.0  0.7589483994427987  0.4216462301175739  0.5676006856444956  1.0000
  Zn  Zn2       1.0  0.9112555182216491  0.42164254296426273  0.5675962968801334  1.0000
  C   C43       1.0  0.8350625686111112  0.4164164765810727  0.8048018856321489  1.0000
  C   C44       1.0  0.8351430125721968  0.42687393509107263  0.3303952244749817  1.0000
  C   C45       1.0  0.835153446118664  0.6588438343198821  0.5624465104454394  1.0000
  C   C46       1.0  0.8350520827465864  0.18444501699674778  0.5727506687524844  1.0000
  O   O5        1.0  0.8929338158675785  0.4285924861853607  0.3787813352425098  1.0000
  O   O6        1.0  0.8928693441750831  0.4146941473619461  0.7564120699393202  1.0000
  O   O7        1.0  0.8929419495153055  0.6104573043574859  0.560708389925396  1.0000
  O   O8        1.0  0.89286115857369  0.23282933850386803  0.5744849178806921  1.0000
  O   O9        1.0  0.7773427071158147  0.6104594345806416  0.5607120646386037  1.0000
  O   O10       1.0  0.7772701021187068  0.41469783794329046  0.7564156755564013  1.0000
  O   O11       1.0  0.7773345741114064  0.4285961318678389  0.3787833793987667  1.0000
  O   O12       1.0  0.7772619167962409  0.23283297487497182  0.5744870594073583  1.0000
