data_image0
_chemical_formula_structural       NC9NC3NH7C6NO2H5C8NH11Zn2C4O8
_chemical_formula_sum              "N5 C30 H23 O10 Zn2"
_cell_length_a       16.053384444249904
_cell_length_b       9.273392599741053
_cell_length_c       9.27565297233854
_cell_angle_alpha    86.06806642986213
_cell_angle_beta     90.23845156290304
_cell_angle_gamma    88.5803697124526

_space_group_name_H-M_alt    "P 1"
_space_group_IT_number       1

loop_
  _space_group_symop_operation_xyz
  'x, y, z'

loop_
  _atom_site_type_symbol
  _atom_site_label
  _atom_site_symmetry_multiplicity
  _atom_site_fract_x
  _atom_site_fract_y
  _atom_site_fract_z
  _atom_site_occupancy
  N   N1        1.0  0.7681982746582187  0.5489859752734745  0.4102451514562937  1.0000
  C   C1        1.0  0.7172247255792735  0.525326060441272  0.3271260215631142  1.0000
  C   C2        1.0  0.653878680938011  0.4959285046704285  0.2238717863491213  1.0000
  C   C3        1.0  0.6669528130060034  0.48156433260216014  0.07875011941326693  1.0000
  C   C4        1.0  0.590247947198425  0.45305353345421534  0.020695766462537565  1.0000
  C   C5        1.0  0.5336504512250614  0.45160962284141415  0.133529891395608  1.0000
  C   C6        1.0  0.44310765031822236  0.4250762785109005  0.12209989577066828  1.0000
  C   C7        1.0  0.3873753721333446  0.47320010911122345  0.22642476203334616  1.0000
  C   C8        1.0  0.3019303526293227  0.4480350060624103  0.21547752896443725  1.0000
  C   C9        1.0  0.24541770677431188  0.49811411085729507  0.3224390521866418  1.0000
  N   N2        1.0  0.1999981722696301  0.5383706382399469  0.40841936793479494  1.0000
  C   C10       1.0  0.2714923919001572  0.37462178868774254  0.10022037422866846  1.0000
  C   C11       1.0  0.3262163317591689  0.3266323529594666  0.9961307156039805  1.0000
  C   C12       1.0  0.4114545968731509  0.3516105010961543  0.0066374049022242  1.0000
  N   N3        1.0  0.5732182196976685  0.47793527639929856  0.2573932849043783  1.0000
  H   H1        1.0  0.725383664397926  0.49078073776007364  0.021485744614140993  1.0000
  H   H2        1.0  0.5775967213512971  0.4370205330745516  0.9083743139283343  1.0000
  H   H3        1.0  0.40972464039968315  0.532046573985741  0.31511504311035865  1.0000
  H   H4        1.0  0.2055494538585009  0.35460455347451453  0.09081809569334798  1.0000
  H   H5        1.0  0.3025646887420554  0.26960773092080953  0.9071848760795307  1.0000
  H   H6        1.0  0.4524603239117826  0.3117099567907177  0.925258452299857  1.0000
  H   H7        1.0  0.5474808596067895  0.48123861047528105  0.3603465417370914  1.0000
  C   C13       1.0  0.9866381607927762  0.1200811988211534  0.40841512748123265  1.0000
  C   C14       1.0  0.9754561043523255  0.20281617439651511  0.27679573084757947  1.0000
  C   C15       1.0  0.956941927025692  0.1373214091593646  0.14998494187971678  1.0000
  C   C16       1.0  0.9489997764372822  0.9871089535355995  0.15125672145502642  1.0000
  C   C17       1.0  0.9614771292758636  0.9031670003208546  0.28186553205074194  1.0000
  C   C18       1.0  0.9815663626632433  0.9672642079419446  0.410261746512156  1.0000
  N   N4        1.0  0.9291707473832812  0.9202006369723652  0.020225058488270605  1.0000
  O   O1        1.0  0.9176825815373689  0.0027197866538954995  0.8923100415717373  1.0000
  O   O2        1.0  0.921834647547782  0.7864492846499697  0.020486186468673163  1.0000
  H   H8        1.0  0.9712067047395768  0.1993224099734445  0.7622409890830222  1.0000
  H   H9        1.0  0.979079981563525  0.31954079228860066  0.27252188662425997  1.0000
  H   H10       1.0  0.9479983150066722  0.20479160119470216  0.050958548325726216  1.0000
  H   H11       1.0  0.9574571837962805  0.7866705841645038  0.2829085336173036  1.0000
  H   H12       1.0  0.9740189940076089  0.6709743814335732  0.6493794832486679  1.0000
  C   C19       1.0  0.982264231125245  0.5409069108229927  0.9860694306767702  1.0000
  C   C20       1.0  0.9276562721387754  0.6365924231858462  0.052650745540131494  1.0000
  C   C21       1.0  0.8795766986975516  0.740533552127901  0.9703754175966987  1.0000
  C   C22       1.0  0.8849879400404935  0.7474271529656451  0.81958230139325  1.0000
  C   C23       1.0  0.9377609947266672  0.651850950720787  0.751600806097775  1.0000
  C   C24       1.0  0.9859403155690811  0.5464385391193347  0.8326074649032704  1.0000
  C   C25       1.0  0.8205071603896151  0.8406571665654898  0.04338152224091041  1.0000
  C   C26       1.0  0.735259849270873  0.7722837071394785  0.06437749110855528  1.0000
  N   N5        1.0  0.6781656860896257  0.8711552593914056  0.13303681555845093  1.0000
  H   H13       1.0  0.04461849645264837  0.3250891894514787  0.2819512841761438  1.0000
  H   H14       1.0  0.9237170423924109  0.632676574118979  0.16948628625561413  1.0000
  H   H15       1.0  0.8475774193842844  0.8260326018175802  0.7543246797168597  1.0000
  H   H16       1.0  0.9392281883595576  0.6580091508644494  0.6345880758387987  1.0000
  H   H17       1.0  0.10099378606871912  0.4115118613594379  0.5613562034256265  1.0000
  H   H18       1.0  0.8464486191612011  0.8653618559198389  0.1500407417680476  1.0000
  H   H19       1.0  0.8132133176503403  0.944964092674483  0.977327235334048  1.0000
  H   H20       1.0  0.7093553039235976  0.7487369379304551  0.9573034581320642  1.0000
  H   H21       1.0  0.741759946481421  0.6688260708671314  0.13232009778456622  1.0000
  H   H22       1.0  0.6196063309089487  0.8241616682420045  0.13758289030434345  1.0000
  H   H23       1.0  0.6976330290178862  0.8778955408618067  0.24008998434814566  1.0000
  Zn  Zn1       1.0  0.8928064545911344  0.5459188256138603  0.4097265774441045  1.0000
  Zn  Zn2       1.0  0.07539009038782797  0.5414261129318599  0.4089496967412207  1.0000
  C   C27       1.0  0.9852779789960515  0.5396464321642704  0.6725811387211722  1.0000
  C   C28       1.0  0.9829205495087783  0.5477002783059609  0.14609527241881204  1.0000
  C   C29       1.0  0.9824958080828416  0.8070911864979622  0.4041689835366591  1.0000
  C   C30       1.0  0.9857026688279713  0.2802537929359672  0.4145075009364685  1.0000
  O   O3        1.0  0.05243039187071986  0.548268940345928  0.19950657086616652  1.0000
  O   O4        1.0  0.05434489621899319  0.535666814236665  0.6185797885044866  1.0000
  O   O5        1.0  0.05209733047334231  0.7516318684387551  0.4018350813762266  1.0000
  O   O6        1.0  0.05467789478186447  0.33230389728961196  0.4162511702090219  1.0000
  O   O7        1.0  0.9135185878902212  0.7550410427907714  0.4024251042338365  1.0000
  O   O8        1.0  0.9157661429230124  0.5390777211596454  0.6191697382864862  1.0000
  O   O9        1.0  0.9138516314058246  0.5516797856767082  0.20009478759024923  1.0000
  O   O10       1.0  0.9160991348445987  0.3357147330092804  0.41683949497604234  1.0000
