data_image0
_chemical_formula_structural       NC6NC3H6C7NH3C9H9Zn2C4O8
_chemical_formula_sum              "N3 C29 H18 Zn2 O8"
_cell_length_a       14.934028789175542
_cell_length_b       9.275154477615127
_cell_length_c       10.297187173949778
_cell_angle_alpha    85.79368962705624
_cell_angle_beta     89.94921482241688
_cell_angle_gamma    89.3962875590186

_space_group_name_H-M_alt    "P 1"
_space_group_IT_number       1

loop_
  _space_group_symop_operation_xyz
  'x, y, z'

loop_
  _atom_site_type_symbol
  _atom_site_label
  _atom_site_symmetry_multiplicity
  _atom_site_fract_x
  _atom_site_fract_y
  _atom_site_fract_z
  _atom_site_occupancy
  N   N1        1.0  0.833952339706332  0.5768539974189791  0.572342327079562  1.0000
  C   C1        1.0  0.7564731993421686  0.5757560215065785  0.5717266779907058  1.0000
  C   C2        1.0  0.6600852751252438  0.5743850911804871  0.5709581535064134  1.0000
  C   C3        1.0  0.6116519666073742  0.6811540478788898  0.6307149279122622  1.0000
  C   C4        1.0  0.5181471566910074  0.6800532868134135  0.6300987336912942  1.0000
  C   C5        1.0  0.4721627638905216  0.5722380562256026  0.5697564413048135  1.0000
  C   C6        1.0  0.3755024635124776  0.5745513410236026  0.57105231266908  1.0000
  N   N2        1.0  0.2980108104529633  0.5763872242008963  0.5720810458586922  1.0000
  C   C7        1.0  0.5205997814586729  0.46399197429810796  0.5091724449467394  1.0000
  C   C8        1.0  0.47301992071813237  0.3467744076095789  0.4435689391104347  1.0000
  C   C9        1.0  0.6147286031975793  0.4662159574224265  0.5104172177952118  1.0000
  H   H1        1.0  0.6461677569264098  0.7652780819679403  0.6777982542436916  1.0000
  H   H2        1.0  0.48158707195941536  0.7635294438045419  0.676819324256541  1.0000
  H   H3        1.0  0.42999400370104257  0.3958220928970322  0.363897820686681  1.0000
  H   H4        1.0  0.43063843078836744  0.28395335330672156  0.5155373453655776  1.0000
  H   H5        1.0  0.5209557283365213  0.27085090041906446  0.4010700209116942  1.0000
  H   H6        1.0  0.6527747714904488  0.3838502821908847  0.4643184074622746  1.0000
  C   C10       1.0  0.06857753182223679  0.15322848855589075  0.5707070731436491  1.0000
  C   C11       1.0  0.04403451059585262  0.23641661048616358  0.4561911443552577  1.0000
  C   C12       1.0  0.012206184465756604  0.17039537992135623  0.3477461291673747  1.0000
  C   C13       1.0  0.004396653486826276  0.020283365075568927  0.3525399516767544  1.0000
  C   C14       1.0  0.029770404429642072  0.9358863757579192  0.46444479831008434  1.0000
  C   C15       1.0  0.06339429138031272  1.632722526064265e-06  0.5737275121205503  1.0000
  C   C16       1.0  0.9864722931805054  0.25716632341730494  0.23185048879404513  1.0000
  N   N3        1.0  0.965789383487342  0.3269142528239788  0.13870008002708234  1.0000
  H   H7        1.0  0.08584053682081991  0.22992575185981146  0.8895464134861067  1.0000
  H   H8        1.0  0.9794574597056492  0.9681704842519238  0.26919341526951923  1.0000
  H   H9        1.0  0.07881812315408965  0.7012450661257738  0.7873567676200821  1.0000
  C   C17       1.0  0.0661046074901745  0.5765628131035709  0.19076386706995607  1.0000
  C   C18       1.0  0.9751172173653662  0.6162556153706887  0.18747430994914582  1.0000
  C   C19       1.0  0.9285016971081858  0.6365911660941237  0.06917256824480433  1.0000
  C   C20       1.0  0.9747645089146585  0.6164089311052678  0.9522523285475977  1.0000
  C   C21       1.0  0.06586721950680485  0.5766673128766069  0.9536706819643486  1.0000
  C   C22       1.0  0.11094234311433879  0.5570023608138558  0.07331667854266155  1.0000
  C   C23       1.0  0.8300922787537075  0.6795214737166384  0.07504684607933587  1.0000
  C   C24       1.0  0.7677580599599775  0.6215931778194388  0.9746034474884029  1.0000
  C   C25       1.0  0.7934113979242667  0.7806286522252199  0.9640563218305047  1.0000
  H   H10       1.0  0.9399911593913538  0.6315795759605058  0.27762671987794785  1.0000
  H   H11       1.0  0.9406131779074015  0.6313039715548989  0.8597174145405178  1.0000
  H   H12       1.0  0.18114085443245662  0.5263778130244028  0.07512729126078699  1.0000
  H   H13       1.0  0.23793130369012538  0.5015881406641349  0.7491343397145611  1.0000
  H   H14       1.0  0.798462011479945  0.6933212194242999  0.17119100092975326  1.0000
  H   H15       1.0  0.7984812025263853  0.5564868394305833  0.8998292678127723  1.0000
  H   H16       1.0  0.6982829624299745  0.6021545521118901  0.009691626685237821  1.0000
  H   H17       1.0  0.8397179808370417  0.8121274876354942  0.8828762675449723  1.0000
  H   H18       1.0  0.7389287455573894  0.8541396941440285  0.9929777553767092  1.0000
  Zn  Zn1       1.0  0.9678696249796304  0.5767154342130938  0.5722744086949977  1.0000
  Zn  Zn2       1.0  0.16409362423360208  0.5765139785104427  0.5721595421833134  1.0000
  C   C26       1.0  0.0659452436077641  0.5709037708971662  0.8094444685697494  1.0000
  C   C27       1.0  0.06602013719025202  0.5823274588236411  0.3349896150378413  1.0000
  C   C28       1.0  0.06437103197802505  0.8399427602780304  0.567980237153058  1.0000
  C   C29       1.0  0.0675942924442034  0.3132867372880854  0.5764539095689054  1.0000
  O   O1        1.0  0.14045781177536498  0.5841793851470904  0.38334947989547397  1.0000
  O   O2        1.0  0.1404370509163619  0.568897856627067  0.7609970448790212  1.0000
  O   O3        1.0  0.1391648508593306  0.7861502442300812  0.566012975545588  1.0000
  O   O4        1.0  0.14172994484161155  0.36692700791339816  0.5783334519086525  1.0000
  O   O5        1.0  0.9902332374099932  0.7863024048804539  0.5661004990020302  1.0000
  O   O6        1.0  0.9915054268811839  0.5690517495024474  0.7610845052534623  1.0000
  O   O7        1.0  0.9915261885932606  0.5843332275658089  0.3834353783440576  1.0000
  O   O8        1.0  0.9927983216886642  0.3670808400331105  0.5784194477098625  1.0000
