data_image0
_chemical_formula_structural       NC5N2C2NH4C10H6C6NCH7Zn2C4O8
_chemical_formula_sum              "N5 C28 H17 Zn2 O8"
_cell_length_a       13.87973921873968
_cell_length_b       9.275150299802176
_cell_length_c       9.274690524155616
_cell_angle_alpha    85.73181374548483
_cell_angle_beta     89.68736137004737
_cell_angle_gamma    89.48389152441209

_space_group_name_H-M_alt    "P 1"
_space_group_IT_number       1

loop_
  _space_group_symop_operation_xyz
  'x, y, z'

loop_
  _atom_site_type_symbol
  _atom_site_label
  _atom_site_symmetry_multiplicity
  _atom_site_fract_x
  _atom_site_fract_y
  _atom_site_fract_z
  _atom_site_occupancy
  N   N1        1.0  0.9036417394177735  0.5651129701344816  0.40131300800603054  1.0000
  C   C1        1.0  0.8305947905902392  0.5891656548556956  0.3445460369238673  1.0000
  C   C2        1.0  0.7398731614540658  0.6190414358270022  0.27403532584804613  1.0000
  C   C3        1.0  0.6533469916534149  0.5889699659560865  0.3473939449845833  1.0000
  C   C4        1.0  0.5669937605415144  0.6190413715176966  0.2740353661100947  1.0000
  C   C5        1.0  0.47611767010364875  0.5891655091892678  0.3445459345372446  1.0000
  N   N2        1.0  0.4029463084589979  0.5651129454042684  0.40131299715437185  1.0000
  N   N3        1.0  0.5687932218476165  0.6764980391336299  0.13497257664643914  1.0000
  C   C6        1.0  0.6536665976016857  0.7065305512314697  0.06565690600450114  1.0000
  C   C7        1.0  0.6538720876240244  0.7657327299241263  0.911593182180528  1.0000
  N   N4        1.0  0.7383961207494003  0.6764979925428138  0.13497258766003717  1.0000
  H   H1        1.0  0.6532191402293678  0.5429944206836141  0.4583692767304166  1.0000
  H   H2        1.0  0.7185494967144692  0.8334396863958664  0.8888164456796884  1.0000
  H   H3        1.0  0.6546798104751628  0.6751193593380859  0.8398962519697917  1.0000
  H   H4        1.0  0.588544691608709  0.833437615058777  0.8888156915126295  1.0000
  C   C8        1.0  0.1558318017156881  0.1414284572886546  0.403725823595928  1.0000
  C   C9        1.0  0.20690151907021703  0.22252957581716792  0.29468805459775615  1.0000
  C   C10       1.0  0.24972911536072373  0.1553807473307476  0.18010912839380389  1.0000
  C   C11       1.0  0.24192273594259106  0.006152038319086499  0.173092142449923  1.0000
  C   C12       1.0  0.19295881410302052  0.9236014298621121  0.28148217167633804  1.0000
  C   C13       1.0  0.15076544704398231  0.9887864153908015  0.3989127271294193  1.0000
  C   C14       1.0  0.300819752262683  0.24020226076449336  0.06857832178117418  1.0000
  C   C15       1.0  0.34359550881538037  0.31124289018855866  0.9752037905113645  1.0000
  C   C16       1.0  0.3936839357048307  0.3944364444820055  0.8658662866586329  1.0000
  C   C17       1.0  0.43645144492555565  0.4654717478601047  0.7725096546301407  1.0000
  H   H5        1.0  0.10930015152067285  0.40574823496199586  0.632591921940906  1.0000
  H   H6        1.0  0.2115223858398252  0.33899735762936617  0.29691456654048043  1.0000
  H   H7        1.0  0.2745469445566171  0.9532336648249243  0.08443212731341188  1.0000
  H   H8        1.0  0.19003536652110564  0.8075471034306418  0.2752597961404284  1.0000
  H   H9        1.0  0.08689517997714935  0.8613020114380037  0.7413457936495593  1.0000
  H   H10       1.0  0.47400488533155394  0.5278467764019126  0.690534820942696  1.0000
  C   C18       1.0  0.1548633953915637  0.5614135096947406  0.9780929610314404  1.0000
  C   C19       1.0  0.2327661955946925  0.6238251390259368  0.0464758280034101  1.0000
  C   C20       1.0  0.3056491306257896  0.6971636591384223  0.9655614593307842  1.0000
  C   C21       1.0  0.29987732605394046  0.7078210029677925  0.8146044632875871  1.0000
  C   C22       1.0  0.22403560563391656  0.6445497946900501  0.7450157936814925  1.0000
  C   C23       1.0  0.15173384739717477  0.5688013810526229  0.8245455434762721  1.0000
  N   N5        1.0  0.38543528099267305  0.7626385563919718  0.03391134514747463  1.0000
  C   C24       1.0  0.3985409813171622  0.7575596626875998  0.19022174189189367  1.0000
  H   H11       1.0  0.04593261452926334  0.38749964449300256  0.2720795891576058  1.0000
  H   H12       1.0  0.35503457451599574  0.7642992904241286  0.750225101057  1.0000
  H   H13       1.0  0.22326075615951124  0.6519938547637854  0.6279007955071148  1.0000
  H   H14       1.0  0.4375317211870007  0.8166077431333978  0.9689706470511563  1.0000
  H   H15       1.0  0.46562468915057353  0.814727363876447  0.21557533842953558  1.0000
  H   H16       1.0  0.4046150283024983  0.6434990438412891  0.23509427242041148  1.0000
  H   H17       1.0  0.3367694873750391  0.8116485246798137  0.24111652487291546  1.0000
  Zn  Zn1       1.0  0.04773024586369279  0.5651091693939878  0.4013213522768344  1.0000
  Zn  Zn2       1.0  0.25885781462491303  0.565105030614151  0.40131653459361494  1.0000
  C   C25       1.0  0.15235764284611442  0.5616571869312885  0.6645805615009448  1.0000
  C   C26       1.0  0.15423271174165598  0.5685588347025021  0.1380574564332009  1.0000
  C   C27       1.0  0.15173939483314558  0.8285676192477749  0.3940793245222449  1.0000
  C   C28       1.0  0.1548508977915721  0.3016466696287048  0.4085587800976067  1.0000
  O   O1        1.0  0.23414289822567344  0.5709490060069169  0.19174120985104381  1.0000
  O   O2        1.0  0.23268840393403378  0.5592627823379115  0.6108927428776787  1.0000
  O   O3        1.0  0.2321880752237879  0.774796345077565  0.39246107167963973  1.0000
  O   O4        1.0  0.23464315523020085  0.3554154526465436  0.41017277293001353  1.0000
  O   O5        1.0  0.07194483321094625  0.7747987473645122  0.39246511393449035  1.0000
  O   O6        1.0  0.0724451518367859  0.5592669173850866  0.6108966984408783  1.0000
  O   O7        1.0  0.07389965289953482  0.5709530756529198  0.19174343292657436  1.0000
  O   O8        1.0  0.07439990956232201  0.35541951291618346  0.41017510411866875  1.0000
