data_image0
_chemical_formula_structural       NC6NC2H4C10H5C6H4Zn2C4O8
_chemical_formula_sum              "N2 C28 H13 Zn2 O8"
_cell_length_a       14.927258858638513
_cell_length_b       9.275150299802178
_cell_length_c       10.681121600428286
_cell_angle_alpha    85.23622488855405
_cell_angle_beta     89.99986493836577
_cell_angle_gamma    89.48389287567745

_space_group_name_H-M_alt    "P 1"
_space_group_IT_number       1

loop_
  _space_group_symop_operation_xyz
  'x, y, z'

loop_
  _atom_site_type_symbol
  _atom_site_label
  _atom_site_symmetry_multiplicity
  _atom_site_fract_x
  _atom_site_fract_y
  _atom_site_fract_z
  _atom_site_occupancy
  N   N1        1.0  0.8347329026616798  0.5790663542372145  0.6108861314924772  1.0000
  C   C1        1.0  0.7572064116536471  0.5790663257126036  0.6108861408315016  1.0000
  C   C2        1.0  0.6607739034648974  0.5790664408711156  0.6108860969502947  1.0000
  C   C3        1.0  0.613854378974693  0.5553632375847652  0.5009493239005436  1.0000
  C   C4        1.0  0.5201430674877904  0.5553632632340573  0.5009492078375901  1.0000
  C   C5        1.0  0.4729578404674303  0.5790662632280665  0.6108861140086439  1.0000
  C   C6        1.0  0.37652526528712815  0.5790663783895442  0.6108860701222764  1.0000
  N   N2        1.0  0.298998774279095  0.5790663498649329  0.6108860794613009  1.0000
  C   C7        1.0  0.5198772979660821  0.602769466517382  0.7208228870532348  1.0000
  C   C8        1.0  0.6135886094529849  0.6027694408680906  0.7208230031161877  1.0000
  H   H1        1.0  0.6496539406703344  0.5369208090208524  0.41541220477503427  1.0000
  H   H2        1.0  0.48455028405305745  0.5369210066619355  0.415412199514371  1.0000
  H   H3        1.0  0.4840778033158964  0.6212118847583545  0.806360100124391  1.0000
  H   H4        1.0  0.6491813923403176  0.6212117948200429  0.8063601065432252  1.0000
  C   C9        1.0  0.06923383451916765  0.15536079295299232  0.6129826310800128  1.0000
  C   C10       1.0  0.11634489674055765  0.23741359568779716  0.5182387089377933  1.0000
  C   C11       1.0  0.15577317943734026  0.1712648143011848  0.41868002501874324  1.0000
  C   C12       1.0  0.1484904899386137  0.022097349240131736  0.412582902071551  1.0000
  C   C13       1.0  0.10333522239554244  0.9386007101407303  0.5067639970290462  1.0000
  C   C14       1.0  0.06450646500119861  0.0027607595656062756  0.6088004877363781  1.0000
  C   C15       1.0  0.20289512283661126  0.25705977118370416  0.32176987960478054  1.0000
  C   C16       1.0  0.24234809821576317  0.32891537566729  0.24063588911222847  1.0000
  C   C17       1.0  0.2885457015797268  0.41306323021261404  0.14563152467335239  1.0000
  C   C18       1.0  0.3279910699154227  0.4849133524252409  0.06451308699649229  1.0000
  H   H5        1.0  0.12064914851912617  0.3538619446901341  0.5201733452747173  1.0000
  H   H6        1.0  0.1785205088888709  0.96995280206339  0.33554539865403044  1.0000
  H   H7        1.0  0.10059553687624817  0.8226006925029862  0.5013573180110871  1.0000
  H   H8        1.0  0.006295476446597668  0.8722875958395905  0.9063437274692969  1.0000
  H   H9        1.0  0.3626273937811688  0.5480038592035125  0.9932843987602161  1.0000
  C   C19       1.0  0.06687018353852348  0.579060770530877  0.24314632939330544  1.0000
  C   C20       1.0  0.0031975596938231808  0.4988146076558304  0.18211987823892062  1.0000
  C   C21       1.0  0.003197503246175069  0.49881470017281115  0.051237737829433756  1.0000
  C   C22       1.0  0.06687011271939564  0.5790608412593561  0.9786367647205895  1.0000
  C   C23       1.0  0.13049018451118632  0.6592405040971241  0.03966296372426271  1.0000
  C   C24       1.0  0.13049017317448475  0.6592404817236803  0.17055526249772826  1.0000
  H   H10       1.0  0.9532879512523904  0.4359138725909378  0.23546714543834657  1.0000
  H   H11       1.0  0.9532879321640232  0.4359139405084646  0.006963115877624437  1.0000
  H   H12       1.0  0.1804063101002505  0.7221495278594852  0.9863599909855496  1.0000
  H   H13       1.0  0.18040626524666858  0.7221494772794186  0.21478435871958235  1.0000
  Zn  Zn1       1.0  0.968710034063402  0.5790624867385195  0.6108933716050746  1.0000
  Zn  Zn2       1.0  0.16502171969022159  0.5790583989025031  0.6108891703823578  1.0000
  C   C25       1.0  0.0669002176220257  0.573312781323511  0.8396417078410394  1.0000
  C   C26       1.0  0.06683366969302695  0.5848099247993355  0.38214094802867804  1.0000
  C   C27       1.0  0.06539545021454424  0.8425841494196034  0.6046006997688784  1.0000
  C   C28       1.0  0.06833837978370982  0.31553682318933673  0.6171820314228491  1.0000
  O   O1        1.0  0.14132071203727792  0.5867315474703265  0.4287872484981894  1.0000
  O   O2        1.0  0.1414092083976094  0.5713869675958332  0.7929918636215683  1.0000
  O   O3        1.0  0.14019308539993525  0.7888270027556432  0.6031945792664668  1.0000
  O   O4        1.0  0.14253676798949586  0.3692915226334579  0.6185844389076435  1.0000
  O   O5        1.0  0.9911949187725749  0.7888293630105307  0.6031981030746278  1.0000
  O   O6        1.0  0.9924110320954946  0.5713910613675932  0.792995312102558  1.0000
  O   O7        1.0  0.9923225360753196  0.586735590962074  0.42878919160473866  1.0000
  O   O8        1.0  0.9935385920814407  0.36929555580522955  0.6185864759546795  1.0000
