data_image0
_chemical_formula_structural       NC8NH4C12H10C12H10Zn2C4O8
_chemical_formula_sum              "N2 C36 H24 Zn2 O8"
_cell_length_a       13.859017981522156
_cell_length_b       13.024581838241813
_cell_length_c       13.024585202197208
_cell_angle_alpha    84.12653577963174
_cell_angle_beta     93.99278861396841
_cell_angle_gamma    93.73320105978404

_space_group_name_H-M_alt    "P 1"
_space_group_IT_number       1

loop_
  _space_group_symop_operation_xyz
  'x, y, z'

loop_
  _atom_site_type_symbol
  _atom_site_label
  _atom_site_symmetry_multiplicity
  _atom_site_fract_x
  _atom_site_fract_y
  _atom_site_fract_z
  _atom_site_occupancy
  N   N1        1.0  0.901244319292622  0.1241050762227815  0.8366254612401535  1.0000
  C   C1        1.0  0.8257149943926447  0.11889754266994035  0.7929800378831614  1.0000
  C   C2        1.0  0.7317612181852108  0.1124203185445382  0.7386908036533169  1.0000
  C   C3        1.0  0.7238780888661015  0.09978910121848329  0.6328241414027953  1.0000
  C   C4        1.0  0.6326105470760703  0.09349949096350342  0.5801023026254115  1.0000
  C   C5        1.0  0.5490128746257725  0.09979033232619705  0.6328239332740555  1.0000
  C   C6        1.0  0.5565310141282435  0.11242101409220105  0.738690655003114  1.0000
  C   C7        1.0  0.6479959239593989  0.11873519908249029  0.791616063307506  1.0000
  C   C8        1.0  0.4704752048417537  0.11889818833660867  0.7929798500474756  1.0000
  N   N2        1.0  0.40129541258872076  0.12410530015366561  0.8366253887984733  1.0000
  H   H1        1.0  0.788143422773026  0.09481862042028186  0.59116673232762  1.0000
  H   H2        1.0  0.6266620876694775  0.08374260424326674  0.49832485668340487  1.0000
  H   H3        1.0  0.4786872652849434  0.09482083470730027  0.591166377004367  1.0000
  H   H4        1.0  0.6539564594563115  0.12851176104465528  0.8735597722557346  1.0000
  C   C9        1.0  0.13323046290680107  0.8212304071343939  0.8442234188307567  1.0000
  C   C10       1.0  0.0856520844415176  0.7584335148034114  0.7724477490821227  1.0000
  C   C11       1.0  0.11695266469302766  0.6601036666983976  0.7632679892354771  1.0000
  C   C12       1.0  0.19585054635872148  0.6225312963578841  0.8261533642066203  1.0000
  C   C13       1.0  0.24408732009294332  0.685363211481849  0.8970716339966314  1.0000
  C   C14       1.0  0.21286123295432888  0.7837246548748881  0.9063182630119624  1.0000
  C   C15       1.0  0.23003873998875027  0.5190527593167874  0.8152987463785845  1.0000
  C   C16       1.0  0.325094487198218  0.5132650473583894  0.785885694951248  1.0000
  C   C17       1.0  0.3594616169901057  0.4187674595351223  0.7680893234843564  1.0000
  C   C18       1.0  0.2994386885893181  0.32881213699911443  0.7791711790873345  1.0000
  C   C19       1.0  0.20516941665707789  0.3327268232968756  0.8093441863460654  1.0000
  C   C20       1.0  0.16931864263087504  0.4269720915329739  0.8290365459107145  1.0000
  H   H5        1.0  0.1261021996576899  0.05844159735035397  0.9329819088311192  1.0000
  H   H6        1.0  0.02435959960904444  0.7853166941711748  0.7231972876967118  1.0000
  H   H7        1.0  0.07977220621204606  0.6132221680529188  0.7070046465722335  1.0000
  H   H8        1.0  0.30557864264594103  0.6578866699594376  0.9456821383207773  1.0000
  H   H9        1.0  0.2511690336321386  0.8303338913156018  0.9620727042423273  1.0000
  H   H10       1.0  0.3722821416152995  0.5826282271172398  0.7748880849592674  1.0000
  H   H11       1.0  0.4325923551661126  0.41542817133679916  0.7448809791507809  1.0000
  H   H12       1.0  0.32620584909117173  0.2556349611951336  0.7650013279318519  1.0000
  H   H13       1.0  0.16076024525934  0.2612828799249607  0.8191392167121683  1.0000
  H   H14       1.0  0.9355358807158894  0.3420907460775184  0.8717242018771855  1.0000
  C   C21       1.0  0.1314234075035441  0.12286338275758864  0.5344421254439108  1.0000
  C   C22       1.0  0.11500264484603422  0.2052810123800239  0.45794599834477434  1.0000
  C   C23       1.0  0.14787550568238506  0.2037019519856466  0.3591054839076725  1.0000
  C   C24       1.0  0.19707367553798782  0.11942883084860023  0.33477109417878453  1.0000
  C   C25       1.0  0.21444596118795595  0.037598047447733075  0.4111793220236311  1.0000
  C   C26       1.0  0.18161651952882954  0.03909055266809868  0.5100652702154667  1.0000
  C   C27       1.0  0.23330324594899055  0.11847695197206876  0.23059488290483948  1.0000
  C   C28       1.0  0.33373482516661257  0.1151144039239331  0.22299696106848255  1.0000
  C   C29       1.0  0.37284830152285875  0.12058368116635582  0.12663550357919484  1.0000
  C   C30       1.0  0.3123622174597736  0.12969884286020505  0.03655839421492635  1.0000
  C   C31       1.0  0.21236895494467012  0.13209705873351063  0.04243786831047536  1.0000
  C   C32       1.0  0.1711256403612711  0.1253391179966019  0.13881778393624902  1.0000
  H   H15       1.0  0.09002221805951849  0.04232964102234391  0.7864036606019308  1.0000
  H   H16       1.0  0.07693806239559756  0.2711202300885389  0.47447809731633095  1.0000
  H   H17       1.0  0.1351113761765561  0.2682699552352143  0.301489254626314  1.0000
  H   H18       1.0  0.25294683084771297  0.9722917543559572  0.3939525003935813  1.0000
  H   H19       1.0  0.19563442518582774  0.9746320692924916  0.5673606070391751  1.0000
  H   H20       1.0  0.38218100326282406  0.11008166980481637  0.2920699823157553  1.0000
  H   H21       1.0  0.4503416279106487  0.11853774145925033  0.12180559028391058  1.0000
  H   H22       1.0  0.34294695406274855  0.13424702512614708  0.9618774137222802  1.0000
  H   H23       1.0  0.1669925462295599  0.13735142858798044  0.971173310858811  1.0000
  H   H24       1.0  0.9357247778246287  0.16128483814146174  0.05338207502377347  1.0000
  Zn  Zn1       1.0  0.04554849522180662  0.1241024110022286  0.8366314492002122  1.0000
  Zn  Zn2       1.0  0.25699129111243874  0.12409958468294757  0.8366280314858006  1.0000
  C   C33       1.0  0.16337415428264035  0.12076232349067961  0.024680883575909928  1.0000
  C   C34       1.0  0.1391680251659089  0.12744097393300025  0.6485786654471961  1.0000
  C   C35       1.0  0.16222284610110288  0.31245721723396297  0.8278064836886285  1.0000
  C   C36       1.0  0.14031919097574463  0.9357448412574301  0.8454531512663606  1.0000
  O   O1        1.0  0.22200836062619245  0.12897168316762953  0.6868827467298881  1.0000
  O   O2        1.0  0.24101394263535822  0.11922868985760512  0.9863739316077106  1.0000
  O   O3        1.0  0.24008323531595188  0.27402474526570364  0.8273964339098479  1.0000
  O   O4        1.0  0.22293899116548133  0.9741756348225226  0.8458601670865173  1.0000
  O   O5        1.0  0.07960072301342636  0.2740263608647183  0.8273993135952201  1.0000
  O   O6        1.0  0.0805315005491978  0.11923154439097208  0.9863767253569254  1.0000
  O   O7        1.0  0.061525835188415166  0.12897449669164016  0.6868843041626705  1.0000
  O   O8        1.0  0.06245647035248417  0.9741784412856068  0.845861801856259  1.0000
