data_image0
_chemical_formula_structural       NC9NC3NH7C7ONH7C7F3H5Zn2C4O8
_chemical_formula_sum              "N4 C30 H19 O9 F3 Zn2"
_cell_length_a       16.053384444249904
_cell_length_b       10.297852080636378
_cell_length_c       9.272721663655245
_cell_angle_alpha    85.87639669813234
_cell_angle_beta     90.31938989593549
_cell_angle_gamma    89.15396345524235

_space_group_name_H-M_alt    "P 1"
_space_group_IT_number       1

loop_
  _space_group_symop_operation_xyz
  'x, y, z'

loop_
  _atom_site_type_symbol
  _atom_site_label
  _atom_site_symmetry_multiplicity
  _atom_site_fract_x
  _atom_site_fract_y
  _atom_site_fract_z
  _atom_site_occupancy
  N   N1        1.0  0.7758305335520757  0.3964532072494913  0.40621769499214366  1.0000
  C   C1        1.0  0.7246516729542738  0.3752329086506058  0.32311668457222975  1.0000
  C   C2        1.0  0.6610505456904663  0.34886656540414407  0.21988497164771223  1.0000
  C   C3        1.0  0.6739218257563616  0.33608024784472157  0.0747360563745878  1.0000
  C   C4        1.0  0.5970043416382672  0.3104662168726886  0.016720551705703638  1.0000
  C   C5        1.0  0.5404917278404968  0.3090506932341657  0.12960342486968313  1.0000
  C   C6        1.0  0.4497862487870834  0.28516966900749874  0.11822679554131899  1.0000
  C   C7        1.0  0.3944180854351974  0.32839752543919487  0.22248864854610106  1.0000
  C   C8        1.0  0.3088186884770913  0.3057480796614136  0.21159198674884427  1.0000
  C   C9        1.0  0.2526836278698074  0.3507339238243436  0.3184872891342847  1.0000
  N   N2        1.0  0.2075676172195754  0.38689619067889325  0.4044143720187039  1.0000
  C   C10       1.0  0.2778615300463812  0.23975884735976585  0.09644869418545854  1.0000
  C   C11       1.0  0.3322223255507676  0.19665177024164307  0.992421850158141  1.0000
  C   C12       1.0  0.4176135244524653  0.2191333173688841  0.002878198737692679  1.0000
  N   N3        1.0  0.5803138649603629  0.33262979270615367  0.253459336810951  1.0000
  H   H1        1.0  0.7323585930392236  0.3444379448130084  0.017428401690325668  1.0000
  H   H2        1.0  0.5841677248007119  0.29614363447414704  0.9043887513680846  1.0000
  H   H3        1.0  0.4171804767744842  0.3812968612892838  0.31108616614074247  1.0000
  H   H4        1.0  0.2117952208403859  0.2217433668442199  0.08708636126611347  1.0000
  H   H5        1.0  0.308167869801281  0.14539322581743508  0.903564689477625  1.0000
  H   H6        1.0  0.4583215850474374  0.1832869031514286  0.9215535603175127  1.0000
  H   H7        1.0  0.5546806399039704  0.3354991586716167  0.3564469749023573  1.0000
  C   C13       1.0  0.9917919038441382  0.010235559872875836  0.4053242411919833  1.0000
  C   C14       1.0  0.9796067059817487  0.01929369070469812  0.25473937393688995  1.0000
  C   C15       1.0  0.9726928990222369  0.9068106782510721  0.1785065940029249  1.0000
  C   C16       1.0  0.9793958399115498  0.7840459018874394  0.2546905100335426  1.0000
  C   C17       1.0  0.9916142357729195  0.773103765798829  0.4053201889491995  1.0000
  C   C18       1.0  0.9975353615252233  0.886719315424659  0.47968782486715184  1.0000
  C   C19       1.0  0.9600294152509578  0.918973863663974  0.019438601437302472  1.0000
  O   O1        1.0  0.981912397882033  0.021237251021524853  0.9475421618910178  1.0000
  N   N4        1.0  0.9224231742775953  0.8176267267303841  0.9451483152142393  1.0000
  H   H8        1.0  0.015123232627971769  0.20038209633929574  0.6898519621743033  1.0000
  H   H9        1.0  0.9747404089585582  0.11423933527856667  0.1966353626426025  1.0000
  H   H10       1.0  0.9767383939517624  0.6966172773865691  0.19686898477278136  1.0000
  H   H11       1.0  0.006924566859451977  0.8789845982859358  0.5957454617925175  1.0000
  H   H12       1.0  0.01604016586971291  0.5451362602404072  0.689711942889575  1.0000
  H   H13       1.0  0.9176396706144359  0.8262438177314297  0.8325055118910729  1.0000
  H   H14       1.0  0.8942617072472637  0.7383895422485772  0.0006722574629580729  1.0000
  C   C20       1.0  0.9894993874645908  0.38961167897519383  0.9818882335848009  1.0000
  C   C21       1.0  0.024979878181132124  0.2825821975202205  0.06446303178502011  1.0000
  C   C22       1.0  0.06776022032037421  0.18311737396316707  0.9983799475763808  1.0000
  C   C23       1.0  0.07250805318039055  0.18899365999868098  0.8472102601198137  1.0000
  C   C24       1.0  0.03653446745260891  0.29332968500426393  0.7636692363863311  1.0000
  C   C25       1.0  0.9939068029017603  0.39372766461181596  0.8287562258664996  1.0000
  C   C26       1.0  0.10343980758146643  0.06749309556875471  0.08857898439652012  1.0000
  F   F1        1.0  0.13148637783688133  0.10462373175992967  0.22069455044916977  1.0000
  F   F2        1.0  0.1698577748033956  0.01229590149738446  0.01918197817677503  1.0000
  F   F3        1.0  0.04230037138123888  0.975350139594505  0.11187064956721637  1.0000
  H   H15       1.0  0.9366208338134009  0.7000915069815992  0.05832657440223544  1.0000
  H   H16       1.0  0.020821257024895564  0.27805958821701937  0.18132606432315646  1.0000
  H   H17       1.0  0.10331737112038075  0.11200866403904985  0.7931741853903507  1.0000
  H   H18       1.0  0.040104177127949114  0.29366609744971917  0.646999705863422  1.0000
  H   H19       1.0  0.8443574788217174  0.6161208937414269  0.7080886758781815  1.0000
  Zn  Zn1       1.0  0.9004205716977332  0.39369183497916277  0.40570561425421303  1.0000
  Zn  Zn2       1.0  0.08297761941149462  0.3896470378790886  0.4049382378145794  1.0000
  C   C27       1.0  0.9930730364240856  0.3877750499422876  0.6686800943240638  1.0000
  C   C28       1.0  0.9903271485573484  0.3955654183558759  0.1419638908824412  1.0000
  C   C29       1.0  0.9916136520181241  0.6288776030610284  0.39957502010689105  1.0000
  C   C30       1.0  0.9917864714328263  0.15446130640126698  0.41106904224531937  1.0000
  O   O2        1.0  0.05988440226462343  0.3960229014762429  0.1953955284508102  1.0000
  O   O3        1.0  0.062072355916954924  0.3842466774930202  0.6146656207176819  1.0000
  O   O4        1.0  0.06089295843563213  0.5789400662736746  0.3973613732429646  1.0000
  O   O5        1.0  0.061063736886759916  0.2013295228422718  0.41269966807221325  1.0000
  O   O6        1.0  0.9223343919246674  0.5820093513976476  0.39794418425086264  1.0000
  O   O7        1.0  0.9235137886386731  0.38731752283452847  0.6152483548341583  1.0000
  O   O8        1.0  0.9213258260299071  0.3990936931264353  0.195976528943695  1.0000
  O   O9        1.0  0.9225051612134294  0.20440030572744883  0.41328077667269647  1.0000
