data_image0
_chemical_formula_structural       NC12NC2H8C6SCOC6H10C7OC3OC4H12Zn2C4O8
_chemical_formula_sum              "N2 C45 H30 S1 O11 Zn2"
_cell_length_a       17.80743265337812
_cell_length_b       10.302038109246572
_cell_length_c       10.299374482448634
_cell_angle_alpha    85.55445882342694
_cell_angle_beta     91.51588487774274
_cell_angle_gamma    89.45358301258409

_space_group_name_H-M_alt    "P 1"
_space_group_IT_number       1

loop_
  _space_group_symop_operation_xyz
  'x, y, z'

loop_
  _atom_site_type_symbol
  _atom_site_label
  _atom_site_symmetry_multiplicity
  _atom_site_fract_x
  _atom_site_fract_y
  _atom_site_fract_z
  _atom_site_occupancy
  N   N1        1.0  0.7079293314508143  0.40662208466292427  0.6015302188789546  1.0000
  C   C1        1.0  0.6571270668457239  0.43618736621440873  0.5328352096219906  1.0000
  C   C2        1.0  0.5939240329775041  0.47296442966530244  0.44738726587828  1.0000
  C   C3        1.0  0.6056829711755384  0.5269971706601029  0.32077431584838356  1.0000
  C   C4        1.0  0.5443865911401158  0.5622705317072259  0.23772215219774215  1.0000
  C   C5        1.0  0.4711771345774926  0.5437746834282606  0.28062306912675794  1.0000
  C   C6        1.0  0.4584413189252728  0.4896230754734745  0.40770414892177365  1.0000
  C   C7        1.0  0.5205950185543192  0.4543529708091991  0.4907398011907771  1.0000
  C   C8        1.0  0.38066294714855786  0.47001280256532363  0.45346522182125953  1.0000
  C   C9        1.0  0.36186007821939936  0.49716761546725197  0.5805152601406354  1.0000
  C   C10       1.0  0.28862067632210514  0.4787133225205247  0.6234567468630317  1.0000
  C   C11       1.0  0.23324098252350797  0.43284984131574783  0.5401861344228327  1.0000
  C   C12       1.0  0.1578646321394736  0.41384258036533694  0.5845284798729777  1.0000
  N   N2        1.0  0.0972673842477838  0.3985620209032329  0.6201766751532349  1.0000
  C   C13       1.0  0.2513522337090088  0.4055260498765145  0.4136790460098472  1.0000
  C   C14       1.0  0.3245388272632961  0.42399517497493205  0.37048167152981715  1.0000
  H   H1        1.0  0.6621572897847958  0.541824130083649  0.28633919746048386  1.0000
  H   H2        1.0  0.5536092072121839  0.6043766574570792  0.1399484122937278  1.0000
  H   H3        1.0  0.4245545012512273  0.5734159454280805  0.21503605421904062  1.0000
  H   H4        1.0  0.5120705563818132  0.4108618939828732  0.5883888814771701  1.0000
  H   H5        1.0  0.40353194653891145  0.5343250857753967  0.6460948491174607  1.0000
  H   H6        1.0  0.2751644235094342  0.5005344023154098  0.7214701428438961  1.0000
  H   H7        1.0  0.2089636446317207  0.3696354759151937  0.34851261085741436  1.0000
  H   H8        1.0  0.3374663559002235  0.40063885764407375  0.2727713790214714  1.0000
  C   C15       1.0  0.9025308083326231  0.02131503422614634  0.61081003167505  1.0000
  C   C16       1.0  0.8383224371344622  0.02743242558958104  0.5282128839073241  1.0000
  C   C17       1.0  0.8067284805173093  0.9135104708473519  0.4866489667264824  1.0000
  C   C18       1.0  0.8385640810359721  0.7922948373838417  0.5281704490341241  1.0000
  C   C19       1.0  0.9026731199439029  0.783858964227664  0.6109084245787189  1.0000
  C   C20       1.0  0.9343645470028678  0.8990284010898191  0.6517160958229946  1.0000
  S   S1        1.0  0.7252274756954334  0.9227566274002788  0.38013339845232985  1.0000
  C   C21       1.0  0.7804861031062313  0.9301413706614574  0.2363533556790387  1.0000
  O   O1        1.0  0.7986086879480669  0.8245092956190779  0.19086980663591646  1.0000
  C   C22       1.0  0.8052743049468772  0.0558096933644443  0.17204093839563095  1.0000
  C   C23       1.0  0.8584075119768377  0.05707272005720852  0.07307593932119238  1.0000
  C   C24       1.0  0.8825632468027973  0.17492325068008663  0.012507807594497324  1.0000
  C   C25       1.0  0.8539924000661647  0.2927426352619411  0.049641939907280275  1.0000
  C   C26       1.0  0.8010853706391746  0.2929478256767437  0.1472646851128636  1.0000
  C   C27       1.0  0.7766791732790337  0.17540604294723328  0.2081410040677254  1.0000
  H   H9        1.0  0.023469032223687455  0.2170902577656073  0.7666605725843005  1.0000
  H   H10       1.0  0.8127691080685134  0.12049081327437605  0.49571229805342765  1.0000
  H   H11       1.0  0.8132528656452509  0.7050747935859746  0.49519291239962526  1.0000
  H   H12       1.0  0.9838650016516396  0.8933920029871595  0.7153896667587731  1.0000
  H   H13       1.0  0.9271784365515684  0.453334484070808  0.6420495572369029  1.0000
  H   H14       1.0  0.8816523836725754  0.9670343434663573  0.042890649138400454  1.0000
  H   H15       1.0  0.923557518589809  0.17484629397594564  0.9367711123779752  1.0000
  H   H16       1.0  0.8727790750188115  0.383869378605997  0.002665908344096964  1.0000
  H   H17       1.0  0.778825399251451  0.38434911394251975  0.1757364360292153  1.0000
  H   H18       1.0  0.7352450339059725  0.17888007999379396  0.2827242597193531  1.0000
  C   C28       1.0  0.9026715617671333  0.40267302225688706  0.2294800220223405  1.0000
  C   C29       1.0  0.9811451494323696  0.4157092959574953  0.23086871323825964  1.0000
  C   C30       1.0  0.0206304316585737  0.42375742717263704  0.11427698778006333  1.0000
  C   C31       1.0  0.9809655668547194  0.41564915810695197  0.9956212541439361  1.0000
  C   C32       1.0  0.9025323305999553  0.40250095326183166  0.9922383602855258  1.0000
  C   C33       1.0  0.8638179661236693  0.3964303511851344  0.10969472111268108  1.0000
  C   C34       1.0  0.10358103562790744  0.43616281984621375  0.11571239120585218  1.0000
  O   O2        1.0  0.1404281851724012  0.3818707588765564  0.03162353950405716  1.0000
  C   C35       1.0  0.14472722916136394  0.5101745239078963  0.2124598005826284  1.0000
  C   C36       1.0  0.2180155361319542  0.4719482401353628  0.25412964364747936  1.0000
  C   C37       1.0  0.25815616860452884  0.5413645348126062  0.34426385566357465  1.0000
  O   O3        1.0  0.3308333579317331  0.497977781487839  0.38303276503305006  1.0000
  C   C38       1.0  0.3779142124931718  0.5588590384572718  0.47368734274523766  1.0000
  C   C39       1.0  0.22459339886739227  0.6514198398401154  0.3925842320994575  1.0000
  C   C40       1.0  0.15218246774944566  0.6909608548182247  0.3504460146051833  1.0000
  C   C41       1.0  0.11247539268411799  0.621302631102381  0.2605735713664923  1.0000
  H   H19       1.0  0.7547102992219146  0.376082265928738  0.43434121118966157  1.0000
  H   H20       1.0  0.011743037547196074  0.41816710784715605  0.3229257773802485  1.0000
  H   H21       1.0  0.011390669998579744  0.42087348132133795  0.9056854822888365  1.0000
  H   H22       1.0  0.8033205632498643  0.3863794853862707  0.10782042609501974  1.0000
  H   H23       1.0  0.8724724218720227  0.39636530148316496  0.6635691220200717  1.0000
  H   H24       1.0  0.24405317751427846  0.387117261105686  0.2174880249065283  1.0000
  H   H25       1.0  0.43198097067492025  0.5043952988878324  0.4862290224058536  1.0000
  H   H26       1.0  0.35078607096487757  0.5576201357920223  0.5696225939979571  1.0000
  H   H27       1.0  0.38948302585571426  0.6606009152419365  0.43659210632714496  1.0000
  H   H28       1.0  0.2540432074039225  0.7072344157549337  0.4621923854878791  1.0000
  H   H29       1.0  0.12685047145838713  0.7762661585270134  0.3871504182514298  1.0000
  H   H30       1.0  0.05692819354377132  0.6551715224549329  0.2276930297074877  1.0000
  Zn  Zn1       1.0  0.8202838846484731  0.4042926562359739  0.6069186700610723  1.0000
  Zn  Zn2       1.0  0.9849128246464808  0.400880856036002  0.6147988159414441  1.0000
  C   C42       1.0  0.9025560142146427  0.397361091515976  0.8480599907069227  1.0000
  C   C43       1.0  0.9026424931056332  0.40781402169493286  0.37365770902775064  1.0000
  C   C44       1.0  0.9026432767829125  0.6397231683165248  0.6057143066921042  1.0000
  C   C45       1.0  0.9025551740573026  0.16545038611665364  0.6160034593928989  1.0000
  O   O4        1.0  0.9651085610986645  0.4082389632996528  0.42503553142940165  1.0000
  O   O5        1.0  0.9650395023111988  0.39434569310124434  0.8026626427118521  1.0000
  O   O6        1.0  0.9651091254881788  0.590056152353859  0.6069667480945038  1.0000
  O   O7        1.0  0.9650388817644855  0.21252851452120147  0.620731325981696  1.0000
  O   O8        1.0  0.8401577713506923  0.5926449989164688  0.6009861573248825  1.0000
  O   O9        1.0  0.8400881484739967  0.3969360996072797  0.7966819828959626  1.0000
  O   O10       1.0  0.840157207587985  0.4108293249118185  0.41905331016730507  1.0000
  O   O11       1.0  0.8400875282312287  0.2151188668248989  0.6147492020887151  1.0000
