data_image0
_chemical_formula_structural       NC11NC3H8C12NH11C12OCH11Zn2C4O8
_chemical_formula_sum              "N3 C43 H30 O9 Zn2"
_cell_length_a       17.807433833752565
_cell_length_b       10.299770795358612
_cell_length_c       10.299794127170987
_cell_angle_alpha    85.57261220462476
_cell_angle_beta     88.5176554422573
_cell_angle_gamma    90.70213480944163

_space_group_name_H-M_alt    "P 1"
_space_group_IT_number       1

loop_
  _space_group_symop_operation_xyz
  'x, y, z'

loop_
  _atom_site_type_symbol
  _atom_site_label
  _atom_site_symmetry_multiplicity
  _atom_site_fract_x
  _atom_site_fract_y
  _atom_site_fract_z
  _atom_site_occupancy
  N   N1        1.0  0.7077652111077902  0.43804737861669624  0.5346066801371934  1.0000
  C   C1        1.0  0.6569352052393338  0.4033401695852874  0.6011686412259107  1.0000
  C   C2        1.0  0.5936975533777388  0.360167261530447  0.6839632267136913  1.0000
  C   C3        1.0  0.6054053431927948  0.29665303006217236  0.8066808900247694  1.0000
  C   C4        1.0  0.5440755330939518  0.2551592277116015  0.8871915189635203  1.0000
  C   C5        1.0  0.4708834879367975  0.27686657617238586  0.8456252747431287  1.0000
  C   C6        1.0  0.458198962328749  0.3405352240820066  0.7224474242166478  1.0000
  C   C7        1.0  0.38043911650193113  0.3635718764564513  0.6781005557585904  1.0000
  C   C8        1.0  0.3616609505978921  0.346661581564929  0.5485280244183115  1.0000
  C   C9        1.0  0.2884389588627622  0.36833018907434784  0.5069177140970162  1.0000
  C   C10       1.0  0.2330521695297892  0.4072273782545248  0.5940596750164582  1.0000
  C   C11       1.0  0.1576936626480151  0.42955405137380165  0.5510880828009974  1.0000
  N   N2        1.0  0.09711079605723061  0.4475030378538454  0.5165420501265579  1.0000
  C   C12       1.0  0.25113884413941123  0.4243480942259894  0.7231010810058207  1.0000
  C   C13       1.0  0.32430805129451906  0.40264463173120046  0.7649668109063199  1.0000
  C   C14       1.0  0.5203860824288704  0.38202446632098686  0.6419532106742044  1.0000
  H   H1        1.0  0.6618658495194477  0.27924834978395063  0.840046232621833  1.0000
  H   H2        1.0  0.5532586246279947  0.20573476850054015  0.9819270994672187  1.0000
  H   H3        1.0  0.4242339191750258  0.242329177185294  0.9090640924426733  1.0000
  H   H4        1.0  0.4033381155254979  0.3149995827175449  0.479817562840926  1.0000
  H   H5        1.0  0.275001502275012  0.35442008827924165  0.4068893098461739  1.0000
  H   H6        1.0  0.2087447105850641  0.4547869160944649  0.7912969018607163  1.0000
  H   H7        1.0  0.3372173635982429  0.41810008684709854  0.864812340656699  1.0000
  H   H8        1.0  0.5119016966546426  0.43281134585254266  0.5474518206938508  1.0000
  C   C15       1.0  0.9023735123966758  0.06140511285385996  0.5256169243908131  1.0000
  C   C16       1.0  0.8805771616986743  0.07001348722247291  0.39522395103379604  1.0000
  C   C17       1.0  0.8696016895356331  0.9572409242159612  0.32911451260810876  1.0000
  C   C18       1.0  0.880714674151237  0.834735193843848  0.3951490211467552  1.0000
  C   C19       1.0  0.902509665273871  0.8241354948005586  0.5255426081063868  1.0000
  C   C20       1.0  0.9132173974722394  0.9380220535545897  0.5900462312134735  1.0000
  C   C21       1.0  0.8465427444780722  0.9674014978194986  0.1911662996843535  1.0000
  C   C22       1.0  0.7918420731284201  0.05723802106455067  0.14851922488517943  1.0000
  C   C23       1.0  0.7701712070890895  0.06667270966385619  0.01867981144831843  1.0000
  C   C24       1.0  0.8027908890105014  0.9866797644230674  0.9294264597710253  1.0000
  C   C25       1.0  0.8573113419663527  0.8970366915618835  0.9711913790118015  1.0000
  C   C26       1.0  0.8790423920591738  0.8873474302576497  0.10099802843971362  1.0000
  N   N3        1.0  0.7805923915392001  0.9964608411477077  0.7966271609594798  1.0000
  H   H9        1.0  0.9106469793017004  0.3855764108971427  0.575321306518447  1.0000
  H   H10       1.0  0.8730807406011769  0.16472206461617867  0.3442219214691122  1.0000
  H   H11       1.0  0.8713323729038002  0.7474639923583959  0.34517455112583684  1.0000
  H   H12       1.0  0.9300317236647542  0.930613032667729  0.69063866299651  1.0000
  H   H13       1.0  0.9108472309432036  0.4926448663786369  0.5752123962656939  1.0000
  H   H14       1.0  0.7651132111039558  0.119018888283045  0.21595951837593216  1.0000
  H   H15       1.0  0.7278175777538402  0.13611587125140878  0.9877348817371584  1.0000
  H   H16       1.0  0.8831111483752184  0.8348875095760718  0.9031049504867961  1.0000
  H   H17       1.0  0.9219720497926689  0.8184281184839978  0.13047675644214762  1.0000
  H   H18       1.0  0.8045889552679943  0.9372294160587787  0.7293772482346816  1.0000
  H   H19       1.0  0.739997259030383  0.06300639809431764  0.7645775211868218  1.0000
  C   C27       1.0  0.9024669110901553  0.44265743817922254  0.1442271929925636  1.0000
  C   C28       1.0  0.8288413936331519  0.39174685139513366  0.1504542596239391  1.0000
  C   C29       1.0  0.7915141207170222  0.36605214186032137  0.036463644231148555  1.0000
  C   C30       1.0  0.8287903591260688  0.39197207802245315  0.9151517156861105  1.0000
  C   C31       1.0  0.9024162973220924  0.44288318245106706  0.9069323676533337  1.0000
  C   C32       1.0  0.9388430611235661  0.4679379199085085  0.022008912300045983  1.0000
  C   C33       1.0  0.7136246435169881  0.3121845821310587  0.04410612576294537  1.0000
  C   C34       1.0  0.6598513028572401  0.3595455726631664  0.9554484216038124  1.0000
  C   C35       1.0  0.5866472778881071  0.3088378661766167  0.9629005333582618  1.0000
  C   C36       1.0  0.566152575751528  0.21040653938864318  0.05854686389451857  1.0000
  C   C37       1.0  0.6191845041526955  0.16162295061064924  0.14810167523606665  1.0000
  C   C38       1.0  0.692490765997847  0.21297268401724498  0.1401933872344543  1.0000
  O   O1        1.0  0.6014836355106997  0.06262050901451445  0.24575339179117758  1.0000
  C   C39       1.0  0.529460915275523  0.0015979977685713915  0.2651375586959892  1.0000
  H   H20       1.0  0.9305313730351702  0.4619984868174381  0.46931151394909154  1.0000
  H   H21       1.0  0.7999760152441584  0.3736170502388299  0.24407211968255793  1.0000
  H   H22       1.0  0.8006246599177342  0.37069366533910414  0.8271288425508305  1.0000
  H   H23       1.0  0.995642369097327  0.5072124649336052  0.016436586201364015  1.0000
  H   H24       1.0  0.674152549700462  0.43695874771211796  0.8814593065652713  1.0000
  H   H25       1.0  0.5455789918005937  0.3462357483188912  0.8944647049177967  1.0000
  H   H26       1.0  0.5090721094593653  0.1729861930518184  0.062026923370894986  1.0000
  H   H27       1.0  0.7332275769050514  0.17381673769740513  0.20847098498039807  1.0000
  H   H28       1.0  0.513967789331994  0.9527661458704486  0.1770001875504379  1.0000
  H   H29       1.0  0.5313780689511479  0.9271689732864161  0.3487271337828244  1.0000
  H   H30       1.0  0.4866854629045001  0.07481724958055079  0.2873926803708309  1.0000
  Zn  Zn1       1.0  0.8201219352782634  0.4407726051836791  0.5294011026705512  1.0000
  Zn  Zn2       1.0  0.9847540545276021  0.4447671947925948  0.5217582141878656  1.0000
  C   C40       1.0  0.9024232432287357  0.4376667582513645  0.7627653552439269  1.0000
  C   C41       1.0  0.9024545446388081  0.44787472400843775  0.2883940054558263  1.0000
  C   C42       1.0  0.9024804105411923  0.6799615846914853  0.52038192321832  1.0000
  C   C43       1.0  0.9023973208657813  0.20557833591798413  0.5307775094770149  1.0000
  O   O2        1.0  0.9649274246009711  0.45113595297163434  0.3338772689023488  1.0000
  O   O3        1.0  0.9649023322988113  0.4374363505364402  0.7114809425488063  1.0000
  O   O4        1.0  0.9649476533166813  0.6330924670873617  0.5157546452534822  1.0000
  O   O5        1.0  0.9648820474134341  0.2554798443190658  0.5296034714342668  1.0000
  O   O6        1.0  0.8399938862115697  0.6300599542954624  0.5215558480254621  1.0000
  O   O7        1.0  0.8399485654734076  0.43440539803312794  0.7172820759265163  1.0000
  O   O8        1.0  0.8399736579211176  0.44810495475134116  0.33967684094826733  1.0000
  O   O9        1.0  0.839928280722386  0.25244883683867414  0.535403140844904  1.0000
