data_image0
_chemical_formula_structural       NC8NH4C7NH5C6FH3Zn2C4O8
_chemical_formula_sum              "N3 C25 H12 F1 Zn2 O8"
_cell_length_a       13.859017981522156
_cell_length_b       9.275154477615127
_cell_length_c       9.275646106892307
_cell_angle_alpha    85.17883559390603
_cell_angle_beta     90.02253054729924
_cell_angle_gamma    89.43373755438122

_space_group_name_H-M_alt    "P 1"
_space_group_IT_number       1

loop_
  _space_group_symop_operation_xyz
  'x, y, z'

loop_
  _atom_site_type_symbol
  _atom_site_label
  _atom_site_symmetry_multiplicity
  _atom_site_fract_x
  _atom_site_fract_y
  _atom_site_fract_z
  _atom_site_occupancy
  N   N1        1.0  0.8976240313435968  0.594771631553057  0.41428939200700743  1.0000
  C   C1        1.0  0.8252954511606639  0.5883965788583633  0.3528714513423992  1.0000
  C   C2        1.0  0.7353229663218432  0.5804672202586143  0.27647552642731577  1.0000
  C   C3        1.0  0.7352035719863647  0.5650041451344601  0.12749972325876224  1.0000
  C   C4        1.0  0.6478023340369132  0.5573045670945207  0.05330946529755432  1.0000
  C   C5        1.0  0.5603382845636166  0.5650058696914633  0.12749948148853066  1.0000
  C   C6        1.0  0.5600927229354441  0.5804681952354636  0.27647534627264747  1.0000
  C   C7        1.0  0.6476763799835517  0.5881979071221496  0.3509520793785799  1.0000
  C   C8        1.0  0.4700556283374744  0.5883974849446827  0.35287121420624057  1.0000
  N   N2        1.0  0.3976751135739256  0.5947719459537113  0.41428929953124166  1.0000
  H   H1        1.0  0.8025238695363689  0.5589192666519938  0.06887931493663604  1.0000
  H   H2        1.0  0.647851013104982  0.5453602657410774  0.938232068587233  1.0000
  H   H3        1.0  0.4930675791863789  0.5589223680707043  0.06887890675794628  1.0000
  H   H4        1.0  0.6476275955124233  0.6001662667619154  0.4662634351689685  1.0000
  C   C9        1.0  0.15044579397956293  0.17140029009162472  0.41261923834188075  1.0000
  C   C10       1.0  0.12391815225290032  0.25593420310522697  0.2853683116498553  1.0000
  C   C11       1.0  0.08954444762306446  0.19117883277299086  0.16485805807863055  1.0000
  C   C12       1.0  0.0811325954290827  0.041001644956890404  0.1701794616865897  1.0000
  C   C13       1.0  0.10855355110337106  0.9552909401745266  0.29452980454759015  1.0000
  C   C14       1.0  0.1448626746058801  0.018132108121493334  0.41597192552734413  1.0000
  C   C15       1.0  0.06173259452764437  0.2793108866489409  0.03607342607995224  1.0000
  N   N3        1.0  0.0393795782471107  0.3501528007066969  0.9325635698397298  1.0000
  H   H5        1.0  0.16927337522688027  0.24429948882636743  0.7668838756373821  1.0000
  H   H6        1.0  0.12785724771911355  0.3729391999052489  0.28108601787086984  1.0000
  H   H7        1.0  0.054200112290147436  0.9898611769356722  0.0775597632729628  1.0000
  H   H8        1.0  0.1034867995590405  0.8388246929483918  0.29440279197084435  1.0000
  H   H9        1.0  0.16163397748632716  0.716834612921744  0.6533393086398935  1.0000
  C   C16       1.0  0.1475121812435145  0.5992786545655522  0.9904729840062109  1.0000
  C   C17       1.0  0.23576027356974372  0.6143469108421384  0.06259348246961038  1.0000
  C   C18       1.0  0.32290162529887634  0.6158779239534686  0.9871537099010272  1.0000
  C   C19       1.0  0.32332623596969623  0.602222866353376  0.8387233879219931  1.0000
  C   C20       1.0  0.23657428735891992  0.5895584817951227  0.7646804483001298  1.0000
  C   C21       1.0  0.14779624483663945  0.5902537410765846  0.838118132663704  1.0000
  F   F1        1.0  0.40731356185208756  0.6288942954692542  0.05864044571989636  1.0000
  H   H10       1.0  0.9245460244478592  0.4821489328085437  0.10316215782581617  1.0000
  H   H11       1.0  0.39098453204041644  0.602826049260738  0.7804104006842678  1.0000
  H   H12       1.0  0.9968059613043818  0.5173256013658674  0.562983648319535  1.0000
  Zn  Zn1       1.0  0.04192800614718273  0.5947677836825953  0.41429768074652495  1.0000
  Zn  Zn2       1.0  0.25337122299414516  0.5947639049938418  0.4142927729114319  1.0000
  C   C22       1.0  0.1477782980399971  0.5862161382740341  0.6778723102468951  1.0000
  C   C23       1.0  0.14752322810756024  0.6033173679427484  0.15071829221608457  1.0000
  C   C24       1.0  0.14591110467410773  0.8581429858996196  0.4095868932762694  1.0000
  C   C25       1.0  0.1493903607697744  0.3313887873508554  0.41900377927614096  1.0000
  O   O1        1.0  0.22776857585679006  0.6046650353594121  0.2044961941081376  1.0000
  O   O2        1.0  0.22801346644687318  0.5848644438203896  0.6240902636528468  1.0000
  O   O3        1.0  0.22650460299788439  0.8044487963041542  0.40744789724595565  1.0000
  O   O4        1.0  0.22927736705025836  0.3850806943425482  0.42113845234320646  1.0000
  O   O5        1.0  0.06602178993586418  0.804450994336863  0.40745200130883963  1.0000
  O   O6        1.0  0.06753064193332237  0.5848683748223789  0.6240942976203895  1.0000
  O   O7        1.0  0.0672857511571008  0.6046689345960587  0.20449849266227837  1.0000
  O   O8        1.0  0.06879454245088401  0.38508458211526775  0.4211408590632584  1.0000
