data_image0
_chemical_formula_structural       NC9NC3NH7C9H10C9H10Zn2C4O8
_chemical_formula_sum              "N3 C34 H27 Zn2 O8"
_cell_length_a       16.053384444249904
_cell_length_b       9.272676604525723
_cell_length_c       9.272679976505533
_cell_angle_alpha    86.26619108519446
_cell_angle_beta     90.20084585415952
_cell_angle_gamma    89.72820801156413

_space_group_name_H-M_alt    "P 1"
_space_group_IT_number       1

loop_
  _space_group_symop_operation_xyz
  'x, y, z'

loop_
  _atom_site_type_symbol
  _atom_site_label
  _atom_site_symmetry_multiplicity
  _atom_site_fract_x
  _atom_site_fract_y
  _atom_site_fract_z
  _atom_site_occupancy
  N   N1        1.0  0.786739770399569  0.5461776031795698  0.413230783194068  1.0000
  C   C1        1.0  0.7355241773964742  0.5224086757659776  0.33004188677073887  1.0000
  C   C2        1.0  0.6718773837295174  0.4928757020066976  0.22670097119045882  1.0000
  C   C3        1.0  0.684840851549377  0.47831146143380776  0.0815156524052878  1.0000
  C   C4        1.0  0.6078281772289004  0.4497288544711193  0.023386701848900016  1.0000
  C   C5        1.0  0.551170716011082  0.44844505815936886  0.1362430950645701  1.0000
  C   C6        1.0  0.4603251277816239  0.4219051367703831  0.124753259195715  1.0000
  C   C7        1.0  0.4051099766385154  0.4701591317264413  0.2292054649291055  1.0000
  C   C8        1.0  0.3193778244814637  0.444987639936818  0.2182014533971217  1.0000
  C   C9        1.0  0.2634039306476497  0.49519993170905297  0.3252951294762805  1.0000
  N   N2        1.0  0.2184174773074093  0.5355635202880711  0.4113816770874688  1.0000
  C   C10       1.0  0.2881341595342994  0.37143793552106286  0.10275991583938326  1.0000
  C   C11       1.0  0.3423424380445941  0.32331861954230856  0.998543260733586  1.0000
  C   C12       1.0  0.42786584035267  0.3483026008832848  0.00910622586590981  1.0000
  N   N3        1.0  0.5909957715025572  0.474936389502147  0.26019117516705953  1.0000
  H   H1        1.0  0.7434003480035573  0.4874435409932234  0.024258287011711843  1.0000
  H   H2        1.0  0.5950343952323296  0.43354278130842977  0.9110053747203379  1.0000
  H   H3        1.0  0.42810649738957623  0.5291097721112583  0.31804271151514407  1.0000
  H   H4        1.0  0.221963091956654  0.3514146362389965  0.0933123174223258  1.0000
  H   H5        1.0  0.3180647314194612  0.26618880209285667  0.9094543304179412  1.0000
  H   H6        1.0  0.4684408436236634  0.30830137488688303  0.9276228449322849  1.0000
  H   H7        1.0  0.5652571909309781  0.478384146671907  0.363174723654219  1.0000
  C   C13       1.0  0.0002150577749495668  0.11742525039904206  0.4104746120754933  1.0000
  C   C14       1.0  0.9673498978236875  0.18330733103463115  0.5300164886335732  1.0000
  C   C15       1.0  0.9421198969708038  0.10079443652297226  0.6530491971336947  1.0000
  C   C16       1.0  0.9489415635312826  0.9499399694156553  0.6606798518652668  1.0000
  C   C17       1.0  0.9804375446935223  0.8826328179241913  0.5400330666267174  1.0000
  C   C18       1.0  0.004950158693148637  0.9643047062790202  0.414150228917419  1.0000
  C   C19       1.0  0.9207956165431518  0.8681469985251026  0.7992931276739614  1.0000
  C   C20       1.0  0.878639819502695  0.7229718479278334  0.7851191437783153  1.0000
  C   C21       1.0  0.9668385550848284  0.7287448901115751  0.8457436993067773  1.0000
  H   H8        1.0  0.0177673661204516  0.41388980467729475  0.17415013492042597  1.0000
  H   H9        1.0  0.9629542048140916  0.2999368067301387  0.5298967238184622  1.0000
  H   H10       1.0  0.9178061670963251  0.15557869407030767  0.7437392123760376  1.0000
  H   H11       1.0  0.9844166504616215  0.7661455765032914  0.5413547963178513  1.0000
  H   H12       1.0  0.025152140582248576  0.8841088429249933  0.06105244143199816  1.0000
  H   H13       1.0  0.8975792377434673  0.9295822705080853  0.8901661665778249  1.0000
  H   H14       1.0  0.874334633985617  0.682929640093921  0.6752294363439043  1.0000
  H   H15       1.0  0.8306980052994141  0.6960477989402947  0.8684981464293807  1.0000
  H   H16       1.0  0.016084355996357047  0.6920823294564542  0.7727654054691292  1.0000
  H   H17       1.0  0.9704425917313672  0.7051890571726065  0.9645738924277374  1.0000
  C   C22       1.0  0.000874785337261044  0.5375015049789733  0.9889421961697522  1.0000
  C   C23       1.0  0.056981155285538376  0.44691357691949984  0.06857881469812033  1.0000
  C   C24       1.0  0.11725466856530642  0.3679098009665718  0.9993813460350632  1.0000
  C   C25       1.0  0.12346038781905855  0.37689440070553965  0.8485323829455406  1.0000
  C   C26       1.0  0.06634328255545065  0.4655498894040264  0.7675072766047406  1.0000
  C   C27       1.0  0.004290390925131064  0.5442284888741187  0.8356826798541799  1.0000
  C   C28       1.0  0.19144897468425803  0.288347841599354  0.7817138217488475  1.0000
  C   C29       1.0  0.1712467199304808  0.22284488274235703  0.6394124982753885  1.0000
  C   C30       1.0  0.23055461343623973  0.3505184327826184  0.641903449757846  1.0000
  H   H18       1.0  0.8760052241318929  0.638079567176075  0.26285345761157153  1.0000
  H   H19       1.0  0.055621883870709876  0.4396723389936305  0.1856274958997366  1.0000
  H   H20       1.0  0.16000173824736375  0.3002108400046976  0.06453981597218858  1.0000
  H   H21       1.0  0.06824132392096205  0.47173772630312544  0.6507474471398438  1.0000
  H   H22       1.0  0.8159477712061627  0.6845324649924354  0.7223787580982333  1.0000
  H   H23       1.0  0.23461962844141526  0.22241037637304895  0.853432079475447  1.0000
  H   H24       1.0  0.10951495515098908  0.24897318594874293  0.5901027186869421  1.0000
  H   H25       1.0  0.20301906063125408  0.11824025181183503  0.6245293614441141  1.0000
  H   H26       1.0  0.20488881395559608  0.45413438861275734  0.5939896323259881  1.0000
  H   H27       1.0  0.29699949764467704  0.32052371297951776  0.6284722532593414  1.0000
  Zn  Zn1       1.0  0.9113126416436677  0.5431108285593487  0.412705472470585  1.0000
  Zn  Zn2       1.0  0.09384456445123779  0.5386186407860503  0.411918720050809  1.0000
  C   C31       1.0  0.0036107998135181917  0.5372124832171743  0.6756056311157345  1.0000
  C   C32       1.0  0.0015484102677911817  0.5445187576060471  0.14901870221559932  1.0000
  C   C33       1.0  0.004027638397538615  0.8041809375240261  0.4077103349777513  1.0000
  C   C34       1.0  0.0011315000219642706  0.2775485729922358  0.41691406796700603  1.0000
  O   O1        1.0  0.07104436320712537  0.5451627590007186  0.20244324421510052  1.0000
  O   O2        1.0  0.07265234502762152  0.5331579241324786  0.6215835424937151  1.0000
  O   O3        1.0  0.0729880197114372  0.7487383621528572  0.4052562059909206  1.0000
  O   O4        1.0  0.07070862585915005  0.32958233196963466  0.4187704729322981  1.0000
  O   O5        1.0  0.9344485179465468  0.752147138910237  0.4058537198499987  1.0000
  O   O6        1.0  0.9341128526353291  0.5365684327312903  0.6221809870002734  1.0000
  O   O7        1.0  0.9325048635971686  0.5485732035783546  0.20303895514090886  1.0000
  O   O8        1.0  0.9321691266241442  0.33299276709244885  0.41936629190460706  1.0000
