data_image0
_chemical_formula_structural       NC5NC4H6C6ClH5C6NH7Zn2C4O8
_chemical_formula_sum              "N3 C25 H18 Cl1 Zn2 O8"
_cell_length_a       13.854160002989762
_cell_length_b       10.30297070629231
_cell_length_c       9.274774538082514
_cell_angle_alpha    85.06361778746081
_cell_angle_beta     90.34967120186236
_cell_angle_gamma    89.9983107048755

_space_group_name_H-M_alt    "P 1"
_space_group_IT_number       1

loop_
  _space_group_symop_operation_xyz
  'x, y, z'

loop_
  _atom_site_type_symbol
  _atom_site_label
  _atom_site_symmetry_multiplicity
  _atom_site_fract_x
  _atom_site_fract_y
  _atom_site_fract_z
  _atom_site_occupancy
  N   N1        1.0  0.9023733460088078  0.4333060026943293  0.40806581641528905  1.0000
  C   C1        1.0  0.8297986364896728  0.45646496991431296  0.3489512502102559  1.0000
  C   C2        1.0  0.7395146703547841  0.4852753584523046  0.2754104663694552  1.0000
  C   C3        1.0  0.6522374234343853  0.45817188331311254  0.3472165199629085  1.0000
  C   C4        1.0  0.5643722578884636  0.4852753715334346  0.2754104431701807  1.0000
  C   C5        1.0  0.4746904955029711  0.45646483657895764  0.3489513419362542  1.0000
  N   N2        1.0  0.40259977541187725  0.4333059455352435  0.4080658163275277  1.0000
  C   C6        1.0  0.5638170393946257  0.5400280561718445  0.13181733916871852  1.0000
  C   C7        1.0  0.6510610881493648  0.5690678791190081  0.05990775993207431  1.0000
  C   C8        1.0  0.6504262211820088  0.6241277803960721  0.904812318283724  1.0000
  C   C9        1.0  0.7388941280610345  0.5400280556871364  0.13181724878562484  1.0000
  H   H1        1.0  0.6526924592298523  0.415694181290686  0.45835494406910327  1.0000
  H   H2        1.0  0.4957160060589674  0.5600768158998191  0.07610347457811106  1.0000
  H   H3        1.0  0.715181848556791  0.6856724266765327  0.8809991318047717  1.0000
  H   H4        1.0  0.5854733711643118  0.6856724278554004  0.8809991969652234  1.0000
  H   H5        1.0  0.6501353497125796  0.5431994323874512  0.8331736248939459  1.0000
  H   H6        1.0  0.8065389647893128  0.5600769178275025  0.07610338905432612  1.0000
  C   C10       1.0  0.15249119235516106  0.05205847254143569  0.4080720593646969  1.0000
  C   C11       1.0  0.2522734308729675  0.04869764182276026  0.43587045013393017  1.0000
  C   C12       1.0  0.30178271398320505  0.9300732442024384  0.44966316879913726  1.0000
  C   C13       1.0  0.25227342982495915  0.813589673684543  0.4358703822583974  1.0000
  C   C14       1.0  0.15249120299379698  0.814543413706954  0.40807214198201436  1.0000
  C   C15       1.0  0.10308647696303486  0.9343691163219261  0.39430841951508944  1.0000
  Cl  Cl1       1.0  0.4264345032034742  0.9273782836179567  0.4843898824860513  1.0000
  H   H7        1.0  0.11490496742627228  0.38062756326419744  0.39760008442133143  1.0000
  H   H8        1.0  0.29195925161851427  0.13788622324767097  0.44692642181799913  1.0000
  H   H9        1.0  0.2919592130236013  0.7226850312318115  0.4469263181268961  1.0000
  H   H10       1.0  0.026131386400888086  0.9360327640449039  0.3728694204781598  1.0000
  H   H11       1.0  0.11490496383285496  0.4875995944535553  0.3976003569066777  1.0000
  C   C16       1.0  0.1507589631900117  0.4366214614250574  0.9842557600697491  1.0000
  C   C17       1.0  0.2191532198744647  0.5132352304475003  0.05099227500325098  1.0000
  C   C18       1.0  0.29187778420008686  0.5791545550916208  0.9702273634730352  1.0000
  C   C19       1.0  0.2967970959520898  0.5687590786026229  0.8212499481255322  1.0000
  C   C20       1.0  0.22871251375836055  0.49500528326786597  0.7528108707508117  1.0000
  C   C21       1.0  0.15422344377294347  0.42998035459890777  0.8318883863636772  1.0000
  N   N3        1.0  0.36138013030400873  0.6555877053642686  0.03996912359615413  1.0000
  H   H12       1.0  0.006480860375172483  0.1828311612422513  0.11017605871009484  1.0000
  H   H13       1.0  0.2174157612595541  0.5193926030978551  0.16701240450082233  1.0000
  H   H14       1.0  0.35294592292329213  0.6189192878957195  0.7577191816198874  1.0000
  H   H15       1.0  0.233016656803612  0.4913939730996266  0.6366378212742196  1.0000
  H   H16       1.0  0.054082670795993354  0.26299599387676653  0.5658065944212316  1.0000
  H   H17       1.0  0.3585772105872266  0.6637291537654431  0.15133904665131426  1.0000
  H   H18       1.0  0.416135781554146  0.704726973619  0.9807270416357756  1.0000
  Zn  Zn1       1.0  0.046727927703415814  0.43330244496652226  0.4080741597422146  1.0000
  Zn  Zn2       1.0  0.2582452433375442  0.43329878644885844  0.40806932589670164  1.0000
  C   C22       1.0  0.15356643480372756  0.42606366329829604  0.6716676717002703  1.0000
  C   C23       1.0  0.15140904657878318  0.44053920506495386  0.1444759555397399  1.0000
  C   C24       1.0  0.1524627426162776  0.6704625599661791  0.4023209016358382  1.0000
  C   C25       1.0  0.1525126669045882  0.19613874798986886  0.41382280255083814  1.0000
  O   O1        1.0  0.2318969394538073  0.4418469832943608  0.1982454823496227  1.0000
  O   O2        1.0  0.23361528861936054  0.42475213218322544  0.6178940606573344  1.0000
  O   O3        1.0  0.2327229672793627  0.622107320349546  0.40039463818200294  1.0000
  O   O4        1.0  0.23278918817498107  0.24449180526438186  0.41574479661386965  1.0000
  O   O5        1.0  0.07218391068546892  0.6221094261537201  0.40039868901910425  1.0000
  O   O6        1.0  0.0730762317066018  0.42475579839732286  0.6178980345418283  1.0000
  O   O7        1.0  0.07135787551308659  0.441850617861846  0.19824772104527555  1.0000
  O   O8        1.0  0.07225012467257463  0.24449542969824714  0.41574714351466446  1.0000
