data_image0
_chemical_formula_structural       NC10NC3NCH9C13OH12C12NCOH11Zn2C4O8
_chemical_formula_sum              "N4 C44 H32 O10 Zn2"
_cell_length_a       19.437513618241372
_cell_length_b       10.29915010939255
_cell_length_c       10.299148425239203
_cell_angle_alpha    85.51660845067315
_cell_angle_beta     90.33234682354211
_cell_angle_gamma    89.50394211810362

_space_group_name_H-M_alt    "P 1"
_space_group_IT_number       1

loop_
  _space_group_symop_operation_xyz
  'x, y, z'

loop_
  _atom_site_type_symbol
  _atom_site_label
  _atom_site_symmetry_multiplicity
  _atom_site_fract_x
  _atom_site_fract_y
  _atom_site_fract_z
  _atom_site_occupancy
  N   N1        1.0  0.6477981213229008  0.4111847893258176  0.5751389286701768  1.0000
  C   C1        1.0  0.588862194802321  0.4281975167922558  0.5721580152644035  1.0000
  C   C2        1.0  0.5154184835002512  0.44945335061080605  0.5684578819924839  1.0000
  C   C3        1.0  0.47367427478241264  0.34826129951429546  0.5568256786551347  1.0000
  C   C4        1.0  0.3977832977758207  0.35833024983118333  0.5496010454015883  1.0000
  C   C5        1.0  0.3581891723526646  0.4391535998737232  0.61532590062547  1.0000
  C   C6        1.0  0.2820091918941142  0.4305487128856542  0.6068835760052306  1.0000
  C   C7        1.0  0.24889341920594943  0.30919271749182514  0.6115607462984953  1.0000
  C   C8        1.0  0.17716047702789534  0.3028239003522193  0.6043939392462347  1.0000
  C   C9        1.0  0.1375727277964339  0.41733818482105234  0.592912349555317  1.0000
  C   C10       1.0  0.063725384825467  0.41063124274285906  0.5855775325199082  1.0000
  N   N2        1.0  0.004357218964553299  0.40523945120224125  0.5796807978986851  1.0000
  C   C11       1.0  0.1699718890151652  0.5383832276526663  0.5889805936256854  1.0000
  C   C12       1.0  0.2416891876398695  0.5450060252172932  0.596209356439894  1.0000
  C   C13       1.0  0.38684948613896797  0.5314019759195578  0.705226740085442  1.0000
  N   N3        1.0  0.44382592729180426  0.594629111298479  0.6848036737573217  1.0000
  C   C14       1.0  0.4876779722735686  0.5854222684933896  0.5716906973448819  1.0000
  H   H1        1.0  0.49607498689347235  0.2532039034007929  0.5447298313004956  1.0000
  H   H2        1.0  0.373085605047981  0.28884125723559984  0.4912979698625408  1.0000
  H   H3        1.0  0.27835760985922936  0.21926884691606086  0.6226071618937827  1.0000
  H   H4        1.0  0.1525820952911193  0.2085887717736974  0.6083073662656224  1.0000
  H   H5        1.0  0.1398223241966448  0.6276510148066896  0.580246669279749  1.0000
  H   H6        1.0  0.2657859809719089  0.6396539914960144  0.59228035471743  1.0000
  H   H7        1.0  0.3568356370889926  0.5517479346065208  0.7895937139084099  1.0000
  H   H8        1.0  0.5304185025635813  0.6557371023078824  0.5774351158252706  1.0000
  H   H9        1.0  0.4580140661895342  0.6135773078933113  0.48103098851245796  1.0000
  C   C15       1.0  0.8261457927291926  0.02681125244824534  0.5775548854168941  1.0000
  C   C16       1.0  0.8248599291990791  0.014970977152787278  0.7143585384043707  1.0000
  C   C17       1.0  0.824148140931395  0.8918342147691022  0.7834564198015701  1.0000
  C   C18       1.0  0.8247273299708742  0.779717996232034  0.7139934296372237  1.0000
  C   C19       1.0  0.8260161421508749  0.7896027798386175  0.5772762190565579  1.0000
  C   C20       1.0  0.8267197340572794  0.9136095810429629  0.5098559358415984  1.0000
  C   C21       1.0  0.8227818566364155  0.8802904341278861  0.9280889684991154  1.0000
  C   C22       1.0  0.7804670764578125  0.7880871582358594  0.9955759928791226  1.0000
  C   C23       1.0  0.7791586104755511  0.7773062615632093  0.1316747863054808  1.0000
  C   C24       1.0  0.820592526024211  0.8575618379613192  0.20275266729423225  1.0000
  C   C25       1.0  0.8622489905225301  0.950729455194539  0.13589987248792312  1.0000
  C   C26       1.0  0.8635734270050244  0.9616858827224632  0.9998009937632752  1.0000
  C   C27       1.0  0.8177398830692193  0.8483555132745403  0.34881253513060845  1.0000
  O   O1        1.0  0.7663118744100327  0.9323715276420413  0.3884008305708215  1.0000
  H   H10       1.0  0.8281259385429665  0.2564606160117435  0.31932588589608074  1.0000
  H   H11       1.0  0.823455235196678  0.10174415590042041  0.7673528273497088  1.0000
  H   H12       1.0  0.8251127009858122  0.6845654259418744  0.7668354461383864  1.0000
  H   H13       1.0  0.82771188664871  0.921950251444528  0.4044018356189522  1.0000
  H   H14       1.0  0.8264655570288337  0.4659301184414004  0.5246893950585354  1.0000
  H   H15       1.0  0.7475714497536867  0.7256504246781278  0.9430447262320303  1.0000
  H   H16       1.0  0.7456837975093793  0.7065121966869209  0.18162736636692267  1.0000
  H   H17       1.0  0.8938772193381871  0.014739956995544867  0.1891612513268669  1.0000
  H   H18       1.0  0.8970711822706562  0.032924635956413706  0.9506554040610977  1.0000
  H   H19       1.0  0.8683419360457605  0.8753229066024288  0.3896298492636066  1.0000
  H   H20       1.0  0.8065539801687376  0.7465037576581808  0.3864852007472871  1.0000
  H   H21       1.0  0.7665535888181396  0.9226468723849603  0.48503716118966456  1.0000
  C   C28       1.0  0.8261326887524051  0.4083620296492254  0.19601993016816707  1.0000
  C   C29       1.0  0.8959308299849597  0.44275996098891524  0.19292668291104872  1.0000
  C   C30       1.0  0.9312107001397301  0.4599880328724401  0.07422489092476336  1.0000
  C   C31       1.0  0.8957858499957744  0.44242220057812354  0.9576678046894105  1.0000
  C   C32       1.0  0.8260292368255215  0.4080520527515359  0.9588111144411225  1.0000
  C   C33       1.0  0.7916118995375337  0.3912144997613025  0.07849813163169861  1.0000
  C   C34       1.0  0.005007188695423493  0.4963533426014307  0.07204474804346561  1.0000
  C   C35       1.0  0.05124796584458901  0.4382067406044938  0.9890565671965977  1.0000
  C   C36       1.0  0.12065711083604103  0.47256560390761604  0.987153696288436  1.0000
  C   C37       1.0  0.1454508775027108  0.5644325804647877  0.06894499394595677  1.0000
  C   C38       1.0  0.09914150774128183  0.6244266904467067  0.1503632338095293  1.0000
  C   C39       1.0  0.02970125254574718  0.5901750230346008  0.1523625109293949  1.0000
  N   N4        1.0  0.21689639579535694  0.599451158912033  0.06330652794486213  1.0000
  C   C40       1.0  0.2564645741904845  0.6354673739302364  0.1725273315219944  1.0000
  O   O2        1.0  0.23318771456906237  0.6216918155874527  0.28659614732903416  1.0000
  H   H22       1.0  0.694501727686479  0.34267185572378667  0.4092128255549232  1.0000
  H   H23       1.0  0.9232255122455038  0.4545012386696601  0.2831963415705563  1.0000
  H   H24       1.0  0.9224773864703384  0.4573700569990074  0.8657693176038412  1.0000
  H   H25       1.0  0.7378076853861694  0.3647003965520727  0.08009510213300541  1.0000
  H   H26       1.0  0.7992009940260013  0.3947960367236809  0.6317777631985853  1.0000
  H   H27       1.0  0.03391453174617154  0.36498007150325323  0.926689626902283  1.0000
  H   H28       1.0  0.1554281264276134  0.426444211282782  0.9226582418911001  1.0000
  H   H29       1.0  0.11608414998459328  0.6998245877918041  0.21031780129067856  1.0000
  H   H30       1.0  0.9950109662552111  0.6389615375055093  0.21496545117912902  1.0000
  H   H31       1.0  0.24335896812273553  0.5900698755879958  0.9764637851593466  1.0000
  H   H32       1.0  0.30811756396186035  0.6716488456001231  0.157347970345179  1.0000
  Zn  Zn1       1.0  0.7506933798852324  0.4094656006106245  0.5764571247746269  1.0000
  Zn  Zn2       1.0  0.9014619669785786  0.40694796514077525  0.5783732763121099  1.0000
  C   C41       1.0  0.8260481420109199  0.4029365580128057  0.814629148061468  1.0000
  C   C42       1.0  0.8261088509453485  0.41347861895078575  0.3402014008262313  1.0000
  C   C43       1.0  0.8260378088526864  0.6454211452424302  0.5721532955406727  1.0000
  C   C44       1.0  0.8261191329126369  0.17099247211916693  0.5826773225067652  1.0000
  O   O3        1.0  0.8833167447874519  0.4142346973061599  0.38931719108561924  1.0000
  O   O4        1.0  0.883270117442268  0.40026867293750573  0.7669672989680727  1.0000
  O   O5        1.0  0.8832610018055675  0.5960780560924308  0.5711663222045111  1.0000
  O   O6        1.0  0.8833258089886732  0.21842532434090534  0.585118069810449  1.0000
  O   O7        1.0  0.7688294864252191  0.5979882422710565  0.5697123306155669  1.0000
  O   O8        1.0  0.7688386018029457  0.40218041957868783  0.7655132375586692  1.0000
  O   O9        1.0  0.7688852294133403  0.4161463993213891  0.3878615681833481  1.0000
  O   O10       1.0  0.768894293600122  0.22033701702702624  0.5836625442861895  1.0000
