data_image0
_chemical_formula_structural       NC12NC2H8C10H10C6H6Zn2C4O8
_chemical_formula_sum              "N2 C34 H24 Zn2 O8"
_cell_length_a       19.240039667572717
_cell_length_b       15.491143632010285
_cell_length_c       10.30228053409233
_cell_angle_alpha    82.997624279567
_cell_angle_beta     89.99986599247048
_cell_angle_gamma    89.41448882662333

_space_group_name_H-M_alt    "P 1"
_space_group_IT_number       1

loop_
  _space_group_symop_operation_xyz
  'x, y, z'

loop_
  _atom_site_type_symbol
  _atom_site_label
  _atom_site_symmetry_multiplicity
  _atom_site_fract_x
  _atom_site_fract_y
  _atom_site_fract_z
  _atom_site_occupancy
  N   N1        1.0  0.64666857516951  0.9492744371037226  0.5038549446278944  1.0000
  C   C1        1.0  0.5865202058908286  0.9492744931951131  0.5038548589324554  1.0000
  C   C2        1.0  0.5117021681053151  0.9492745715308096  0.5038547163848144  1.0000
  C   C3        1.0  0.4755825840496885  0.9062176929843395  0.6101410580629136  1.0000
  C   C4        1.0  0.40291244516688757  0.906143635092628  0.6102325683231853  1.0000
  C   C5        1.0  0.36536993265958634  0.9492746333563182  0.5038544845968256  1.0000
  C   C6        1.0  0.4022030975117291  0.9924057565065119  0.3974765869432606  1.0000
  C   C7        1.0  0.474874396486634  0.9923315413244688  0.397568230271764  1.0000
  C   C8        1.0  0.2881648426523362  0.9492745808193206  0.5038543927470758  1.0000
  C   C9        1.0  0.2515993806623771  0.873627693359512  0.5508118437295069  1.0000
  C   C10       1.0  0.1789281049431256  0.8736990923677005  0.5507157309308595  1.0000
  C   C11       1.0  0.14183255643890458  0.9492744945446566  0.5038544594552385  1.0000
  C   C12       1.0  0.06701451990870169  0.9492744185744202  0.5038547131697788  1.0000
  N   N2        1.0  0.0068662032806898  0.9492743913070835  0.5038549233714591  1.0000
  C   C13       1.0  0.1776845183746673  0.024849947367051154  0.4569931316898994  1.0000
  C   C14       1.0  0.2503546262678138  0.024921466678679453  0.4568968482325533  1.0000
  H   H1        1.0  0.5035716242087992  0.872882116550307  0.6931074096417618  1.0000
  H   H2        1.0  0.3760889255895006  0.8733410902568862  0.6942782105992682  1.0000
  H   H3        1.0  0.3748400861523881  0.025208319410849424  0.3134308926145837  1.0000
  H   H4        1.0  0.5023151283412447  0.02566705079155129  0.3146021589281591  1.0000
  H   H5        1.0  0.27918254991541563  0.814080808344642  0.585984028212398  1.0000
  H   H6        1.0  0.1516982145830015  0.8147527606026985  0.586880137678218  1.0000
  H   H7        1.0  0.1494845854218204  0.08379626274384556  0.42082874059351205  1.0000
  H   H8        1.0  0.27695793539694263  0.08446840457572957  0.42172461542629036  1.0000
  C   C15       1.0  0.8288604219660051  0.6945588101523383  0.5210413719380549  1.0000
  C   C16       1.0  0.819595446940478  0.6363459327779374  0.4365265900616568  1.0000
  C   C17       1.0  0.8235158295697487  0.5407876483031101  0.4735531062198217  1.0000
  C   C18       1.0  0.8590969675669756  0.5023827640196248  0.5857212823216471  1.0000
  C   C19       1.0  0.861782930624269  0.41195292625940677  0.6158589384576063  1.0000
  C   C20       1.0  0.8300259632993404  0.357754586929352  0.5341683079690018  1.0000
  C   C21       1.0  0.794444877277073  0.3961594712110528  0.42200013187262936  1.0000
  C   C22       1.0  0.791758810269861  0.48658930897484076  0.39186247572576494  1.0000
  C   C23       1.0  0.8339463979035704  0.2621963024527405  0.5711948241326195  1.0000
  C   C24       1.0  0.8246810596329286  0.2039833541418426  0.4866801425885681  1.0000
  H   H9        1.0  0.8298605249893226  0.9109203407609957  0.5493181177696691  1.0000
  H   H10       1.0  0.8389949402776514  0.6735650360895596  0.623271410991804  1.0000
  H   H11       1.0  0.8063622844459477  0.6594863054097257  0.3359091133030341  1.0000
  H   H12       1.0  0.8860080133832959  0.5413950344755563  0.6495013491694408  1.0000
  H   H13       1.0  0.889545736278495  0.3841466155817227  0.7027761224858831  1.0000
  H   H14       1.0  0.767533726979288  0.35714726550370585  0.3582200624039935  1.0000
  H   H15       1.0  0.7639961080340074  0.5143956843939693  0.3049452890984561  1.0000
  H   H16       1.0  0.8471797162749245  0.239055936019573  0.6718122031470222  1.0000
  H   H17       1.0  0.8145462300511268  0.22497705726633974  0.38445020387261786  1.0000
  H   H18       1.0  0.8236803845457298  0.9876218634819305  0.4584037851293475  1.0000
  C   C25       1.0  0.8267707569682872  0.9492710755229107  0.12259259997183047  1.0000
  C   C26       1.0  0.8025866792959068  0.9831650613319718  0.9976477097337799  1.0000
  C   C27       1.0  0.8267707516080322  0.9492710744325547  0.8851289150806387  1.0000
  C   C28       1.0  0.8756756498312227  0.8807308908619805  0.8989233293820257  1.0000
  C   C29       1.0  0.8998644431485776  0.8468303796000174  0.022638973399854875  1.0000
  C   C30       1.0  0.8756757277644209  0.8807309020387891  0.1339262391845062  1.0000
  H   H19       1.0  0.7345473139105467  0.07852203599022367  0.308415475595859  1.0000
  H   H20       1.0  0.7649071763609059  0.0359730083846488  0.9879676056339223  1.0000
  H   H21       1.0  0.7345468985156535  0.07852158861016996  0.651920376147948  1.0000
  H   H22       1.0  0.8952618211373424  0.8532809174165866  0.8141628658308626  1.0000
  H   H23       1.0  0.9375284859358836  0.7940443087713671  0.032315268750576547  1.0000
  H   H24       1.0  0.8952618983402962  0.8532809090188234  0.22875035567540758  1.0000
  Zn  Zn1       1.0  0.7506138581152054  0.9492721081499323  0.5038625811401323  1.0000
  Zn  Zn2       1.0  0.9029209971525278  0.9492696448948732  0.5038583601998234  1.0000
  C   C31       1.0  0.8267975484310096  0.9458156004499304  0.741226295936884  1.0000
  C   C32       1.0  0.8267389610471925  0.9527272469990365  0.26649469896920164  1.0000
  C   C33       1.0  0.825467490930243  0.1076912761563733  0.48800133839785736  1.0000
  C   C34       1.0  0.8280689751257945  0.7908505291701642  0.519719796022341  1.0000
  O   O1        1.0  0.8845280866001596  0.9538824507880344  0.3147882113739855  1.0000
  O   O2        1.0  0.8846060226284201  0.9446578727524411  0.6929292503257494  1.0000
  O   O3        1.0  0.8835312052071791  0.07537452809535995  0.48844824469186005  1.0000
  O   O4        1.0  0.8856028519983864  0.8231658016508765  0.5192691192418455  1.0000
  O   O5        1.0  0.7679319512943871  0.07537595139571418  0.4884518220926579  1.0000
  O   O6        1.0  0.7690067601628335  0.9446603381770099  0.692932688206982  1.0000
  O   O7        1.0  0.7689288244287917  0.9538848859861851  0.31479009030586314  1.0000
  O   O8        1.0  0.7700035898750734  0.8231682306450514  0.5192710959343001  1.0000
