data_image0
_chemical_formula_structural       NC10NC5H10C12ClH9C12OCH12Zn2C4O8
_chemical_formula_sum              "N2 C44 H31 Cl1 O9 Zn2"
_cell_length_a       19.4436361288709
_cell_length_b       10.299768534541528
_cell_length_c       10.299794127170989
_cell_angle_alpha    85.578860457747
_cell_angle_beta     89.69815743819765
_cell_angle_gamma    89.43641405984484

_space_group_name_H-M_alt    "P 1"
_space_group_IT_number       1

loop_
  _space_group_symop_operation_xyz
  'x, y, z'

loop_
  _atom_site_type_symbol
  _atom_site_label
  _atom_site_symmetry_multiplicity
  _atom_site_fract_x
  _atom_site_fract_y
  _atom_site_fract_z
  _atom_site_occupancy
  N   N1        1.0  0.6479702989502314  0.4088728017838792  0.5622228043820023  1.0000
  C   C1        1.0  0.5891359989073873  0.41877613715426193  0.5766066251622147  1.0000
  C   C2        1.0  0.5158087543891591  0.4311269298982727  0.5945987479058581  1.0000
  C   C3        1.0  0.47361978226793944  0.39912000839584943  0.4999275938087051  1.0000
  C   C4        1.0  0.3977168321563725  0.40955871254874515  0.5052559363824207  1.0000
  C   C5        1.0  0.3579730989340489  0.38482317174085034  0.6123225590638359  1.0000
  C   C6        1.0  0.2818532449197287  0.3887382792917686  0.5993639268475354  1.0000
  C   C7        1.0  0.24129955758476326  0.4464090608478728  0.6931332870488314  1.0000
  C   C8        1.0  0.1696367991984185  0.4500455768596572  0.6825900154076565  1.0000
  C   C9        1.0  0.13753290581610084  0.3956153386143406  0.5785638789736878  1.0000
  C   C10       1.0  0.0637409134567876  0.39931307953586564  0.5678653349630157  1.0000
  N   N2        1.0  0.004417156633648002  0.4022858692193685  0.5592644148817576  1.0000
  C   C11       1.0  0.1773615835979069  0.3372375213827328  0.4851777034829703  1.0000
  C   C12       1.0  0.24904076299891634  0.3335467542927184  0.4954692060078254  1.0000
  C   C13       1.0  0.3860986857523421  0.34437769086535996  0.743409591743325  1.0000
  C   C14       1.0  0.444769225069066  0.38750407142083954  0.7906520996329376  1.0000
  C   C15       1.0  0.48899314615637485  0.48535228953243603  0.7162925506920819  1.0000
  H   H1        1.0  0.49571435246395484  0.3699933782921013  0.40962329545267623  1.0000
  H   H2        1.0  0.3730225178246638  0.4320426250680895  0.4121026884403831  1.0000
  H   H3        1.0  0.2651768383994964  0.48970817978533615  0.773980178934309  1.0000
  H   H4        1.0  0.1392991818321016  0.4953675055985305  0.7555098813012625  1.0000
  H   H5        1.0  0.1530124512475901  0.29413409369006915  0.4046652894204168  1.0000
  H   H6        1.0  0.2787123896190704  0.285981552982121  0.42324553600195514  1.0000
  H   H7        1.0  0.3551223116760431  0.28016888911594184  0.8076506583881884  1.0000
  H   H8        1.0  0.45991310393878176  0.35344832563313267  0.8885806748286386  1.0000
  H   H9        1.0  0.45889927500339894  0.5760621525143219  0.691046061010923  1.0000
  H   H10       1.0  0.5322822106428446  0.510944842685324  0.7793760213792638  1.0000
  C   C16       1.0  0.8261321473778761  0.024215082723884496  0.5607420230519083  1.0000
  C   C17       1.0  0.8306703898282194  0.03365750966219028  0.4242420081675471  1.0000
  C   C18       1.0  0.8330360744850673  0.9213014755279705  0.3550832047721333  1.0000
  C   C19       1.0  0.8308017503276603  0.7983673692196973  0.4242564071444299  1.0000
  C   C20       1.0  0.8262618898717095  0.7869334431257294  0.5607563734107868  1.0000
  C   C21       1.0  0.8239530183788658  0.9004137142536348  0.6282347764220977  1.0000
  C   C22       1.0  0.8378380711617002  0.9323444269788176  0.2106775606320168  1.0000
  C   C23       1.0  0.7987143736129027  0.02658598554933111  0.13654205484959658  1.0000
  C   C24       1.0  0.8032954304322283  0.0367830011285617  0.0006308345296899255  1.0000
  C   C25       1.0  0.8469338688882332  0.9532613298514361  0.9371638940953431  1.0000
  C   C26       1.0  0.8860463876460744  0.8593317859025967  0.009788344967844639  1.0000
  C   C27       1.0  0.8815874706070583  0.8487402662404365  0.14571319414084138  1.0000
  Cl  Cl1       1.0  0.8526048505673255  0.9663024600954828  0.7666400459649659  1.0000
  H   H11       1.0  0.8243675636845468  0.3480714547435137  0.6127522880402463  1.0000
  H   H12       1.0  0.8333253142885183  0.12860558946124123  0.37148992526855307  1.0000
  H   H13       1.0  0.8316617756805013  0.7115024005273526  0.37130567610337994  1.0000
  H   H14       1.0  0.820451276675912  0.8923611406879104  0.733538260205208  1.0000
  H   H15       1.0  0.8245593751413762  0.45512233155474663  0.6127739238609635  1.0000
  H   H16       1.0  0.7639361610139189  0.09121808421393895  0.18357191215175983  1.0000
  H   H17       1.0  0.772761545583566  0.10944496466268627  0.9447751966752069  1.0000
  H   H18       1.0  0.9200576619731037  0.7946667568528429  0.9610754563559718  1.0000
  H   H19       1.0  0.9129942147855282  0.7763550503483014  0.20006735451910343  1.0000
  C   C28       1.0  0.8262201944109145  0.4054603809939472  0.17939759399959843  1.0000
  C   C29       1.0  0.7588155206130109  0.35758386675011966  0.1827626719641036  1.0000
  C   C30       1.0  0.7246421431686574  0.3334273954001328  0.06732107464030457  1.0000
  C   C31       1.0  0.7587687999023193  0.3578111943131488  0.9474581726805522  1.0000
  C   C32       1.0  0.8261738588912358  0.40568820886115686  0.9421008296944966  1.0000
  C   C33       1.0  0.8595228138567687  0.42924181783002413  0.05859334957731055  1.0000
  C   C34       1.0  0.6533337844843494  0.2827696240342812  0.07193581691315099  1.0000
  C   C35       1.0  0.6041044800746748  0.3323458834630858  0.9811970650706133  1.0000
  C   C36       1.0  0.5370856849935918  0.28465488075041384  0.9858035628317532  1.0000
  C   C37       1.0  0.5183220810800155  0.18706883339711977  0.0806440070929475  1.0000
  C   C38       1.0  0.5668726113424979  0.13610053655528898  0.17225094629000084  1.0000
  C   C39       1.0  0.633985008802152  0.18442934829153312  0.1671923089163745  1.0000
  O   O1        1.0  0.5506667647656963  0.037828262713583735  0.2692051055023743  1.0000
  C   C40       1.0  0.48472938822161754  0.9797738670453222  0.28578836145240505  1.0000
  H   H20       1.0  0.8519134042677998  0.42364490705136193  0.5055728363087448  1.0000
  H   H21       1.0  0.7323890779365901  0.3406435788439921  0.2752586702134223  1.0000
  H   H22       1.0  0.7329828941837261  0.33769349171910273  0.8583402387323711  1.0000
  H   H23       1.0  0.9115229757250795  0.4661756904098051  0.055228939604185186  1.0000
  H   H24       1.0  0.8518442392668155  0.4239929502795847  0.6126021944872929  1.0000
  H   H25       1.0  0.6171978210398595  0.40916914795454007  0.9077712532990403  1.0000
  H   H26       1.0  0.4994878215729957  0.32374461885021777  0.915778511028742  1.0000
  H   H27       1.0  0.4660645304638904  0.152000728825876  0.08190544514661459  1.0000
  H   H28       1.0  0.6712793942006459  0.14359521869539504  0.23704607770698538  1.0000
  H   H29       1.0  0.47054506957314823  0.9315807973080715  0.1970445706608983  1.0000
  H   H30       1.0  0.48648405099996483  0.9052664691746287  0.3694441790335725  1.0000
  H   H31       1.0  0.4455688487292176  0.054755017823464154  0.3063919434589677  1.0000
  Zn  Zn1       1.0  0.7508331626216519  0.40696848624850657  0.5613765888101531  1.0000
  Zn  Zn2       1.0  0.9015542820238917  0.40417958039314117  0.5601213109490366  1.0000
  C   C41       1.0  0.8261801831277445  0.40047154195574675  0.7979335164995627  1.0000
  C   C42       1.0  0.8262089076587082  0.4106781328685035  0.3235644970436327  1.0000
  C   C43       1.0  0.8262341343632211  0.6427619927629888  0.5555787902259293  1.0000
  C   C44       1.0  0.8261549047230421  0.16838612275033688  0.5659192929516461  1.0000
  O   O2        1.0  0.8834029980812881  0.41136521715347496  0.3714718551728378  1.0000
  O   O3        1.0  0.8833799347382333  0.3976667628354115  0.7490730576713431  1.0000
  O   O4        1.0  0.8834227299063399  0.5933193807139476  0.5533699079527818  1.0000
  O   O5        1.0  0.883360151489772  0.2157126094876278  0.567174907949662  1.0000
  O   O6        1.0  0.7690272417220516  0.5954354581071484  0.554322992231062  1.0000
  O   O7        1.0  0.7689844468204144  0.3997844004926656  0.7500260727367775  1.0000
  O   O8        1.0  0.7690075102964167  0.4134828090881324  0.3724233089071301  1.0000
  O   O9        1.0  0.7689646636945896  0.21783019216272478  0.5681264590472255  1.0000
