data_image0
_chemical_formula_structural       NC6NC2H4C6BrH5C7ONH5Zn2C4O8
_chemical_formula_sum              "N3 C25 H14 Br1 O9 Zn2"
_cell_length_a       14.927258858638513
_cell_length_b       9.276564384272257
_cell_length_c       9.27304215883966
_cell_angle_alpha    86.1127255114725
_cell_angle_beta     90.09323234568471
_cell_angle_gamma    90.58593300640023

_space_group_name_H-M_alt    "P 1"
_space_group_IT_number       1

loop_
  _space_group_symop_operation_xyz
  'x, y, z'

loop_
  _atom_site_type_symbol
  _atom_site_label
  _atom_site_symmetry_multiplicity
  _atom_site_fract_x
  _atom_site_fract_y
  _atom_site_fract_z
  _atom_site_occupancy
  N   N1        1.0  0.8518834536353036  0.5614744917352752  0.4088007540450618  1.0000
  C   C1        1.0  0.7743569622978894  0.561474463337517  0.4088007646562968  1.0000
  C   C2        1.0  0.6779244554312294  0.5614745779090303  0.40880071470631285  1.0000
  C   C3        1.0  0.6305850259903313  0.5364503758533479  0.2821532032863894  1.0000
  C   C4        1.0  0.5368737146658704  0.536450400083744  0.2821530698260042  1.0000
  C   C5        1.0  0.49010839033141895  0.5614744005578505  0.40880073348268886  1.0000
  C   C6        1.0  0.3936758164732354  0.5614745151322653  0.408800683526779  1.0000
  N   N2        1.0  0.3161493251358218  0.5614744867345072  0.40880069413801423  1.0000
  C   C7        1.0  0.5374477527807937  0.5864986026164347  0.5354482448966864  1.0000
  C   C8        1.0  0.6311590641052545  0.5864985783860388  0.5354483783570718  1.0000
  H   H1        1.0  0.6660578778213992  0.5169801344182046  0.1836141707314114  1.0000
  H   H2        1.0  0.5009542235601747  0.5169803319008139  0.18361416563022703  1.0000
  H   H3        1.0  0.5019749679884769  0.6059688348721415  0.6339873855298033  1.0000
  H   H4        1.0  0.6670785559457555  0.605968745054724  0.633987392483679  1.0000
  C   C9        1.0  0.0813220437011715  0.1379973959952645  0.4091693138916306  1.0000
  C   C10       1.0  0.06969963713922844  0.22010954370662072  0.27743374382196806  1.0000
  C   C11       1.0  0.0664157309593032  0.15374648999598126  0.1469286490259949  1.0000
  C   C12       1.0  0.07473165316930719  0.004326192703756559  0.14568110175615057  1.0000
  C   C13       1.0  0.08477372448812796  0.920499740087681  0.27542460768807975  1.0000
  C   C14       1.0  0.08671926997009964  0.9849405670272736  0.40844458178437115  1.0000
  Br  Br1       1.0  0.0708972436743261  0.9140827969415637  0.9666053097073664  1.0000
  H   H5        1.0  0.05530537593092989  0.4030172289941474  0.6434990372748612  1.0000
  H   H6        1.0  0.06527606474221459  0.33673995380728217  0.274966189117017  1.0000
  H   H7        1.0  0.05825718165552088  0.21890955150905778  0.04653000746915503  1.0000
  H   H8        1.0  0.08891530496213879  0.8042270359777685  0.2723170755396829  1.0000
  H   H9        1.0  0.13638023444710423  0.6893716876195344  0.6329310792477634  1.0000
  C   C15       1.0  0.08356387779093227  0.5570121563660038  0.9855458803759808  1.0000
  C   C16       1.0  0.0013416746694374642  0.5661951412559244  0.058218838382884996  1.0000
  C   C17       1.0  0.9208260879181697  0.5893268730733107  0.9819428919434624  1.0000
  C   C18       1.0  0.9230182600706353  0.6015337959292892  0.8304337465121847  1.0000
  C   C19       1.0  0.00376041805586458  0.5902335489565755  0.7567531696295355  1.0000
  C   C20       1.0  0.08447745884271618  0.5659257975313049  0.832068092043686  1.0000
  C   C21       1.0  0.8352846023559144  0.5992821528429313  0.06179440241693768  1.0000
  O   O1        1.0  0.8289441142450609  0.543476701717297  0.18921277470079123  1.0000
  N   N3        1.0  0.7595499166948306  0.672442429833324  0.9981953480687595  1.0000
  H   H10       1.0  0.3012632362715446  0.6120951685146467  0.08545878352036218  1.0000
  H   H11       1.0  0.8621895709744424  0.6157920520342852  0.7677984195248309  1.0000
  H   H12       1.0  0.23117105895903686  0.5963360307134996  0.5491202736620227  1.0000
  H   H13       1.0  0.7642609971422188  0.7347151061704484  0.9004762358181982  1.0000
  H   H14       1.0  0.6989995842926956  0.6722801184822833  0.05443795421519804  1.0000
  Zn  Zn1       1.0  0.9858605477985672  0.5614707138352494  0.4088090684844399  1.0000
  Zn  Zn2       1.0  0.18217217934111618  0.561466577042355  0.40880421330888383  1.0000
  C   C22       1.0  0.08426614076671668  0.5584960369618294  0.6720621599702947  1.0000
  C   C23       1.0  0.08376874183776511  0.5644430749053231  0.14555126168136323  1.0000
  C   C24       1.0  0.0856882665782255  0.8247898230569377  0.40283796261032756  1.0000
  C   C25       1.0  0.08234653808071823  0.2981475570399321  0.4147755373697397  1.0000
  O   O2        1.0  0.158336697075094  0.5669290978430281  0.19924869218397934  1.0000
  O   O3        1.0  0.15869416414774173  0.556005782028147  0.6183606305207814  1.0000
  O   O4        1.0  0.15984154605775833  0.7710413978468034  0.4009601850885818  1.0000
  O   O5        1.0  0.15718924812632673  0.35189349120380803  0.4166490295380394  1.0000
  O   O6        1.0  0.010843412021832815  0.7710437996766981  0.40096425224935817  1.0000
  O   O7        1.0  0.009696041065830887  0.5560099156312259  0.6183646193472225  1.0000
  O   O8        1.0  0.009338571862386848  0.5669331629460848  0.1992509481377729  1.0000
  O   O9        1.0  0.008191122960846686  0.3518975471303296  0.416651393564047  1.0000
