data_image0
_chemical_formula_structural       NC5NC4H6C6NCH9C6BrH4Zn2C4O8
_chemical_formula_sum              "N3 C26 H19 Br1 Zn2 O8"
_cell_length_a       13.854160002989762
_cell_length_b       9.273386996610926
_cell_length_c       9.276567756262422
_cell_angle_alpha    86.02760264675325
_cell_angle_beta     90.1862127555096
_cell_angle_gamma    89.39858485477477

_space_group_name_H-M_alt    "P 1"
_space_group_IT_number       1

loop_
  _space_group_symop_operation_xyz
  'x, y, z'

loop_
  _atom_site_type_symbol
  _atom_site_label
  _atom_site_symmetry_multiplicity
  _atom_site_fract_x
  _atom_site_fract_y
  _atom_site_fract_z
  _atom_site_occupancy
  N   N1        1.0  0.8944610667991525  0.5632758431112608  0.40806617390817373  1.0000
  C   C1        1.0  0.8218267321336431  0.5879174516458137  0.34900696691837957  1.0000
  C   C2        1.0  0.7314685920077243  0.6185722745638685  0.27553505252756577  1.0000
  C   C3        1.0  0.6442557673006016  0.5897821235008913  0.3472719700606548  1.0000
  C   C4        1.0  0.5563261794869049  0.6185722886708716  0.2755350293426668  1.0000
  C   C5        1.0  0.4667185919981449  0.587917305177708  0.3490070587377796  1.0000
  N   N2        1.0  0.394687496647633  0.5632757795937198  0.4080661739257803  1.0000
  C   C6        1.0  0.555637826827705  0.6767593692387792  0.13207916133618183  1.0000
  C   C7        1.0  0.642802581975153  0.7076993010850285  0.06023532520936814  1.0000
  C   C8        1.0  0.6420556865375676  0.766015104439618  0.9052956209691089  1.0000
  C   C9        1.0  0.7307149156825375  0.6767593670291228  0.1320790711038049  1.0000
  H   H1        1.0  0.6448146264426198  0.5446351263617114  0.4583043603547013  1.0000
  H   H2        1.0  0.487494447375008  0.6980077485307576  0.0764207442372973  1.0000
  H   H3        1.0  0.706380570263963  0.8339640452528545  0.8814086130708706  1.0000
  H   H4        1.0  0.5766720927291809  0.8339640477675445  0.8814086781211374  1.0000
  H   H5        1.0  0.6425415486859511  0.6747619859687362  0.8339246585438584  1.0000
  H   H6        1.0  0.7983174054861241  0.6980078602129203  0.07642065866764614  1.0000
  C   C10       1.0  0.14754857104571825  0.13962875574500844  0.40877423290194415  1.0000
  C   C11       1.0  0.16422190876674847  0.22182783034965592  0.27849456942220474  1.0000
  C   C12       1.0  0.17180706270483648  0.15604833879001934  0.1482068519443167  1.0000
  C   C13       1.0  0.16283075283569293  0.0057149569040559865  0.14486764366708818  1.0000
  C   C14       1.0  0.14785744822189636  0.9225485333149815  0.27469474490644274  1.0000
  C   C15       1.0  0.14160931976935567  0.986911860419223  0.4073706578128494  1.0000
  N   N3        1.0  0.16959427199649682  0.9348726841146836  0.011890007316992298  1.0000
  C   C16       1.0  0.18537729471222875  0.01139146938732578  0.8712833652315762  1.0000
  H   H7        1.0  0.16776725454448682  0.40409133155528343  0.6453309248859742  1.0000
  H   H8        1.0  0.16914131839885238  0.3384564021191374  0.27672683282623667  1.0000
  H   H9        1.0  0.18377313296010878  0.22369146866465225  0.05033430940847805  1.0000
  H   H10       1.0  0.1432967204757325  0.8061251924826099  0.27242170978925123  1.0000
  H   H11       1.0  0.17788843027887877  0.858988536936893  0.7583115792645498  1.0000
  H   H12       1.0  0.16277654851445167  0.8225348385571741  0.014877867862487236  1.0000
  H   H13       1.0  0.12548735008290057  0.08971974217331534  0.8462487006484603  1.0000
  H   H14       1.0  0.2552410823301512  0.06894548566480284  0.8715158776688079  1.0000
  H   H15       1.0  0.18763065373497612  0.9331190716733566  0.7859827145759026  1.0000
  C   C17       1.0  0.1436866819262811  0.559124435259164  0.9849525469747618  1.0000
  C   C18       1.0  0.05766950016684878  0.5938546206989419  0.05550584285639638  1.0000
  C   C19       1.0  0.975858228150608  0.6404682233122008  0.9767276254794767  1.0000
  C   C20       1.0  0.9785269927302864  0.653295765314654  0.8262105319657942  1.0000
  C   C21       1.0  0.06266280582766989  0.6170071609290284  0.7539327552303067  1.0000
  C   C22       1.0  0.14547126055349197  0.5674162458351271  0.8311923337822109  1.0000
  Br  Br1       1.0  0.8665452718604336  0.7182540004886668  0.7188526855188764  1.0000
  H   H16       1.0  0.27739047811614204  0.42808917622215115  0.27600381981989197  1.0000
  H   H17       1.0  0.9105915738963821  0.6679740220116033  0.03299944099776187  1.0000
  H   H18       1.0  0.06245923684328478  0.6243764243126302  0.6368700841778248  1.0000
  H   H19       1.0  0.3043931275782226  0.5525192959835767  0.5518222939631823  1.0000
  Zn  Zn1       1.0  0.038815659161140145  0.5632720439730894  0.40807450995401245  1.0000
  Zn  Zn2       1.0  0.250333013168055  0.5632678892105024  0.40806969085621697  1.0000
  C   C23       1.0  0.14517204301700756  0.560101649810296  0.6712443992845203  1.0000
  C   C24       1.0  0.14397892661369394  0.566440104988994  0.14489993987867122  1.0000
  C   C25       1.0  0.1427149044294611  0.8267010724920014  0.4018942083144288  1.0000
  C   C26       1.0  0.146436005336956  0.29983894978518144  0.4142502105403809  1.0000
  O   O1        1.0  0.22434678423230697  0.5688874400289854  0.1985779276785378  1.0000
  O   O2        1.0  0.2253409696654817  0.5576500690039408  0.6175623409304354  1.0000
  O   O3        1.0  0.2233557202663079  0.772932489130605  0.4000601535644708  1.0000
  O   O4        1.0  0.22633196115477083  0.3536050291653008  0.41608000699413616  1.0000
  O   O5        1.0  0.06281663899390533  0.7729349040212057  0.4000641938101561  1.0000
  O   O6        1.0  0.06480187607684451  0.5576542164195626  0.6175663014785662  1.0000
  O   O7        1.0  0.06380768740712028  0.5688915201975393  0.19858015597243606  1.0000
  O   O8        1.0  0.06579286462577483  0.35360910007378854  0.4160823433324643  1.0000
