data_image0
_chemical_formula_structural       NC9NC3NH7C6NCOCH7C8NH11Zn2C4O8
_chemical_formula_sum              "N5 C32 H25 O9 Zn2"
_cell_length_a       16.053384444249904
_cell_length_b       10.300268703208214
_cell_length_c       9.275652972338538
_cell_angle_alpha    85.93999847967777
_cell_angle_beta     90.23845156290304
_cell_angle_gamma    89.1549403880511

_space_group_name_H-M_alt    "P 1"
_space_group_IT_number       1

loop_
  _space_group_symop_operation_xyz
  'x, y, z'

loop_
  _atom_site_type_symbol
  _atom_site_label
  _atom_site_symmetry_multiplicity
  _atom_site_fract_x
  _atom_site_fract_y
  _atom_site_fract_z
  _atom_site_occupancy
  N   N1        1.0  0.7771620073742755  0.3944974485761956  0.40686168172814735  1.0000
  C   C1        1.0  0.726051542173412  0.37319726161923406  0.3237942324872676  1.0000
  C   C2        1.0  0.6625353786049019  0.3467316788630182  0.22060421072750877  1.0000
  C   C3        1.0  0.6755263875193196  0.33380012130222547  0.07551391963503738  1.0000
  C   C4        1.0  0.5986565343024535  0.30813285426214937  0.01752184318479433  1.0000
  C   C5        1.0  0.5420506826505973  0.30683295245692577  0.130359122070145  1.0000
  C   C6        1.0  0.4513543375474657  0.28294591825407456  0.11898708356603183  1.0000
  C   C7        1.0  0.3959005442305338  0.32627010585752547  0.22320683233466077  1.0000
  C   C8        1.0  0.3103098983224629  0.30361485102958513  0.21231456771977886  1.0000
  C   C9        1.0  0.2540870521926958  0.3486993030376915  0.3191667025176914  1.0000
  N   N2        1.0  0.2089004757375348  0.38494083499458  0.4050590854220788  1.0000
  C   C10       1.0  0.27944710711137133  0.23752352034295998  0.09721777040660706  1.0000
  C   C11       1.0  0.3338933398239469  0.19432032370337973  0.9932329357155432  1.0000
  C   C12       1.0  0.4192761494639694  0.21680726961689545  0.0036850649277475594  1.0000
  N   N3        1.0  0.5817707934463986  0.3305330099813908  0.25416501211967835  1.0000
  H   H1        1.0  0.7340105727656201  0.3420973258495335  0.01822941332513439  1.0000
  H   H2        1.0  0.58591252806071  0.29369890942380716  0.9052354117368383  1.0000
  H   H3        1.0  0.4185903475248456  0.3792475029645304  0.3117685743314682  1.0000
  H   H4        1.0  0.2133883325489006  0.21950270938792982  0.08785921577225507  1.0000
  H   H5        1.0  0.3099117044903447  0.14298306745424558  0.9044116557968662  1.0000
  H   H6        1.0  0.4600509784698956  0.18088621667068666  0.9223932675907913  1.0000
  H   H7        1.0  0.5560525492185437  0.3335068851579812  0.3571110534378381  1.0000
  C   C13       1.0  0.9931198905481027  0.008369603655385752  0.4059685199006777  1.0000
  C   C14       1.0  0.006508152518378108  0.016563569675454918  0.25608308709496663  1.0000
  C   C15       1.0  0.01439226761421186  0.9033687878340526  0.18085886512854077  1.0000
  C   C16       1.0  0.006319849981345716  0.7814084338939715  0.2561198312487505  1.0000
  C   C17       1.0  0.9929505880481302  0.7710586441369951  0.4059646416707354  1.0000
  C   C18       1.0  0.9867351879610068  0.8851292473932753  0.48018415544902265  1.0000
  N   N4        1.0  0.026800801988019488  0.9101942938422631  0.027045799050966268  1.0000
  C   C19       1.0  0.07536796701028403  0.0077638912085862205  0.9493947282733114  1.0000
  O   O1        1.0  0.12269860467934879  0.08010957831066845  0.015756219574328604  1.0000
  C   C20       1.0  0.07469517340625065  0.017699440197062266  0.7879341143306644  1.0000
  H   H8        1.0  0.009152587075806684  0.1110037117401501  0.197435354025999  1.0000
  H   H9        1.0  0.011232792592708705  0.6945847125979014  0.19709896798717974  1.0000
  H   H10       1.0  0.9764319532233878  0.8779997059438582  0.5957924819808391  1.0000
  H   H11       1.0  0.0036006760833167165  0.8349375589606168  0.9692290574446778  1.0000
  H   H12       1.0  0.010756678678903958  0.0018353564191930802  0.7473368929805715  1.0000
  H   H13       1.0  0.09516457905441578  0.11565501341096175  0.7458202024711214  1.0000
  H   H14       1.0  0.11752059978400164  0.9427887703299905  0.7480781960535126  1.0000
  C   C21       1.0  0.9911812115946799  0.38722415175948877  0.9827036081516564  1.0000
  C   C22       1.0  0.937126969279188  0.4733664441918961  0.04907591593576055  1.0000
  C   C23       1.0  0.889648886434338  0.5669409770963887  0.9665735480649827  1.0000
  C   C24       1.0  0.8951000199366327  0.5731470428279002  0.8157653740817187  1.0000
  C   C25       1.0  0.947319990511901  0.4871031584399049  0.7479926470980232  1.0000
  C   C26       1.0  0.9948893066818167  0.39220408164191367  0.8292295595722523  1.0000
  C   C27       1.0  0.8311587473803073  0.6570787363170898  0.03936095142723972  1.0000
  C   C28       1.0  0.7455157700483455  0.595524521984667  0.06050626931022007  1.0000
  N   N5        1.0  0.6889937606385044  0.6845350937735679  0.1289496273734867  1.0000
  H   H15       1.0  0.0522865744783918  0.19293106801677154  0.2790568750393456  1.0000
  H   H16       1.0  0.9331650791440581  0.4698411433693426  0.16592001009006618  1.0000
  H   H17       1.0  0.858144376370844  0.6439127564095597  0.7503360535256068  1.0000
  H   H18       1.0  0.9488228206586018  0.4926471688604271  0.6309664654043017  1.0000
  H   H19       1.0  0.10916197819746687  0.27073435184153904  0.558273020149556  1.0000
  H   H20       1.0  0.8572431682159408  0.6793194969323859  0.14596620818782657  1.0000
  H   H21       1.0  0.8244685120467803  0.7509825835111463  0.9730788255776366  1.0000
  H   H22       1.0  0.7194749633346758  0.5743261960421755  0.9534836698406076  1.0000
  H   H23       1.0  0.7514171745568394  0.5023852604803527  0.12867485981440094  1.0000
  H   H24       1.0  0.6301624611038078  0.6422284208899074  0.13359835081704952  1.0000
  H   H25       1.0  0.7085001084915971  0.6906031314854659  0.23598807328080662  1.0000
  Zn  Zn1       1.0  0.9017524382053996  0.3917362019006218  0.406349807329893  1.0000
  Zn  Zn2       1.0  0.0843100753963637  0.3876915711084493  0.4055827401163492  1.0000
  C   C29       1.0  0.9941876652782107  0.3860893872737985  0.6692180694755927  1.0000
  C   C30       1.0  0.9918768421032622  0.3933399809364233  0.14271461105487204  1.0000
  C   C31       1.0  0.9929531541452872  0.6268604681659777  0.40022173131932615  1.0000
  C   C32       1.0  0.9931112916249402  0.15256734165330646  0.41171102632540646  1.0000
  O   O2        1.0  0.061389975220971234  0.3938519273171495  0.19612466736651424  1.0000
  O   O3        1.0  0.06323155309224582  0.3825066775947296  0.6152254119888623  1.0000
  O   O4        1.0  0.06223374238168167  0.5769323998891258  0.3980089696513136  1.0000
  O   O5        1.0  0.06238772316152863  0.1994262150569006  0.4133410018943122  1.0000
  O   O6        1.0  0.9236747281422392  0.5800015593337738  0.3985915458061115  1.0000
  O   O7        1.0  0.9246725381660533  0.3855773968119179  0.6158079112835733  1.0000
  O   O8        1.0  0.9228309527694404  0.3969225910850512  0.19670543373784444  1.0000
  O   O9        1.0  0.9238287011820089  0.20249687017225806  0.413921876329574  1.0000
