data_image0
_chemical_formula_structural       NC8NC6H8C7F3H5C8H5Zn2C4O8
_chemical_formula_sum              "N2 C33 H18 F3 Zn2 O8"
_cell_length_a       17.457602349358154
_cell_length_b       9.272718291674593
_cell_length_c       9.275144076552241
_cell_angle_alpha    86.39339924805473
_cell_angle_beta     93.32514331016303
_cell_angle_gamma    91.24279848523653

_space_group_name_H-M_alt    "P 1"
_space_group_IT_number       1

loop_
  _space_group_symop_operation_xyz
  'x, y, z'

loop_
  _atom_site_type_symbol
  _atom_site_label
  _atom_site_symmetry_multiplicity
  _atom_site_fract_x
  _atom_site_fract_y
  _atom_site_fract_z
  _atom_site_occupancy
  N   N1        1.0  0.709642227704466  0.6017098295214636  0.4864528914668135  1.0000
  C   C1        1.0  0.648713912438881  0.5506480853546756  0.4742991734902593  1.0000
  C   C2        1.0  0.5729165253139262  0.48713369460259526  0.4591905892534061  1.0000
  C   C3        1.0  0.5145660495080425  0.5323101108016814  0.542676983027718  1.0000
  C   C4        1.0  0.440200431838575  0.4711518949202209  0.528267552938211  1.0000
  C   C5        1.0  0.37827013349220795  0.5188534370824085  0.6166817907270898  1.0000
  C   C6        1.0  0.3033805933902256  0.5389092666035791  0.5549092471179518  1.0000
  C   C7        1.0  0.24503142253995272  0.583882384631967  0.6385140466317563  1.0000
  C   C8        1.0  0.1686906606392143  0.6045930667316408  0.5742862863600512  1.0000
  N   N2        1.0  0.10732563301844465  0.6212373748519506  0.5226472839779317  1.0000
  C   C9        1.0  0.26108096703871114  0.6090736117323499  0.784457984997212  1.0000
  C   C10       1.0  0.3351859377352501  0.5894526464396699  0.8466640173938  1.0000
  C   C11       1.0  0.3935248766059633  0.5446830353761545  0.7635689061681279  1.0000
  C   C12       1.0  0.42547013215725643  0.36405391069035464  0.4287752175286763  1.0000
  C   C13       1.0  0.4838095622793581  0.31919001663255564  0.345735208105969  1.0000
  C   C14       1.0  0.5573925157180333  0.38047735044694264  0.3607561974858755  1.0000
  H   H1        1.0  0.5268970455608325  0.6163068795752267  0.6172629587386498  1.0000
  H   H2        1.0  0.2906201991304264  0.5214795387416808  0.44150206330214986  1.0000
  H   H3        1.0  0.2163628393718424  0.6438222651036488  0.8500353712048521  1.0000
  H   H4        1.0  0.3474240929524328  0.6086084109360336  0.9596691478823818  1.0000
  H   H5        1.0  0.4502927789817416  0.5284093139234025  0.8146459729712947  1.0000
  H   H6        1.0  0.3691323618911573  0.3136464130168528  0.41658609512702927  1.0000
  H   H7        1.0  0.47198188020820125  0.23642297999620965  0.2698275161810171  1.0000
  H   H8        1.0  0.6021168743828124  0.3447673998786199  0.29573943225780086  1.0000
  C   C15       1.0  0.9101452153204962  0.18815014317809498  0.5015170780948845  1.0000
  C   C16       1.0  0.8629474549501718  0.26644647219753326  0.39760447288185263  1.0000
  C   C17       1.0  0.8103683499380034  0.19571402531401594  0.3045757162969118  1.0000
  C   C18       1.0  0.8070081805470153  0.04431946862124937  0.31269721275858975  1.0000
  C   C19       1.0  0.8542500697375643  0.9650443623535362  0.41349465507377353  1.0000
  C   C20       1.0  0.9068300618137161  0.034786378366508997  0.507596200614439  1.0000
  C   C21       1.0  0.7617359170437146  0.28147291260392443  0.1913621370225203  1.0000
  F   F1        1.0  0.7422405540950153  0.412302319340383  0.241975195572562  1.0000
  F   F2        1.0  0.6946246097537119  0.20656586348728204  0.15513819126133105  1.0000
  F   F3        1.0  0.8025953481762238  0.3073757339586676  0.06881477649804715  1.0000
  H   H9        1.0  0.002577710479963584  0.27356406660388344  0.8210161859509908  1.0000
  H   H10       1.0  0.8659819509291621  0.3835172471368983  0.39117166532198694  1.0000
  H   H11       1.0  0.768358708696483  0.9868428455391027  0.23986278177287979  1.0000
  H   H12       1.0  0.8511264029375709  0.8481354944743633  0.41514977105126  1.0000
  H   H13       1.0  0.07229687127912432  0.9282145136602507  0.6961485974107164  1.0000
  C   C22       1.0  0.9066916926899128  0.6084296232540958  0.08108542897259818  1.0000
  C   C23       1.0  0.8562910097590495  0.6999862340124532  0.1431805791096117  1.0000
  C   C24       1.0  0.8120197619482814  0.7989876380599574  0.056978527622195914  1.0000
  C   C25       1.0  0.8173474978670234  0.808462981340628  0.9071023694546314  1.0000
  C   C26       1.0  0.8661555149111771  0.7167224304396862  0.8431056364227826  1.0000
  C   C27       1.0  0.9102835980601995  0.614506944133093  0.9280278495999772  1.0000
  C   C28       1.0  0.7719462003583362  0.9113723969546147  0.8184574199561863  1.0000
  C   C29       1.0  0.7339363267562385  0.9975318463444186  0.7442248140429659  1.0000
  H   H14       1.0  0.0669582388402512  0.4270268846937628  0.21284961140932995  1.0000
  H   H15       1.0  0.8524621079405028  0.6973744531350486  0.2594839589805964  1.0000
  H   H16       1.0  0.7741413317745818  0.8692197909272643  0.10751271312567481  1.0000
  H   H17       1.0  0.8683320323586758  0.7228205700491619  0.726264262362323  1.0000
  H   H18       1.0  0.7005715499299503  0.07316145158538845  0.6790625164563395  1.0000
  Zn  Zn1       1.0  0.8244051185252839  0.6073412511935451  0.4969061098284849  1.0000
  Zn  Zn2       1.0  0.9925628242986434  0.6155942187004695  0.51220578708588  1.0000
  C   C30       1.0  0.9096254246006108  0.6076152450737824  0.7678961690373953  1.0000
  C   C31       1.0  0.9073443479783635  0.6153221348436366  0.24121604954752265  1.0000
  C   C32       1.0  0.9074283861859948  0.8747126855973972  0.5007002219282739  1.0000
  C   C33       1.0  0.9095413361203093  0.3482229601026259  0.5084120558824623  1.0000
  O   O1        1.0  0.971378382660716  0.6207609938202652  0.30076345125102133  1.0000
  O   O2        1.0  0.9732192001935508  0.6084391069928585  0.719960445435463  1.0000
  O   O3        1.0  0.9714442099912934  0.824123636663009  0.5041977601809849  1.0000
  O   O4        1.0  0.9731533149832009  0.40507647087033  0.5165260232341875  1.0000
  O   O5        1.0  0.843814570456716  0.8178589962088668  0.49258586845157426  1.0000
  O   O6        1.0  0.8455895535476342  0.6021761979412938  0.708348489251631  1.0000
  O   O7        1.0  0.8437487289095487  0.6144980220957843  0.2891497609353144  1.0000
  O   O8        1.0  0.8455236617277957  0.3988134896108162  0.5049124409611898  1.0000
