data_image0
_chemical_formula_structural       NC6NC3H6C9H8C6OCH7Zn2C4O8
_chemical_formula_sum              "N2 C29 H21 O9 Zn2"
_cell_length_a       14.934028789175542
_cell_length_b       9.275152443626249
_cell_length_c       9.273891588657152
_cell_angle_alpha    85.88202133130156
_cell_angle_beta     89.65557739525336
_cell_angle_gamma    90.53595971611534

_space_group_name_H-M_alt    "P 1"
_space_group_IT_number       1

loop_
  _space_group_symop_operation_xyz
  'x, y, z'

loop_
  _atom_site_type_symbol
  _atom_site_label
  _atom_site_symmetry_multiplicity
  _atom_site_fract_x
  _atom_site_fract_y
  _atom_site_fract_z
  _atom_site_occupancy
  N   N1        1.0  0.8584394198017693  0.563524830023711  0.4041565499445232  1.0000
  C   C1        1.0  0.7809488203574937  0.5624202270189123  0.4034815712342317  1.0000
  C   C2        1.0  0.6845465877550831  0.5610410238355672  0.4026389869445499  1.0000
  C   C3        1.0  0.6372279606348189  0.6684533232453578  0.468153019611885  1.0000
  C   C4        1.0  0.5437116590399785  0.6673459283230159  0.4674774566923128  1.0000
  C   C5        1.0  0.4966016613887775  0.5588810512683722  0.4013214952402966  1.0000
  C   C6        1.0  0.3999655079493151  0.5612082864158541  0.40274223260571207  1.0000
  N   N2        1.0  0.32249301750265513  0.5630552438783678  0.4038700951404976  1.0000
  C   C7        1.0  0.5439085779221075  0.44998272118201205  0.33490053540357356  1.0000
  C   C8        1.0  0.495104946882384  0.33205886470537105  0.2629764843933573  1.0000
  C   C9        1.0  0.6380606181618367  0.452220105515732  0.3362652363480767  1.0000
  H   H1        1.0  0.6726220146536276  0.7530842569635516  0.5197725896258332  1.0000
  H   H2        1.0  0.508023074540757  0.7513250798370716  0.5186993414889591  1.0000
  H   H3        1.0  0.4529631858553393  0.3803434500461931  0.17420878540080542  1.0000
  H   H4        1.0  0.45169548437782525  0.26991797747641355  0.34329943415750996  1.0000
  H   H5        1.0  0.5422481237048816  0.2556778183933359  0.21638293656036867  1.0000
  H   H6        1.0  0.6752468788806735  0.3693581296286954  0.2857250405955425  1.0000
  C   C10       1.0  0.08782402912843995  0.13967368972559568  0.40548647648335834  1.0000
  C   C11       1.0  0.055939583441737745  0.22134005536720977  0.2830543708870985  1.0000
  C   C12       1.0  0.03238637184578929  0.15479655030161066  0.15832451923457458  1.0000
  C   C13       1.0  0.04034951912352655  0.005403564365521707  0.1535570982692986  1.0000
  C   C14       1.0  0.07048649423170006  0.922041479056359  0.27495540636906246  1.0000
  C   C15       1.0  0.09311690715130139  0.9868953994056769  0.4025526123891896  1.0000
  C   C16       1.0  0.016530150189741903  0.9371121219121488  0.024391139647174532  1.0000
  C   C17       1.0  0.9965870286009361  0.8799005754764321  0.9162348999359112  1.0000
  C   C18       1.0  0.9723900008239704  0.810472481735075  0.785006271232779  1.0000
  H   H7        1.0  0.2155081519093508  0.22379426104623623  0.6932668348774942  1.0000
  H   H8        1.0  0.05122428332589423  0.3378582206018934  0.282603893968709  1.0000
  H   H9        1.0  0.008764030962349123  0.2202175981132299  0.06498842013128558  1.0000
  H   H10       1.0  0.07427026121726653  0.805691325783198  0.27093217065102304  1.0000
  H   H11       1.0  0.17620183980873694  0.69328909496523  0.5993873371617362  1.0000
  H   H12       1.0  0.9887134975448535  0.6938556792509418  0.798461728492053  1.0000
  H   H13       1.0  0.8995772234082392  0.8229506191335924  0.7653189201173273  1.0000
  H   H14       1.0  0.010522732416504471  0.8619402795671572  0.6916846807656891  1.0000
  C   C19       1.0  0.09191350401591869  0.5594625390454271  0.9807565550685218  1.0000
  C   C20       1.0  0.16562400649494097  0.6203184655097147  0.049073994649186714  1.0000
  C   C21       1.0  0.2343226783838565  0.6919513832679435  0.9689738219996461  1.0000
  C   C22       1.0  0.22955716293070838  0.7030895961109271  0.8174976405384198  1.0000
  C   C23       1.0  0.15772241698338296  0.6413583008084041  0.7478398664925051  1.0000
  C   C24       1.0  0.08902740460707267  0.5671064629509339  0.8272825471014218  1.0000
  O   O1        1.0  0.3055767008006791  0.7510336716928725  0.04393182933326733  1.0000
  C   C25       1.0  0.37978750371084424  0.8268778137019477  0.9765470426896407  1.0000
  H   H15       1.0  0.8783745190389987  0.47107733505297267  0.09221208483701025  1.0000
  H   H16       1.0  0.28148283123475726  0.7581225350095624  0.7523529098940627  1.0000
  H   H17       1.0  0.15704635728967156  0.6487937505484302  0.6307333907934547  1.0000
  H   H18       1.0  0.9465859766184652  0.5018804689770098  0.5521539441429012  1.0000
  H   H19       1.0  0.35636127986523536  0.9245209464149993  0.9118282596565472  1.0000
  H   H20       1.0  0.4166759888591003  0.7552463261356527  0.9063592480241169  1.0000
  H   H21       1.0  0.4258392324709522  0.8613121857219457  0.06124288995811522  1.0000
  Zn  Zn1       1.0  0.9923552249969011  0.5633855270963435  0.40408221572851993  1.0000
  Zn  Zn2       1.0  0.1885771283749862  0.5631828366070946  0.40395625436663407  1.0000
  C   C26       1.0  0.08953505457289257  0.5599148316135496  0.6672909283202864  1.0000
  C   C27       1.0  0.09139945242479608  0.5666553512973163  0.14074767556531387  1.0000
  C   C28       1.0  0.09213140767330481  0.8267005744178868  0.397363533305386  1.0000
  C   C29       1.0  0.08880302127801731  0.29986787610551513  0.41067515346951405  1.0000
  O   O2        1.0  0.1656920824110104  0.5689861114282448  0.19439437725382902  1.0000
  O   O3        1.0  0.16417030360075213  0.5574291420899562  0.6135482137274193  1.0000
  O   O4        1.0  0.16626588262869924  0.7728620179407828  0.39557992792204866  1.0000
  O   O5        1.0  0.16359643685873856  0.3535532449900962  0.4123625549949883  1.0000
  O   O6        1.0  0.017335849552279514  0.7730151187840129  0.395675915135563  1.0000
  O   O7        1.0  0.015240281609828928  0.5575839753913201  0.6136441180870315  1.0000
  O   O8        1.0  0.016762066073684686  0.5691408788122101  0.19448854886399136  1.0000
  O   O9        1.0  0.014666420084867843  0.35370800303205363  0.41245683470475925  1.0000
