data_image0
_chemical_formula_structural       NC12NC2H8C13OH12C12IH9Zn2C4O8
_chemical_formula_sum              "N2 C43 H29 O9 I1 Zn2"
_cell_length_a       19.240039667572717
_cell_length_b       10.299150109392551
_cell_length_c       10.29977335064465
_cell_angle_alpha    85.52407015278276
_cell_angle_beta     90.00916568916979
_cell_angle_gamma    89.97992514300192

_space_group_name_H-M_alt    "P 1"
_space_group_IT_number       1

loop_
  _space_group_symop_operation_xyz
  'x, y, z'

loop_
  _atom_site_type_symbol
  _atom_site_label
  _atom_site_symmetry_multiplicity
  _atom_site_fract_x
  _atom_site_fract_y
  _atom_site_fract_z
  _atom_site_occupancy
  N   N1        1.0  0.65408773678386  0.4217993210172648  0.5669886542194739  1.0000
  C   C1        1.0  0.593939367943803  0.421799405028782  0.5669885722552417  1.0000
  C   C2        1.0  0.5191213307688711  0.421799522363324  0.5669884349124403  1.0000
  C   C3        1.0  0.48266857240983346  0.3572993222107938  0.6704213653249056  1.0000
  C   C4        1.0  0.4099978525266656  0.35718840718358646  0.6705079435084692  1.0000
  C   C5        1.0  0.37278909579466324  0.4217996150013982  0.5669882072006842  1.0000
  C   C6        1.0  0.4099560174314689  0.48641100976451024  0.4634686653730755  1.0000
  C   C7        1.0  0.4826267341667002  0.4862998591837656  0.4635553661334664  1.0000
  C   C8        1.0  0.2955840053616157  0.42179953636140977  0.5669881118105367  1.0000
  C   C9        1.0  0.2584210317072592  0.3085176465758872  0.6088953308095109  1.0000
  C   C10       1.0  0.18575031544287204  0.3086245816413729  0.6088039709211491  1.0000
  C   C11       1.0  0.14925171846787064  0.42179940716066966  0.5669881727624377  1.0000
  C   C12       1.0  0.0744336813555652  0.42179929333708066  0.5669884214599192  1.0000
  N   N2        1.0  0.014285364528985196  0.42179925245021566  0.5669886298924556  1.0000
  C   C13       1.0  0.18570063233072465  0.5349743085288781  0.5251723216885397  1.0000
  C   C14       1.0  0.25837130062062874  0.5350814237765493  0.5250807991475644  1.0000
  H   H1        1.0  0.5103997206288902  0.30736166908108137  0.7511787230552776  1.0000
  H   H2        1.0  0.38292077389801016  0.3080485812094659  0.7523805512997597  1.0000
  H   H3        1.0  0.38284656526256344  0.5355508628078784  0.3815960067246347  1.0000
  H   H4        1.0  0.5103253574531691  0.5362374119634561  0.3827982842308562  1.0000
  H   H5        1.0  0.2855337025218312  0.21934615276360578  0.6400916543298134  1.0000
  H   H6        1.0  0.15805478893910557  0.22035204182690027  0.6410329718848959  1.0000
  H   H7        1.0  0.1579663353925511  0.6232468238003392  0.4929433352831294  1.0000
  H   H8        1.0  0.2854451086045768  0.6242529967846806  0.49388443083022804  1.0000
  C   C15       1.0  0.8342554069241545  0.040399611614413404  0.5671327507419907  1.0000
  C   C16       1.0  0.8329870585991558  0.028555748341914097  0.7039430849664061  1.0000
  C   C17       1.0  0.8322834813389929  0.9054161347794293  0.7730451346962353  1.0000
  C   C18       1.0  0.8328530248715764  0.7933005090118109  0.7035796910519343  1.0000
  C   C19       1.0  0.8341243712841425  0.803188941036311  0.5668557555486602  1.0000
  C   C20       1.0  0.8348200442158784  0.9271986756645071  0.4994312894847846  1.0000
  C   C21       1.0  0.8309356448737797  0.8938684468851681  0.9176848340313544  1.0000
  C   C22       1.0  0.7882042918162994  0.8009684812496597  0.9857060556578618  1.0000
  C   C23       1.0  0.786912952621557  0.7901835277864814  0.12181186818212032  1.0000
  C   C24       1.0  0.8287854823323755  0.8711391881343405  0.19235694967412623  1.0000
  C   C25       1.0  0.8708519457573656  0.9649926020601218  0.12497829790633996  1.0000
  C   C26       1.0  0.8721594183602368  0.9759533526365658  0.98887219666689  1.0000
  C   C27       1.0  0.8259364433599822  0.861904361032766  0.3384427993449919  1.0000
  O   O1        1.0  0.7739926438531685  0.9450681044772171  0.37868334864390807  1.0000
  H   H9        1.0  0.8361979306969125  0.2700482945780074  0.3088968338720309  1.0000
  H   H10       1.0  0.8315799008173529  0.1153124221405528  0.7569515095801596  1.0000
  H   H11       1.0  0.8332541597997595  0.698161258869767  0.7564130532077  1.0000
  H   H12       1.0  0.8357987050718816  0.9355421277384828  0.3939720269271625  1.0000
  H   H13       1.0  0.8345665956660483  0.47951691080725284  0.5142669347892193  1.0000
  H   H14       1.0  0.7549613093921396  0.7379764389068418  0.9335975180680917  1.0000
  H   H15       1.0  0.7531078235454398  0.7188378700886048  0.172187290057623  1.0000
  H   H16       1.0  0.9028147641086712  0.029537377146831027  0.1778330393114539  1.0000
  H   H17       1.0  0.9059879044897121  0.04774418649812938  0.939303415721357  1.0000
  H   H18       1.0  0.8770638655264212  0.889720746117116  0.37861268060025965  1.0000
  H   H19       1.0  0.8146448604268982  0.7598710234527901  0.37625527405874937  1.0000
  H   H20       1.0  0.7742584631082697  0.9353600886931309  0.4753097503658855  1.0000
  C   C28       1.0  0.834156735440705  0.42190038621007675  0.1856250075605026  1.0000
  C   C29       1.0  0.8971482627254838  0.49090946633631694  0.17926272106986407  1.0000
  C   C30       1.0  0.9291000002970233  0.525769071173126  0.05890890369528434  1.0000
  C   C31       1.0  0.8972151548303752  0.4906952924989237  0.9439931854706823  1.0000
  C   C32       1.0  0.8342230451307192  0.42168821748110563  0.9483635130313999  1.0000
  C   C33       1.0  0.8030468346250565  0.3876761184212387  0.06964746133868639  1.0000
  C   C34       1.0  0.995739508594439  0.5987725997568164  0.05323215403051629  1.0000
  C   C35       1.0  0.006655024425679555  0.7018000336712785  0.13300535799610572  1.0000
  C   C36       1.0  0.06941252351177751  0.7703978109720793  0.12746060851319088  1.0000
  C   C37       1.0  0.12195199910225263  0.7370354970311318  0.042483367296768396  1.0000
  C   C38       1.0  0.11170676106546117  0.6348943321681009  0.9628525819521686  1.0000
  C   C39       1.0  0.04901980826558083  0.5660705646626738  0.9679914718496061  1.0000
  I   I1        1.0  0.21656760016693832  0.8406826737271089  0.034427468161886805  1.0000
  H   H21       1.0  0.8101338909466954  0.3956698032979349  0.5154977930337636  1.0000
  H   H22       1.0  0.921997283599708  0.5161584911593344  0.26823041404497494  1.0000
  H   H23       1.0  0.9211463023970364  0.5188852803510786  0.8508701427902468  1.0000
  H   H24       1.0  0.7544513487403879  0.3344398909069446  0.07378731585270693  1.0000
  H   H25       1.0  0.8102309985785886  0.3953576365030871  0.6225780667319017  1.0000
  H   H26       1.0  0.9663485526373043  0.7303802633088023  0.19838568580301644  1.0000
  H   H27       1.0  0.0770908779320365  0.8496811698586548  0.18901767932305935  1.0000
  H   H28       1.0  0.15235419593187838  0.6085505118048605  0.8971803012059252  1.0000
  H   H29       1.0  0.042549351578957895  0.48624627521052904  0.906595507254186  1.0000
  Zn  Zn1       1.0  0.7580330018722444  0.42179583166536005  0.5669961368906068  1.0000
  Zn  Zn2       1.0  0.9103401209530203  0.4217921445190247  0.5669917499775099  1.0000
  C   C40       1.0  0.834209845987537  0.41655422344075943  0.8041914521637937  1.0000
  C   C41       1.0  0.834164939756299  0.4270353914196779  0.32979656152783976  1.0000
  C   C42       1.0  0.8341451118921929  0.6590069992210104  0.5617329191940411  1.0000
  C   C43       1.0  0.8342296221539474  0.18458105519297294  0.5722551643044689  1.0000
  O   O2        1.0  0.8919674521088637  0.4287516806255707  0.37818018930979075  1.0000
  O   O3        1.0  0.8920049130062542  0.41483415607856805  0.755804121325789  1.0000
  O   O4        1.0  0.8919518603545976  0.6106178383981904  0.5600171400503702  1.0000
  O   O5        1.0  0.8920204527783568  0.2329680076252656  0.5739670732085834  1.0000
  O   O6        1.0  0.7763526180719621  0.6106199685617938  0.5600208136541989  1.0000
  O   O7        1.0  0.7764056704463692  0.4148378466912994  0.7558077251174065  1.0000
  O   O8        1.0  0.7763682094672427  0.4287553264130218  0.37818223171584897  1.0000
  O   O9        1.0  0.7764212101439539  0.23297164409607363  0.5739692129859342  1.0000
