data_image0
_chemical_formula_structural       NC10NC3NH7C7OC6H10C7OC3FC3H9Zn2C4O8
_chemical_formula_sum              "N3 C43 H26 O10 F1 Zn2"
_cell_length_a       19.210446455230148
_cell_length_b       10.299379429549807
_cell_length_c       10.29938172300155
_cell_angle_alpha    85.55361563187328
_cell_angle_beta     89.97418890370308
_cell_angle_gamma    89.94476483549958

_space_group_name_H-M_alt    "P 1"
_space_group_IT_number       1

loop_
  _space_group_symop_operation_xyz
  'x, y, z'

loop_
  _atom_site_type_symbol
  _atom_site_label
  _atom_site_symmetry_multiplicity
  _atom_site_fract_x
  _atom_site_fract_y
  _atom_site_fract_z
  _atom_site_occupancy
  N   N1        1.0  0.65565683734093  0.4199031274765765  0.5668444554822151  1.0000
  C   C1        1.0  0.5954280294464704  0.4221107957743536  0.5670748473823455  1.0000
  C   C2        1.0  0.5206232693515905  0.42484790014420665  0.5673602734882999  1.0000
  C   C3        1.0  0.48499831328020426  0.5410871595170539  0.5824322123224885  1.0000
  C   C4        1.0  0.4123328248311261  0.541238690726785  0.5823795635829268  1.0000
  C   C5        1.0  0.3754564294869231  0.4255569190024  0.5674465136431732  1.0000
  C   C6        1.0  0.2981344630750744  0.4242003472483833  0.5672963864677456  1.0000
  C   C7        1.0  0.2603777932975145  0.5277602546722144  0.503899728608616  1.0000
  C   C8        1.0  0.1875996000629946  0.526357935732219  0.5037911344802561  1.0000
  C   C9        1.0  0.1515766452465508  0.42165321823969765  0.5670281138044506  1.0000
  C   C10       1.0  0.0766472805328757  0.42035104622376807  0.5668917312142608  1.0000
  N   N2        1.0  0.0164095531091341  0.4193040557206198  0.5667821145024632  1.0000
  C   C11       1.0  0.1886096476192853  0.3182190028644054  0.6303997204471841  1.0000
  C   C12       1.0  0.2613897119959268  0.3193470537605583  0.6305586537540093  1.0000
  C   C13       1.0  0.4136910175324994  0.31113806485730766  0.5526621148661962  1.0000
  N   N3        1.0  0.4844606848176913  0.31358318694138854  0.552826840579155  1.0000
  H   H1        1.0  0.5130882351696842  0.6305275854390066  0.5944499698351785  1.0000
  H   H2        1.0  0.3850526842701004  0.6312613403227978  0.5957918338550867  1.0000
  H   H3        1.0  0.28710301563564655  0.6090050112044538  0.45288175566251043  1.0000
  H   H4        1.0  0.1594510450878599  0.6067752683589045  0.45410382669160854  1.0000
  H   H5        1.0  0.16124498610627744  0.2368382072612563  0.6799878737266633  1.0000
  H   H6        1.0  0.2888931950964981  0.2390492552618351  0.6816836349521329  1.0000
  H   H7        1.0  0.3874370618742675  0.22025244546175848  0.5392038929201489  1.0000
  C   C14       1.0  0.8360440923272474  0.038211726271918156  0.5669673494814802  1.0000
  C   C15       1.0  0.8782232013584286  0.028283005876475153  0.6787046504421897  1.0000
  C   C16       1.0  0.8988445065147798  0.9060372988571013  0.7359129903050903  1.0000
  C   C17       1.0  0.8781385154486953  0.793061000023528  0.6784283852327685  1.0000
  C   C18       1.0  0.8360289503162376  0.8009854994592849  0.5666704472949904  1.0000
  C   C19       1.0  0.8150747773689627  0.9240349566222374  0.5117853373280365  1.0000
  C   C20       1.0  0.9439871658230292  0.8954689211085727  0.8531015917834923  1.0000
  O   O1        1.0  0.9881462396468405  0.8046124699961478  0.8654500440009465  1.0000
  C   C21       1.0  0.939030304355186  0.9878704864477921  0.9562862516152879  1.0000
  C   C22       1.0  0.9985609622022383  0.01725556059208322  0.027837950056647805  1.0000
  C   C23       1.0  0.9942343555165198  0.1030487181314561  0.1263300527785849  1.0000
  C   C24       1.0  0.9304653536540076  0.15945592694841548  0.15509903305100048  1.0000
  C   C25       1.0  0.8708276310706927  0.12976276360895  0.08579143113603281  1.0000
  C   C26       1.0  0.8748747164175182  0.04404969958961269  0.9872117106009245  1.0000
  H   H8        1.0  0.7573281418494212  0.26435639520696447  0.35495151967712507  1.0000
  H   H9        1.0  0.8957266858345366  0.11585312034754146  0.7205382330723897  1.0000
  H   H10       1.0  0.8944271756871555  0.6987441783389253  0.7218623626867415  1.0000
  H   H11       1.0  0.7825581907516174  0.9308851582601091  0.42564369405850644  1.0000
  H   H12       1.0  0.8203369273275035  0.476621245734417  0.5231059812424164  1.0000
  H   H13       1.0  0.048501057805314454  0.9747218483255434  0.006782186950717861  1.0000
  H   H14       1.0  0.04036883029827543  0.12575677017582468  0.18041763047468615  1.0000
  H   H15       1.0  0.9272112201879199  0.22575219672927505  0.2314398737308707  1.0000
  H   H16       1.0  0.8213351445011424  0.1727350131337384  0.10884692350981906  1.0000
  H   H17       1.0  0.827778430353283  0.0206591993545453  0.9362840148484715  1.0000
  C   C27       1.0  0.8360951214111546  0.41949736491784617  0.18545126490356778  1.0000
  C   C28       1.0  0.8581261646263038  0.28899874552465965  0.19435948027635197  1.0000
  C   C29       1.0  0.8699942404778519  0.2236338525654182  0.08164345824825191  1.0000
  C   C30       1.0  0.8580595813286176  0.2892920072111078  0.9590933276595204  1.0000
  C   C31       1.0  0.8359778924522768  0.41969981700047176  0.948186561993507  1.0000
  C   C32       1.0  0.8252988942467858  0.4841515513073928  0.06195542254477092  1.0000
  C   C33       1.0  0.8925529701318607  0.08541992978562618  0.09093863746970654  1.0000
  O   O2        1.0  0.8711146203515205  0.012207173605693677  0.006789595224438562  1.0000
  C   C34       1.0  0.9394371844972796  0.03026577589838353  0.19559718855739816  1.0000
  C   C35       1.0  0.9338321836037993  0.8983065753740151  0.2409226719962032  1.0000
  C   C36       1.0  0.978345036892398  0.84502244441566  0.33849216102391727  1.0000
  F   F1        1.0  0.9721834357029407  0.7179581266488034  0.38221148662938353  1.0000
  C   C37       1.0  0.029182804635465406  0.9225661137541797  0.39092108521206714  1.0000
  C   C38       1.0  0.03579026926241413  0.05331813174832666  0.3455308393550003  1.0000
  C   C39       1.0  0.9914154433722363  0.10701382773926182  0.2480321420538274  1.0000
  H   H18       1.0  0.7934973156503927  0.6651525294127791  0.3760084226506688  1.0000
  H   H19       1.0  0.8653389226715331  0.2375933161557966  0.28918382787202424  1.0000
  H   H20       1.0  0.8666884234718252  0.23872526138541364  0.8720857068851848  1.0000
  H   H21       1.0  0.8083142748941751  0.5847559619932061  0.05428379710389252  1.0000
  H   H22       1.0  0.826934106739314  0.4694589262315442  0.6165666003853985  1.0000
  H   H23       1.0  0.8946197490820431  0.836851853162617  0.20158044694567387  1.0000
  H   H24       1.0  0.0636630164651073  0.8812980388328068  0.4663478513391403  1.0000
  H   H25       1.0  0.07554894489252839  0.11302410792939255  0.38551257431160524  1.0000
  H   H26       1.0  0.9982573021640787  0.20796723641301781  0.21273093741309856  1.0000
  Zn  Zn1       1.0  0.7597622765009434  0.419726786037256  0.5668339656125947  1.0000
  Zn  Zn2       1.0  0.9123040965849536  0.41946981679884887  0.5668032442329767  1.0000
  C   C40       1.0  0.8359986195968876  0.4144875897858588  0.8040152552385385  1.0000
  C   C41       1.0  0.8360694191888138  0.42471064899621913  0.3296220810997443  1.0000
  C   C42       1.0  0.8360290209545452  0.656803644222655  0.5615514214697036  1.0000
  C   C43       1.0  0.836038965799641  0.18239303426897813  0.5720859847248115  1.0000
  O   O3        1.0  0.8939496191442222  0.42635709018758794  0.37799546763379366  1.0000
  O   O4        1.0  0.8938941315846908  0.4126451350076734  0.7556181784247785  1.0000
  O   O5        1.0  0.8939179004889124  0.608318415143239  0.5598269168161313  1.0000
  O   O6        1.0  0.8939257982025889  0.23068381940463967  0.5737866318749668  1.0000
  O   O7        1.0  0.7781405228282726  0.6085127835205681  0.5598505779742564  1.0000
  O   O8        1.0  0.7781167539005307  0.41284106376455076  0.7556417697303237  1.0000
  O   O9        1.0  0.7781722417471872  0.4265529732711865  0.37801749756148784  1.0000
  O   O10       1.0  0.77814842078793  0.23087969322472454  0.5738087591737876  1.0000
