data_image0
_chemical_formula_structural       NC6NCNCH5C9H8C6NCH7Zn2C4O8
_chemical_formula_sum              "N4 C28 H20 Zn2 O8"
_cell_length_a       14.933214217465613
_cell_length_b       9.275152443626249
_cell_length_c       9.273390368590327
_cell_angle_alpha    85.97038560770253
_cell_angle_beta     89.95654164007166
_cell_angle_gamma    90.60755784757023

_space_group_name_H-M_alt    "P 1"
_space_group_IT_number       1

loop_
  _space_group_symop_operation_xyz
  'x, y, z'

loop_
  _atom_site_type_symbol
  _atom_site_label
  _atom_site_symmetry_multiplicity
  _atom_site_fract_x
  _atom_site_fract_y
  _atom_site_fract_z
  _atom_site_occupancy
  N   N1        1.0  0.8531068702738975  0.5627158557012366  0.4039226313327362  1.0000
  C   C1        1.0  0.7756228400780832  0.5637023633443481  0.40292883649534517  1.0000
  C   C2        1.0  0.6792321663409664  0.5649322849887692  0.4016896976097555  1.0000
  C   C3        1.0  0.6308092018523316  0.4701470764043414  0.49719455814390195  1.0000
  C   C4        1.0  0.5372825456095773  0.47121889316057075  0.4961146335098722  1.0000
  C   C5        1.0  0.4912761569422046  0.5670216113932356  0.3995845749652882  1.0000
  C   C6        1.0  0.3946874488324741  0.5649344204166524  0.4016876196439845  1.0000
  N   N2        1.0  0.3171908115908317  0.5631932380562339  0.4034416503922902  1.0000
  C   C7        1.0  0.5398054456797702  0.6630037000580802  0.30287387647369135  1.0000
  N   N3        1.0  0.4951225923993107  0.7625795300597997  0.20254229626462217  1.0000
  C   C8        1.0  0.6338064210886768  0.6609756169194377  0.30491747524425294  1.0000
  H   H1        1.0  0.6653348552122423  0.3954153135074449  0.572493674830701  1.0000
  H   H2        1.0  0.500731163115486  0.3971157841367637  0.5707801942071784  1.0000
  H   H3        1.0  0.5319223053758244  0.8329095476109851  0.13167826041022734  1.0000
  H   H4        1.0  0.425414575352798  0.7678778140594886  0.19720385746064983  1.0000
  H   H5        1.0  0.6714775315198478  0.7343331250154745  0.23100301042762264  1.0000
  C   C9        1.0  0.08251142693743546  0.1393351613667091  0.40515631222766046  1.0000
  C   C10       1.0  0.05021128578940394  0.22073991028952797  0.28274722720168466  1.0000
  C   C11       1.0  0.02623517881020354  0.15394810931933112  0.15803708553199058  1.0000
  C   C12       1.0  0.03418275937776438  0.004563728521538742  0.15326670305277346  1.0000
  C   C13       1.0  0.06473182028098924  0.9214580329015308  0.27464280453255063  1.0000
  C   C14       1.0  0.08779475166540607  0.9865629676955432  0.40222046117070875  1.0000
  C   C15       1.0  0.009925492989689703  0.9360163261748248  0.024120915871068908  1.0000
  C   C16       1.0  0.9896157010621562  0.8785904572664064  0.9159815657968059  1.0000
  C   C17       1.0  0.9649737831654243  0.8089023217160148  0.7847734295163731  1.0000
  H   H6        1.0  0.2111762078020094  0.2241783420660599  0.6928604559577671  1.0000
  H   H7        1.0  0.045494146366363175  0.33724772569381845  0.2822987621138362  1.0000
  H   H8        1.0  0.0022959786851046685  0.21917111166972794  0.06471824915671909  1.0000
  H   H9        1.0  0.06850225264875692  0.8051091466772993  0.27061830028315925  1.0000
  H   H10       1.0  0.17155014425293413  0.693442237919834  0.5990048373703343  1.0000
  H   H11       1.0  0.9813438291151306  0.6923404432381249  0.7982209838767407  1.0000
  H   H12       1.0  0.8920896005764567  0.8212002035831697  0.7651181488996341  1.0000
  H   H13       1.0  0.002793865369663746  0.8602981764284943  0.6914432175598022  1.0000
  C   C18       1.0  0.08516653840487809  0.558450605929262  0.9804581780129703  1.0000
  C   C19       1.0  0.16739480425684275  0.5556689221584983  0.05398536410640165  1.0000
  C   C20       1.0  0.24827213746341248  0.5662958382643248  0.9784502940121946  1.0000
  C   C21       1.0  0.24897687335742702  0.5800973550756923  0.8267738413020136  1.0000
  C   C22       1.0  0.1672792531531142  0.5804468013525534  0.7524449177479555  1.0000
  C   C23       1.0  0.08513965453974652  0.5674475159267267  0.826918622048399  1.0000
  N   N4        1.0  0.3313780814101752  0.5923867983324542  0.7458579640341778  1.0000
  C   C24       1.0  0.41979431682886736  0.5926477604866578  0.8127539476710077  1.0000
  H   H14       1.0  0.9433924346564542  0.4890111911343953  0.2666847650608213  1.0000
  H   H15       1.0  0.3099625448637228  0.5650318938202099  0.03951195958089038  1.0000
  H   H16       1.0  0.8757497792335673  0.4551610549753382  0.7320321574392876  1.0000
  H   H17       1.0  0.3285321719249008  0.6019442838156641  0.6329520125842496  1.0000
  H   H18       1.0  0.42618306468292616  0.6851922893593807  0.8818957940240386  1.0000
  H   H19       1.0  0.4300743546548571  0.48954238466887934  0.8786538877100956  1.0000
  H   H20       1.0  0.47234080844124415  0.6036072914030832  0.7277712071903961  1.0000
  Zn  Zn1       1.0  0.9870314471764197  0.5628498357414344  0.40379217556503555  1.0000
  Zn  Zn2       1.0  0.1832661458501953  0.5630475493769045  0.4035839827020551  1.0000
  C   C25       1.0  0.08510688225228247  0.5600000310275084  0.666939396718826  1.0000
  C   C26       1.0  0.08519286499715029  0.5658991779098512  0.1404368944255201  1.0000
  C   C27       1.0  0.08679165828475786  0.826357801480607  0.39703220443030585  1.0000
  C   C28       1.0  0.08350801119303086  0.29953967504299794  0.41034416962951337  1.0000
  O   O1        1.0  0.15967170665712294  0.5684677245754448  0.19404822677869804  1.0000
  O   O2        1.0  0.1595656295506347  0.5575804517642502  0.6131696396893589  1.0000
  O   O3        1.0  0.16092510356429165  0.7726677348758646  0.39521766814564363  1.0000
  O   O4        1.0  0.158312165749643  0.3533804505672329  0.41200009029460816  1.0000
  O   O5        1.0  0.01198536031170972  0.7725169344851261  0.3953760680359424  1.0000
  O   O6        1.0  0.010625897104435067  0.5574313837212859  0.6133279567276442  1.0000
  O   O7        1.0  0.010731974012076815  0.5683185878453063  0.19420481120183708  1.0000
  O   O8        1.0  0.009372433033157719  0.35323130466771135  0.41215678280901225  1.0000
