data_image0
_chemical_formula_structural       NC10NC5H10C12OCH12C12NCOCH12Zn2C4O8
_chemical_formula_sum              "N3 C46 H34 O10 Zn2"
_cell_length_a       19.4436361288709
_cell_length_b       10.29979075500242
_cell_length_c       10.299158637457994
_cell_angle_alpha    85.57636928067032
_cell_angle_beta     89.6864852280966
_cell_angle_gamma    89.40046160214462

_space_group_name_H-M_alt    "P 1"
_space_group_IT_number       1

loop_
  _space_group_symop_operation_xyz
  'x, y, z'

loop_
  _atom_site_type_symbol
  _atom_site_label
  _atom_site_symmetry_multiplicity
  _atom_site_fract_x
  _atom_site_fract_y
  _atom_site_fract_z
  _atom_site_occupancy
  N   N1        1.0  0.6476580013462564  0.40879490912551875  0.5619920056196519  1.0000
  C   C1        1.0  0.5888188545426262  0.41869931881129335  0.5763756169122393  1.0000
  C   C2        1.0  0.5154855596620286  0.43105145491829777  0.594367481486584  1.0000
  C   C3        1.0  0.47331746873080394  0.3990378703980415  0.4996942247079693  1.0000
  C   C4        1.0  0.3974104744589534  0.4094770557605059  0.5050217791960807  1.0000
  C   C5        1.0  0.3576633652920664  0.38474830118333947  0.612097174442154  1.0000
  C   C6        1.0  0.2815436138712369  0.38866259870139347  0.5991373837698732  1.0000
  C   C7        1.0  0.24096061860501422  0.44634029909847484  0.6929061013584616  1.0000
  C   C8        1.0  0.1692977938394879  0.44997616160643616  0.6823618398409619  1.0000
  C   C9        1.0  0.1372232425150092  0.3955383651205567  0.5783354142263902  1.0000
  C   C10       1.0  0.0634311802515144  0.39923544300830455  0.5676358649564774  1.0000
  N   N2        1.0  0.0041073672130612976  0.4022076996572381  0.5590341367080707  1.0000
  C   C11       1.0  0.1770814215864976  0.3371536457307498  0.4849499776536464  1.0000
  C   C12       1.0  0.24876071264519475  0.3334635148044174  0.49524246122349164  1.0000
  C   C13       1.0  0.3857881936384195  0.3443110041042426  0.7431960140981801  1.0000
  C   C14       1.0  0.44443929342533955  0.38744104348811365  0.7904367215703789  1.0000
  C   C15       1.0  0.48863876456557603  0.48528554029425663  0.7160626142090449  1.0000
  H   H1        1.0  0.4954314906195627  0.36990490188018715  0.40938777332672555  1.0000
  H   H2        1.0  0.3727187775766542  0.4319550757615589  0.41186079765260347  1.0000
  H   H3        1.0  0.2648147642072653  0.48964530439869364  0.7737531133492139  1.0000
  H   H4        1.0  0.138937227624155  0.4953034766211001  0.7552811562446502  1.0000
  H   H5        1.0  0.152755323235336  0.2940443562317998  0.40443744224534917  1.0000
  H   H6        1.0  0.2784559578520869  0.2858929457411974  0.4230196162894631  1.0000
  H   H7        1.0  0.3548261915275677  0.28010566718055413  0.8074475251677085  1.0000
  H   H8        1.0  0.4595838814680002  0.3533913641805926  0.8883745202530906  1.0000
  H   H9        1.0  0.45851749709267386  0.5759948466570255  0.690805148587602  1.0000
  H   H10       1.0  0.5319124983870608  0.5108825857418675  0.7791470384211778  1.0000
  C   C16       1.0  0.8259477760507509  0.024132362542691906  0.560551506400099  1.0000
  C   C17       1.0  0.8060160941265122  0.013379992784882779  0.6921565849120226  1.0000
  C   C18       1.0  0.7958619845871393  0.8907963970665989  0.7588091802344548  1.0000
  C   C19       1.0  0.8058925387304923  0.7780999601639146  0.6920918242797978  1.0000
  C   C20       1.0  0.8258241902806888  0.7868601153926277  0.5604858134936942  1.0000
  C   C21       1.0  0.8357418038257213  0.9103197499783149  0.4954532172261282  1.0000
  C   C22       1.0  0.7747795842270492  0.8804750254362179  0.8980411852219072  1.0000
  C   C23       1.0  0.7245875000540893  0.790551909207275  0.9435237900548878  1.0000
  C   C24       1.0  0.7048072643210078  0.7811101896071226  0.07442858118517715  1.0000
  C   C25       1.0  0.7347738834817277  0.8609318469219976  0.1615291618071624  1.0000
  C   C26       1.0  0.7851487553241013  0.951461316165873  0.11791676894946147  1.0000
  C   C27       1.0  0.804715858114958  0.9605456050894894  0.986487040233503  1.0000
  O   O1        1.0  0.8169267207479929  0.033602920663089224  0.20152253477516008  1.0000
  C   C28       1.0  0.8021582452995335  0.03489955242157827  0.33698284910033255  1.0000
  H   H11       1.0  0.8335726971819848  0.35568040541539725  0.5104253647433137  1.0000
  H   H12       1.0  0.7974304447600556  0.10058216081898341  0.7426572095647168  1.0000
  H   H13       1.0  0.7990272747595468  0.6833441903200567  0.7435172978376963  1.0000
  H   H14       1.0  0.8511187836514098  0.9178463427058239  0.3939254550524882  1.0000
  H   H15       1.0  0.8333848389512415  0.4627472975125215  0.5103225696116906  1.0000
  H   H16       1.0  0.6999981204718644  0.7287547890578288  0.8775174920986355  1.0000
  H   H17       1.0  0.6659569468554644  0.7118695536626156  0.10843017369366482  1.0000
  H   H18       1.0  0.7184573031013928  0.8515181103992763  0.2623323817499478  1.0000
  H   H19       1.0  0.8441208683314262  0.029350294581439666  0.9539937210498394  1.0000
  H   H20       1.0  0.8140307321860445  0.9381683119690173  0.3875075325048529  1.0000
  H   H21       1.0  0.8346072993706953  0.10895325714765924  0.3789284184751431  1.0000
  H   H22       1.0  0.74724969901269  0.06082983364950079  0.3518741443360074  1.0000
  C   C29       1.0  0.8259504782905022  0.40535709423320077  0.17914506800871036  1.0000
  C   C30       1.0  0.8275263722968443  0.5420308095212956  0.1678064975208744  1.0000
  C   C31       1.0  0.8282713679155498  0.6114671290137637  0.04490048900567589  1.0000
  C   C32       1.0  0.8273946487712727  0.5423931124220227  0.9324960805233642  1.0000
  C   C33       1.0  0.8258214682980182  0.40563543835817467  0.9418923296773302  1.0000
  C   C34       1.0  0.8251120770164485  0.3379582643726069  0.0656045348761185  1.0000
  C   C35       1.0  0.8299392946404297  0.756051133406006  0.03387920448996541  1.0000
  C   C36       1.0  0.8721431512253588  0.8231048972992931  0.11609044904491927  1.0000
  C   C37       1.0  0.873718363572669  0.9591659672155619  0.10558793527598277  1.0000
  C   C38       1.0  0.8335571258180783  0.03089329771281957  0.011765432648750412  1.0000
  C   C39       1.0  0.7905341283492876  0.9642150585015736  0.9313440332101576  1.0000
  C   C40       1.0  0.7889871490132025  0.8281813761999549  0.9415853234042594  1.0000
  N   N3        1.0  0.8332717721621299  0.170944112361072  0.0005201802915937346  1.0000
  C   C41       1.0  0.8921869163506928  0.24884300273667528  0.023255962962640105  1.0000
  O   O2        1.0  0.9514955081079931  0.19833446138976552  0.0312842721657729  1.0000
  C   C42       1.0  0.8840957115176618  0.3928072338066451  0.027913092191617306  1.0000
  H   H23       1.0  0.8272171498784646  0.5948536080776738  0.2547553014813271  1.0000
  H   H24       1.0  0.8288771682002194  0.5953791540897772  0.8375075359334541  1.0000
  H   H25       1.0  0.8238989076263586  0.23253859109436564  0.07363532252392102  1.0000
  H   H26       1.0  0.8232697234918048  0.1474893889926947  0.7523315786052193  1.0000
  H   H27       1.0  0.9043423587408629  0.7702829728555822  0.18802036496331948  1.0000
  H   H28       1.0  0.905448304475173  0.007919022967481034  0.17235184335870793  1.0000
  H   H29       1.0  0.7583543625115431  0.017911628280856465  0.8599831700474634  1.0000
  H   H30       1.0  0.7550039296559391  0.7794231813151933  0.8785243590341413  1.0000
  H   H31       1.0  0.7886793041024964  0.2192230345956787  0.9659393274189898  1.0000
  H   H32       1.0  0.835729515358212  0.4154156574920731  0.07973033955114263  1.0000
  H   H33       1.0  0.8822389533144485  0.43950874373321414  0.9272056249182679  1.0000
  H   H34       1.0  0.9279689299779704  0.43276396891642666  0.0802002285468737  1.0000
  Zn  Zn1       1.0  0.7505215891642096  0.40689051413650223  0.5611459410758604  1.0000
  Zn  Zn2       1.0  0.9012437708226986  0.40410149086157476  0.559890883476319  1.0000
  C   C43       1.0  0.8258451559245001  0.40040915566441543  0.7977171976460726  1.0000
  C   C44       1.0  0.8259218496568325  0.4105844575435729  0.32331974052790713  1.0000
  C   C45       1.0  0.8258448686529452  0.6426865358369308  0.5553230628896555  1.0000
  C   C46       1.0  0.825922085738591  0.1683055180455717  0.5657139450863627  1.0000
  O   O3        1.0  0.8831105249881759  0.4112747228844258  0.37122979034664416  1.0000
  O   O4        1.0  0.8830511292200682  0.39760110633266305  0.7488542143830192  1.0000
  O   O5        1.0  0.8830501259560414  0.5932431695983855  0.5531192418929529  1.0000
  O   O6        1.0  0.8831114768358963  0.21563266982509746  0.566964665888309  1.0000
  O   O7        1.0  0.7686538317169294  0.5953593361261478  0.5540721590853286  1.0000
  O   O8        1.0  0.7686548347366696  0.39971883313907863  0.7498070621948156  1.0000
  O   O9        1.0  0.7687142308219552  0.4133924038642849  0.37218107674202305  1.0000
  O   O10       1.0  0.7687151826518992  0.21775034155173031  0.5679160496535476  1.0000
