data_image0
_chemical_formula_structural       NC12NC2H8C7F3H5C6NO2H5Zn2C4O8
_chemical_formula_sum              "N3 C31 H18 F3 O10 Zn2"
_cell_length_a       17.80743265337812
_cell_length_b       10.29932413504667
_cell_length_c       9.27342699604674
_cell_angle_alpha    85.15917199156087
_cell_angle_beta     91.97882923782456
_cell_angle_gamma    89.41593348368521

_space_group_name_H-M_alt    "P 1"
_space_group_IT_number       1

loop_
  _space_group_symop_operation_xyz
  'x, y, z'

loop_
  _atom_site_type_symbol
  _atom_site_label
  _atom_site_symmetry_multiplicity
  _atom_site_fract_x
  _atom_site_fract_y
  _atom_site_fract_z
  _atom_site_occupancy
  N   N1        1.0  0.7007808466176777  0.41682627979380316  0.4455058089702857  1.0000
  C   C1        1.0  0.649642484876863  0.4468820546917791  0.369147682127436  1.0000
  C   C2        1.0  0.5860213878823174  0.4842692305476681  0.27416778474808035  1.0000
  C   C3        1.0  0.5971610346108341  0.5392058832455857  0.13343082336992707  1.0000
  C   C4        1.0  0.5354584929384629  0.5750721218945611  0.04111397443563413  1.0000
  C   C5        1.0  0.4624589455223783  0.5562699455207227  0.08880060771415302  1.0000
  C   C6        1.0  0.4503446802650134  0.50121110581187  0.23005791784117213  1.0000
  C   C7        1.0  0.512904462212927  0.4653482403924478  0.3223564136053739  1.0000
  C   C8        1.0  0.37279016686802396  0.4812741145387624  0.2809237622926937  1.0000
  C   C9        1.0  0.3545777514618996  0.5075440297993821  0.42214442135194796  1.0000
  C   C10       1.0  0.2815484347378774  0.488783135135862  0.4698761485375725  1.0000
  C   C11       1.0  0.22579243184059541  0.4434919957400245  0.3773186274365843  1.0000
  C   C12       1.0  0.1506330014596722  0.42416814430178085  0.42660748168254714  1.0000
  N   N2        1.0  0.0902101423389423  0.40863306785885034  0.4662323297481495  1.0000
  C   C13       1.0  0.2433158613110172  0.4170492427916592  0.23670148413338854  1.0000
  C   C14       1.0  0.3162911540119629  0.4358267707644074  0.18868532672229543  1.0000
  H   H1        1.0  0.6534668734766839  0.5542787167168848  0.09515437245819691  1.0000
  H   H2        1.0  0.5442027314831887  0.6178763747944542  0.9324333037281902  1.0000
  H   H3        1.0  0.41551488312466095  0.5863798938067133  0.01589714322347313  1.0000
  H   H4        1.0  0.5048583152764073  0.4211595351923192  0.4308985565627028  1.0000
  H   H5        1.0  0.3965455861469529  0.5442510358532444  0.49503786755697554  1.0000
  H   H6        1.0  0.268547358215079  0.5099217934510338  0.5788215186704558  1.0000
  H   H7        1.0  0.2006327773206592  0.38160657607527465  0.16426724204769472  1.0000
  H   H8        1.0  0.3287655240684622  0.41315032859099254  0.08007690918789434  1.0000
  C   C15       1.0  0.8955728764845565  0.03134924927019966  0.45583088037502445  1.0000
  C   C16       1.0  0.9703685899965757  0.03215609072681591  0.4121853397849482  1.0000
  C   C17       1.0  0.007633753056601525  0.9156390153723788  0.38762388363694655  1.0000
  C   C18       1.0  0.9701749571423783  0.7969023959944532  0.41230158174754283  1.0000
  C   C19       1.0  0.8954253713075181  0.794099853474248  0.45592007940436213  1.0000
  C   C20       1.0  0.8584642573748961  0.9119131540897866  0.4768777213710527  1.0000
  C   C21       1.0  0.08879421045439173  0.917159596727966  0.3458374008236398  1.0000
  F   F1        1.0  0.10468954066724279  0.03184414074030296  0.2644340898546187  1.0000
  F   F2        1.0  0.13451214560704527  0.9067948625674052  0.46990576054841093  1.0000
  F   F3        1.0  0.1044828310987649  0.8142042777313009  0.2644141101578406  1.0000
  H   H9        1.0  0.7548532312662016  0.2368671501616639  0.5406951448826651  1.0000
  H   H10       1.0  0.9998011089618352  0.12358338182909367  0.39748814922582665  1.0000
  H   H11       1.0  0.9994745014421316  0.7065413181119843  0.3976880637203968  1.0000
  H   H12       1.0  0.8008150682846193  0.9104868562479844  0.5105142310748538  1.0000
  H   H13       1.0  0.8670986066585727  0.46537466928835935  0.4751417387957486  1.0000
  C   C22       1.0  0.8937652407887763  0.41548908566323006  0.03195672033998887  1.0000
  C   C23       1.0  0.9373641651918618  0.5074019183221945  0.10002172396371868  1.0000
  C   C24       1.0  0.9859035434663085  0.5906872453593839  0.021101984010757583  1.0000
  C   C25       1.0  0.9906765873794863  0.5812250875427099  0.8717124958764106  1.0000
  C   C26       1.0  0.9469173915616944  0.49215283625636697  0.8021557735074043  1.0000
  C   C27       1.0  0.897232972787077  0.4099600080802306  0.8797942908450542  1.0000
  N   N3        1.0  0.03056694604664067  0.6833825824513267  0.09290571238826485  1.0000
  O   O1        1.0  0.02573562567561538  0.6927736036320971  0.23946472752027884  1.0000
  O   O2        1.0  0.0742310712196248  0.757000591266705  0.023391552021617915  1.0000
  H   H14       1.0  0.7887141840358586  0.3017360836994698  0.31583481072380837  1.0000
  H   H15       1.0  0.9347790933876541  0.5119639632325435  0.21599633464758175  1.0000
  H   H16       1.0  0.027791900440830908  0.6437771002793948  0.8080498884138336  1.0000
  H   H17       1.0  0.9506476234897216  0.4897331905344835  0.686044091548379  1.0000
  H   H18       1.0  0.7395554672508973  0.24709331600518492  0.781764464044937  1.0000
  Zn  Zn1       1.0  0.8131617672753236  0.4144583741565812  0.45149535700333093  1.0000
  Zn  Zn2       1.0  0.9778292693970729  0.41099030293204253  0.46025455540827576  1.0000
  C   C28       1.0  0.8965768369832344  0.4058313665032869  0.7195340987639881  1.0000
  C   C29       1.0  0.8944159981157608  0.4196189104586805  0.19221605117747842  1.0000
  C   C30       1.0  0.8954258453280184  0.6499613838884297  0.45015043989729736  1.0000
  C   C31       1.0  0.8955669341980351  0.17548733340581998  0.46159978383647254  1.0000
  O   O3        1.0  0.9571248581985511  0.41968313651995537  0.24932461607674772  1.0000
  O   O4        1.0  0.958846799354027  0.40313397758648256  0.6690731471089  1.0000
  O   O5        1.0  0.9579165227743317  0.6002720620235025  0.4515438919871824  1.0000
  O   O6        1.0  0.9580550781438758  0.22254506326271484  0.46685375997174  1.0000
  O   O7        1.0  0.8329359023355524  0.6029036150108553  0.4448961494431887  1.0000
  O   O8        1.0  0.8338661782952206  0.4057670914264989  0.6624253277759257  1.0000
  O   O9        1.0  0.8321442300996381  0.4223162164200689  0.2426750611328723  1.0000
  O   O10       1.0  0.8330744504863652  0.2251781331679954  0.4602043132579128  1.0000
