data_image0
_chemical_formula_structural       NC5N2C2NH4C6NH7C6NCH7Zn2C4O8
_chemical_formula_sum              "N6 C24 H18 Zn2 O8"
_cell_length_a       13.87973921873968
_cell_length_b       9.274771166103582
_cell_length_c       9.274690524155613
_cell_angle_alpha    85.95744674106099
_cell_angle_beta     89.68736137004737
_cell_angle_gamma    90.59705032410349

_space_group_name_H-M_alt    "P 1"
_space_group_IT_number       1

loop_
  _space_group_symop_operation_xyz
  'x, y, z'

loop_
  _atom_site_type_symbol
  _atom_site_label
  _atom_site_symmetry_multiplicity
  _atom_site_fract_x
  _atom_site_fract_y
  _atom_site_fract_z
  _atom_site_occupancy
  N   N1        1.0  0.9239364325560635  0.564762795950768  0.407324055918552  1.0000
  C   C1        1.0  0.851201372943483  0.5888100991887293  0.3506494627305356  1.0000
  C   C2        1.0  0.7608671406397742  0.6186791958328246  0.2802534940115091  1.0000
  C   C3        1.0  0.6739510365245445  0.5886144540720302  0.35349661921908204  1.0000
  C   C4        1.0  0.5879877388933292  0.6186791315379072  0.2802535340265686  1.0000
  C   C5        1.0  0.4967242505680476  0.5888099535548921  0.3506493597844602  1.0000
  N   N2        1.0  0.4232410012766133  0.5647627712260882  0.4073240449719128  1.0000
  N   N3        1.0  0.5905322361554708  0.6761229439529288  0.1414114153953212  1.0000
  C   C6        1.0  0.6757950410618302  0.706148736656955  0.07221108905925688  1.0000
  C   C7        1.0  0.6767682009409859  0.7653376696127265  0.9183747399612221  1.0000
  N   N4        1.0  0.7601351344531153  0.6761228973725371  0.14141142622998035  1.0000
  H   H1        1.0  0.6732270239281254  0.5426491952449097  0.4642953750814418  1.0000
  H   H2        1.0  0.7423235606529784  0.8330294775113821  0.8958580420436214  1.0000
  H   H3        1.0  0.6764009475537563  0.6747445726195087  0.8463297956949503  1.0000
  H   H4        1.0  0.6123187286883578  0.833027406637728  0.8958572799212855  1.0000
  C   C8        1.0  0.17063261208658065  0.14117307714298752  0.40810964845483777  1.0000
  C   C9        1.0  0.14892439710403324  0.22335718111403044  0.2792221070911795  1.0000
  C   C10       1.0  0.1362144789389843  0.15717601176067303  0.14951683018448114  1.0000
  C   C11       1.0  0.14526665214165146  0.00742506780588981  0.1477596272037973  1.0000
  C   C12       1.0  0.16519963046800434  0.9239060865047691  0.27487663057888656  1.0000
  C   C13       1.0  0.17655392413093018  0.9883415147606208  0.4065509810834809  1.0000
  N   N5        1.0  0.11510327869650538  0.2424472531115167  0.019212740061397504  1.0000
  H   H5        1.0  0.2779302363679026  0.22358574648142704  0.7235371148429657  1.0000
  H   H6        1.0  0.14406854807636282  0.3399450586912789  0.2786684720340784  1.0000
  H   H7        1.0  0.13594364893821953  0.9550670517451535  0.04796450262431094  1.0000
  H   H8        1.0  0.16946035217699462  0.8077060528350173  0.27074888289364996  1.0000
  H   H9        1.0  0.24491054092583162  0.6931477777697623  0.6211533408689676  1.0000
  H   H10       1.0  0.10846539577964776  0.354520746430013  0.019165927646655596  1.0000
  H   H11       1.0  0.10586248106675766  0.1941271271715164  0.9217878684282707  1.0000
  C   C14       1.0  0.17511011792591957  0.561064163218397  0.9840898006188259  1.0000
  C   C15       1.0  0.25382220467238925  0.6234618287388186  0.05271236868673456  1.0000
  C   C16       1.0  0.32765611435470965  0.6967839402872549  0.972079667450671  1.0000
  C   C17       1.0  0.32202250269724675  0.707438899671063  0.8211636025131517  1.0000
  C   C18       1.0  0.245360349643293  0.6441818475239856  0.7513319304710045  1.0000
  C   C19       1.0  0.17207636786114694  0.5684503816337304  0.8305707572766063  1.0000
  N   N6        1.0  0.40829127241201424  0.76224418836267  0.040681019296951115  1.0000
  C   C20       1.0  0.4213311151331364  0.7571664309963717  0.19697190979870083  1.0000
  H   H12       1.0  0.0639242100573818  0.3871892090390232  0.277408486815988  1.0000
  H   H13       1.0  0.37791210053904334  0.7639045508266425  0.7570011535012241  1.0000
  H   H14       1.0  0.019350297661105298  0.5007790256058152  0.5552570808996089  1.0000
  H   H15       1.0  0.4610875266803038  0.8162013001828138  0.9759475978467872  1.0000
  H   H16       1.0  0.48915611191832786  0.8143213416368811  0.22254506735043764  1.0000
  H   H17       1.0  0.4259261473107103  0.6431313317674051  0.24140637364583536  1.0000
  H   H18       1.0  0.36026098708426035  0.8112431912914828  0.24807442905638366  1.0000
  Zn  Zn1       1.0  0.06802488971808862  0.5647589960606423  0.40733238559204943  1.0000
  Zn  Zn2       1.0  0.2791524048120857  0.5647548582068046  0.4073275520132338  1.0000
  C   C21       1.0  0.17260752512346378  0.5613077859352527  0.670578336966808  1.0000
  C   C22       1.0  0.17457208712674777  0.5682078895502805  0.14408173869839436  1.0000
  C   C23       1.0  0.17545028307149302  0.8281585004265444  0.4011022089914972  1.0000
  C   C24       1.0  0.17172924474714144  0.30135544268936076  0.41355794670449975  1.0000
  O   O1        1.0  0.2545132667685095  0.5705975260841696  0.19777467192274595  1.0000
  O   O2        1.0  0.25290723816092364  0.558913917059546  0.616881322278461  1.0000
  O   O3        1.0  0.2552017157044577  0.7743992568971878  0.39927743961524764  1.0000
  O   O4        1.0  0.25221871764087744  0.3551121956237089  0.41537844650291195  1.0000
  O   O5        1.0  0.09495850484187596  0.7744016586466544  0.39928149109643685  1.0000
  O   O6        1.0  0.09266403968249737  0.5589180511815562  0.6168852937229208  1.0000
  O   O7        1.0  0.09427007421314103  0.570601594819641  0.19777691062835467  1.0000
  O   O8        1.0  0.09197552462218583  0.35511625498491445  0.4153807932856337  1.0000
