data_image0
_chemical_formula_structural       NC8NH4C10H6C8H10Zn2C4O8
_chemical_formula_sum              "N2 C30 H20 Zn2 O8"
_cell_length_a       11.048855714531884
_cell_length_b       9.275150299802176
_cell_length_c       9.275657083861812
_cell_angle_alpha    85.52524859498646
_cell_angle_beta     89.50283887802443
_cell_angle_gamma    89.4838956589931

_space_group_name_H-M_alt    "P 1"
_space_group_IT_number       1

loop_
  _space_group_symop_operation_xyz
  'x, y, z'

loop_
  _atom_site_type_symbol
  _atom_site_label
  _atom_site_symmetry_multiplicity
  _atom_site_fract_x
  _atom_site_fract_y
  _atom_site_fract_z
  _atom_site_occupancy
  N   N1        1.0  0.1394502546135921  0.5708506509528803  0.4010062785687656  1.0000
  C   C1        1.0  0.08599737174549604  0.5124365365428745  0.3163415642285671  1.0000
  C   C2        1.0  0.019304672763168503  0.43955237382990114  0.2107038968602155  1.0000
  C   C3        1.0  0.8915879180653674  0.43955218368131815  0.2107039996708051  1.0000
  C   C4        1.0  0.830123037115132  0.36750293755999075  0.10627674432322863  1.0000
  C   C5        1.0  0.8948438593036026  0.2960236010236721  0.0026754281719480986  1.0000
  C   C6        1.0  0.021250072385784476  0.2960234909597417  0.0026754514620914703  1.0000
  C   C7        1.0  0.08338057539406885  0.3675030359034639  0.10627671604690447  1.0000
  C   C8        1.0  0.8222539501996495  0.5124366114466521  0.316341550670185  1.0000
  N   N2        1.0  0.7666841402207432  0.5708506937938971  0.4010063071200123  1.0000
  H   H1        1.0  0.7320771490000239  0.36660071042193243  0.10496842208993029  1.0000
  H   H2        1.0  0.8469505793578993  0.2405825616457931  0.9223204512566755  1.0000
  H   H3        1.0  0.07115261976609501  0.2405826711210062  0.9223204500272586  1.0000
  H   H4        1.0  0.1814591591164794  0.36660066276420267  0.10496869750569449  1.0000
  C   C9        1.0  0.4562487524372585  0.14715750511659675  0.40341956718614513  1.0000
  C   C10       1.0  0.5206953449155008  0.22864995862663906  0.294360877416038  1.0000
  C   C11       1.0  0.5748029018462906  0.16191235111840196  0.17975996684225665  1.0000
  C   C12       1.0  0.5650152043387208  0.012708824804668725  0.17274163412717547  1.0000
  C   C13       1.0  0.5032156788348023  0.9297692062839206  0.28115245991727855  1.0000
  C   C14       1.0  0.44989721252009085  0.994532736584759  0.39860554695276085  1.0000
  C   C15       1.0  0.6392824510464356  0.24713414688946875  0.06820776107987057  1.0000
  C   C16       1.0  0.693268092954815  0.31850989606012653  0.9748153142616237  1.0000
  C   C17       1.0  0.7564827763493736  0.40209586096152666  0.8654568320830021  1.0000
  C   C18       1.0  0.8104580098941826  0.4734662198461126  0.7720822879403548  1.0000
  H   H5        1.0  0.3971820040752952  0.4106558920239083  0.632329579845216  1.0000
  H   H6        1.0  0.5264941840342998  0.3451097501136089  0.2965878167789149  1.0000
  H   H7        1.0  0.6062356913964327  0.9601086498934799  0.08406460768694801  1.0000
  H   H8        1.0  0.4995598656941363  0.8137372112562662  0.27492889027910516  1.0000
  H   H9        1.0  0.3687452580379634  0.865819355414273  0.7411043189913713  1.0000
  H   H10       1.0  0.8578527669076746  0.5361354547964412  0.6900917259372377  1.0000
  C   C19       1.0  0.45617222702344323  0.5686701267213861  0.977705031657274  1.0000
  C   C20       1.0  0.5180425588924243  0.6786550629210477  0.042020576823665653  1.0000
  C   C21       1.0  0.5691797251179489  0.7948152536444804  0.9576220729987518  1.0000
  C   C22       1.0  0.560250210958482  0.8000061706297994  0.8069536959927173  1.0000
  C   C23       1.0  0.5009891168753071  0.690667218893076  0.7411818771609803  1.0000
  C   C24       1.0  0.44997376993806604  0.5730201262653285  0.82432010511079  1.0000
  C   C25       1.0  0.6366027981749236  0.9105158994253355  0.028164664787338367  1.0000
  C   C26       1.0  0.7698519830989606  0.8693450258096782  0.04624317920177168  1.0000
  H   H11       1.0  0.4035705176667336  0.33849776182240676  0.27683971881995295  1.0000
  H   H12       1.0  0.5243203713390181  0.6759801344491061  0.15876079951677013  1.0000
  H   H13       1.0  0.6003918831817203  0.8881901758733628  0.7400664822060588  1.0000
  H   H14       1.0  0.49783243216344464  0.6962899408729566  0.6241756134108849  1.0000
  H   H15       1.0  0.3083190310382662  0.4067349857768934  0.5574303912011365  1.0000
  H   H16       1.0  0.629189447091499  0.015259662987732181  0.961729294293431  1.0000
  H   H17       1.0  0.5962253380022258  0.9268564759011461  0.13594832548474511  1.0000
  H   H18       1.0  0.7792373170703141  0.7667053401502903  0.11557447286384392  1.0000
  H   H19       1.0  0.8125434786546268  0.8560661470003209  0.9391438064166713  1.0000
  H   H20       1.0  0.8178746502282386  0.9559553657543625  0.09831774552292205  1.0000
  Zn  Zn1       1.0  0.3204563874569335  0.570846835378302  0.40101463017837313  1.0000
  Zn  Zn2       1.0  0.5856780368337585  0.5708427360333059  0.4010098199778849  1.0000
  C   C27       1.0  0.4511857968148021  0.5664500433144444  0.6643243592872774  1.0000
  C   C28       1.0  0.45495150900682735  0.5752413492526767  0.13770022195791753  1.0000
  C   C29       1.0  0.45113364605198647  0.834331287318744  0.39377121692277667  1.0000
  C   C30       1.0  0.4550035816985455  0.3073583721799511  0.4082534510247553  1.0000
  O   O1        1.0  0.5551921057939327  0.577438861358502  0.19139427971074596  1.0000
  O   O2        1.0  0.5522423062900623  0.5642483293165708  0.6106262419298227  1.0000
  O   O3        1.0  0.5521988261022792  0.7805658293931657  0.3921526567638367  1.0000
  O   O4        1.0  0.5552354961934931  0.3611213710492118  0.409867756736913  1.0000
  O   O5        1.0  0.35089883759011015  0.7805682003653269  0.3921566934133951  1.0000
  O   O6        1.0  0.3509423053419025  0.5642524333600892  0.6106301918710945  1.0000
  O   O7        1.0  0.3538921179919812  0.5774429062186377  0.19139649683190946  1.0000
  O   O8        1.0  0.3539355076726759  0.3611254061449731  0.40987008199194674  1.0000
