data_image0
_chemical_formula_structural       NC8NH4C6NH7C6SCH6Zn2C4O8
_chemical_formula_sum              "N3 C25 H17 S1 Zn2 O8"
_cell_length_a       13.859017124695912
_cell_length_b       9.274771166103582
_cell_length_c       9.275274088470228
_cell_angle_alpha    86.00109441054587
_cell_angle_beta     89.7257703154182
_cell_angle_gamma    90.59707951677755

_space_group_name_H-M_alt    "P 1"
_space_group_IT_number       1

loop_
  _space_group_symop_operation_xyz
  'x, y, z'

loop_
  _atom_site_type_symbol
  _atom_site_label
  _atom_site_symmetry_multiplicity
  _atom_site_fract_x
  _atom_site_fract_y
  _atom_site_fract_z
  _atom_site_occupancy
  N   N1        1.0  0.9245943189104715  0.5635355714596186  0.4075155253307583  1.0000
  C   C1        1.0  0.8522563744515266  0.5401380793294599  0.3514045665654626  1.0000
  C   C2        1.0  0.7622722681751971  0.511035013521205  0.2816097445362262  1.0000
  C   C3        1.0  0.6746369926881173  0.5394075423957727  0.34965091348989485  1.0000
  C   C4        1.0  0.5870419586898699  0.5110362341145369  0.28160916310242023  1.0000
  C   C5        1.0  0.5872646223286522  0.4542846969926169  0.14550535617900273  1.0000
  C   C6        1.0  0.6747172591291865  0.42602122019316013  0.07772609619157356  1.0000
  C   C7        1.0  0.7621299611059158  0.45428235820542007  0.1455065386075334  1.0000
  C   C8        1.0  0.4970165437636203  0.5401390013583967  0.35140406694652127  1.0000
  N   N2        1.0  0.4246454474284017  0.5635358920896665  0.40751530877146824  1.0000
  H   H1        1.0  0.674605854593566  0.5833354297816409  0.45499851928424717  1.0000
  H   H2        1.0  0.5199850227448716  0.4319544252389338  0.09194950411602631  1.0000
  H   H3        1.0  0.6747484054354027  0.3821830452692622  0.9725918357181578  1.0000
  H   H4        1.0  0.8294412014685786  0.43194999474837203  0.09195168942937659  1.0000
  C   C9        1.0  0.1716597187913629  0.13994665333680345  0.40830092466116485  1.0000
  C   C10       1.0  0.1498604882966417  0.22203136772294665  0.27942891654160357  1.0000
  C   C11       1.0  0.13707263747404877  0.1557501854221348  0.14973926777990276  1.0000
  C   C12       1.0  0.146137547262557  0.005997893817025538  0.14798227283791654  1.0000
  C   C13       1.0  0.16615808234011495  0.9225769356110288  0.2750839569404955  1.0000
  C   C14       1.0  0.1775891763160831  0.9871138939005905  0.4067424426658981  1.0000
  N   N3        1.0  0.11587067080739999  0.24092094549942322  0.01945088128635853  1.0000
  H   H5        1.0  0.27926108315321163  0.2226026023845391  0.7236903547751921  1.0000
  H   H6        1.0  0.1449971272070263  0.33861881460886334  0.27887535011054343  1.0000
  H   H7        1.0  0.13675526455389697  0.9535629282439828  0.04819917235706006  1.0000
  H   H8        1.0  0.17042329938983314  0.8063737228113214  0.27095670474194855  1.0000
  H   H9        1.0  0.24614550050056216  0.6920856695790166  0.6213189261732497  1.0000
  H   H10       1.0  0.10922284157088202  0.352994397478819  0.019404077162723302  1.0000
  H   H11       1.0  0.10657179345736001  0.19252569757954263  0.9220377482208484  1.0000
  C   C15       1.0  0.17595127576525327  0.5595108232143136  0.9843321484405747  1.0000
  C   C16       1.0  0.2584757798765016  0.6102842977422349  0.05358705341199222  1.0000
  C   C17       1.0  0.33572157765519584  0.6725498233102079  0.973408409799427  1.0000
  C   C18       1.0  0.3317252801272841  0.6841802159291805  0.822826889300527  1.0000
  C   C19       1.0  0.251255005886468  0.6323148666344536  0.7520710801850035  1.0000
  C   C20       1.0  0.17329760930853633  0.5675497131090557  0.8307111845074622  1.0000
  S   S1        1.0  0.4398092400546647  0.7379504620464965  0.06397640593865006  1.0000
  C   C21       1.0  0.39147763431957583  0.9184996246438037  0.07537643893800806  1.0000
  H   H12       1.0  0.9418818708382591  0.500158948668012  0.09314613920381554  1.0000
  H   H13       1.0  0.3913532087924674  0.7325107317149685  0.7602400807871619  1.0000
  H   H14       1.0  0.016817226973855803  0.5217047611012967  0.5538807845042197  1.0000
  H   H15       1.0  0.37803752978927885  0.9689085831522934  0.9653216170334646  1.0000
  H   H16       1.0  0.3232246412129918  0.9130810863050876  0.13875200123555853  1.0000
  H   H17       1.0  0.44466070059057916  0.9858030521212044  0.13025192224964743  1.0000
  Zn  Zn1       1.0  0.0688982228494468  0.5635318918813306  0.4075237964225711  1.0000
  Zn  Zn2       1.0  0.28034141643800425  0.563527917179115  0.40751887905849316  1.0000
  C   C22       1.0  0.17375683137311948  0.560283727317747  0.670737997897966  1.0000
  C   C23       1.0  0.17548512916257875  0.5667779030690612  0.14430481562546163  1.0000
  C   C24       1.0  0.17648140955311797  0.8269266776853149  0.40129432732228243  1.0000
  C   C25       1.0  0.17276046646112087  0.3001332203935021  0.41374856622233436  1.0000
  O   O1        1.0  0.2555702320803619  0.5692090000961543  0.19799124956406877  1.0000
  O   O2        1.0  0.2541522136108905  0.5578485214587992  0.6170474189540236  1.0000
  O   O3        1.0  0.25635125855505625  0.7731660902936146  0.39946974587140693  1.0000
  O   O4        1.0  0.25337111539595947  0.35389144055513166  0.4155688145766854  1.0000
  O   O5        1.0  0.09586845173634129  0.7731683685081692  0.39947386089847403  1.0000
  O   O6        1.0  0.09366941915848573  0.5578525319841987  0.6170514539539966  1.0000
  O   O7        1.0  0.0950874427726407  0.5692129438990765  0.19799355203389735  1.0000
  O   O8        1.0  0.09288832567332529  0.3538953750671155  0.4155712251106094  1.0000
