data_image0
_chemical_formula_structural       NC6NC3H6C6NH5C6SCH6Zn2C4O8
_chemical_formula_sum              "N3 C26 H17 S1 Zn2 O8"
_cell_length_a       14.934028789175542
_cell_length_b       9.274771166103582
_cell_length_c       10.302812801239595
_cell_angle_alpha    85.45577702643503
_cell_angle_beta     89.97499208564275
_cell_angle_gamma    90.55950156128424

_space_group_name_H-M_alt    "P 1"
_space_group_IT_number       1

loop_
  _space_group_symop_operation_xyz
  'x, y, z'

loop_
  _atom_site_type_symbol
  _atom_site_label
  _atom_site_symmetry_multiplicity
  _atom_site_fract_x
  _atom_site_fract_y
  _atom_site_fract_z
  _atom_site_occupancy
  N   N1        1.0  0.8533995354643907  0.5778015051612797  0.5648664850440712  1.0000
  C   C1        1.0  0.7759063558494166  0.5767030900676946  0.564256905163846  1.0000
  C   C2        1.0  0.6795009023083075  0.5753316113571452  0.5634959585870349  1.0000
  C   C3        1.0  0.6324327592731784  0.6821432898101483  0.6226626123017183  1.0000
  C   C4        1.0  0.5389138748081806  0.6810420883101578  0.6220525021392536  1.0000
  C   C5        1.0  0.4915509387142403  0.5731837173105758  0.5623061132504441  1.0000
  C   C6        1.0  0.39492021673745337  0.5754979275698999  0.5635891982766974  1.0000
  N   N2        1.0  0.3174520379605125  0.5773345451769076  0.5646077837360761  1.0000
  C   C7        1.0  0.538603903878255  0.4648943226508385  0.5023204020428753  1.0000
  C   C8        1.0  0.48952528036960125  0.34762985321535256  0.4373647665810929  1.0000
  C   C9        1.0  0.6327611618466498  0.46711919565713705  0.5035528827307458  1.0000
  H   H1        1.0  0.6680241735254353  0.7663009846062216  0.6692809779825988  1.0000
  H   H2        1.0  0.503421130106223  0.7645516467892794  0.6683117129929883  1.0000
  H   H3        1.0  0.44709335407285106  0.3967118426199656  0.35748003510998183  1.0000
  H   H4        1.0  0.4463736930115357  0.28476898279615415  0.5096229091881348  1.0000
  H   H5        1.0  0.5364903157077795  0.27167596734162025  0.3952854868921829  1.0000
  H   H6        1.0  0.6697541889939295  0.38472056324174586  0.4579093142456805  1.0000
  C   C10       1.0  0.0826810279101422  0.15397422562834318  0.5654463049430729  1.0000
  C   C11       1.0  0.06207616079923059  0.23730371247027882  0.44935789948429217  1.0000
  C   C12       1.0  0.04983156683496488  0.1722666491973357  0.33252822952135563  1.0000
  C   C13       1.0  0.05823878337903185  0.022522578844616822  0.3309406811854847  1.0000
  C   C14       1.0  0.07718785218653385  0.9378753301596259  0.44543513670009194  1.0000
  C   C15       1.0  0.08817909040368405  0.001150731686886394  0.5640392163164716  1.0000
  N   N3        1.0  0.029776845619399177  0.25869508041090383  0.2151635122476858  1.0000
  H   H7        1.0  0.18345383034657237  0.23353313159728667  0.849522278840058  1.0000
  H   H8        1.0  0.04924160582423198  0.9710444105488014  0.24105180084645775  1.0000
  H   H9        1.0  0.15242437787253663  0.70401976788848  0.7573138668722466  1.0000
  H   H10       1.0  0.023607456205299235  0.3707751899197893  0.21512478392718148  1.0000
  H   H11       1.0  0.02086396461907869  0.21123403500548157  0.12740967190955654  1.0000
  C   C16       1.0  0.08543007928834462  0.5775624681570697  0.18349428659493938  1.0000
  C   C17       1.0  0.05616588638774142  0.7214424774860704  0.17207491542863895  1.0000
  C   C18       1.0  0.04137271931694997  0.7928201041378464  0.049417893709288174  1.0000
  C   C19       1.0  0.0561658046804072  0.7214423261460536  0.9369237460359009  1.0000
  C   C20       1.0  0.08543002114489612  0.5775624584945744  0.9459911902730047  1.0000
  C   C21       1.0  0.09989144572047247  0.5063129899801411  0.06981533693094044  1.0000
  S   S1        1.0  0.0041679791615252225  0.9767547098172963  0.03632253308736732  1.0000
  C   C22       1.0  0.8860582767238205  0.9264751973253694  0.03998404445759784  1.0000
  H   H12       1.0  0.044540928935246055  0.7785920288694372  0.25810575192118956  1.0000
  H   H13       1.0  0.044540748314390005  0.7785918212600491  0.84275543938417  1.0000
  H   H14       1.0  0.12244791542202016  0.3953224150745096  0.07771721009881238  1.0000
  H   H15       1.0  0.8697637720911279  0.8623206456453592  0.9564531586990387  1.0000
  H   H16       1.0  0.8697641650565863  0.8623221030550281  0.1326878480973923  1.0000
  H   H17       1.0  0.8452622342005505  0.02608077117122408  0.032905274127465356  1.0000
  Zn  Zn1       1.0  0.9873150520259427  0.5776628851917354  0.5647993273408665  1.0000
  Zn  Zn2       1.0  0.1835364747797045  0.5774613491698963  0.5646855754261197  1.0000
  C   C23       1.0  0.08539074281672397  0.5718159522810333  0.801872507604481  1.0000
  C   C24       1.0  0.08546293853257841  0.5833100999260707  0.3276125183235261  1.0000
  C   C25       1.0  0.08713522001658401  0.8410163127342004  0.5591316291224433  1.0000
  C   C26       1.0  0.08371838312876889  0.3141080064836306  0.5703534689396605  1.0000
  O   O1        1.0  0.15993893287268696  0.585156282735231  0.3759367556215478  1.0000
  O   O2        1.0  0.15984226102985  0.5698157200979319  0.7534615633146888  1.0000
  O   O3        1.0  0.16124994460665018  0.787198416698067  0.5574465845991929  1.0000
  O   O4        1.0  0.15853118240578146  0.3677735965226969  0.5719516370148083  1.0000
  O   O5        1.0  0.012320277439134662  0.7873506379092801  0.5575332657841638  1.0000
  O   O6        1.0  0.010912605105553246  0.5699696743687623  0.7535481723975506  1.0000
  O   O7        1.0  0.011009276681830826  0.5853101867393649  0.3760218038803438  1.0000
  O   O8        1.0  0.009601526144299434  0.36792749020957416  0.5720367826278265  1.0000
