data_image0
_chemical_formula_structural       NC12NC2H8C6ClH5C6NCH7Zn2C4O8
_chemical_formula_sum              "N3 C31 H20 Cl1 Zn2 O8"
_cell_length_a       19.240039667572717
_cell_length_b       10.30297070629231
_cell_length_c       9.273390368590327
_cell_angle_alpha    86.16779528597041
_cell_angle_beta     89.99083702737411
_cell_angle_gamma    89.99831201696266

_space_group_name_H-M_alt    "P 1"
_space_group_IT_number       1

loop_
  _space_group_symop_operation_xyz
  'x, y, z'

loop_
  _atom_site_type_symbol
  _atom_site_label
  _atom_site_symmetry_multiplicity
  _atom_site_fract_x
  _atom_site_fract_y
  _atom_site_fract_z
  _atom_site_occupancy
  N   N1        1.0  0.6545774868350835  0.4056264400368599  0.41020869782469727  1.0000
  C   C1        1.0  0.5944291180235005  0.4056265231222709  0.4102086068941746  1.0000
  C   C2        1.0  0.5196110808922554  0.40562663891425244  0.41020845451762233  1.0000
  C   C3        1.0  0.4831295207995708  0.3422787103211695  0.5249729289957068  1.0000
  C   C4        1.0  0.4104587670309369  0.34216878229580416  0.5250689692642332  1.0000
  C   C5        1.0  0.3732788459729778  0.4056267290350624  0.41020820183912043  1.0000
  C   C6        1.0  0.4104746032826098  0.46908486476437483  0.29534765032460175  1.0000
  C   C7        1.0  0.4831452860709141  0.4689747026138946  0.2954438265346637  1.0000
  C   C8        1.0  0.29607375554276916  0.4056266493869878  0.4102080959428758  1.0000
  C   C9        1.0  0.2588841444632346  0.29284605876539005  0.45667131173943454  1.0000
  C   C10       1.0  0.18621346222010998  0.29295195631081294  0.4565699631026052  1.0000
  C   C11       1.0  0.1497414686163892  0.4056265209013077  0.4102081635355748  1.0000
  C   C12       1.0  0.07492343144191889  0.4056264098319709  0.4102084394956198  1.0000
  N   N2        1.0  0.014775114572600596  0.4056263712318937  0.4102086707987911  1.0000
  C   C13       1.0  0.1862169858726182  0.5183011607342896  0.36384630527353323  1.0000
  C   C14       1.0  0.2588876882426027  0.5184072366187802  0.3637447761965069  1.0000
  H   H1        1.0  0.5108382539925773  0.2932405497286352  0.6145777897005766  1.0000
  H   H2        1.0  0.3833592193023193  0.2939402829071023  0.6159118626226292  1.0000
  H   H3        1.0  0.3833876202270303  0.5173133906575975  0.20450470053555292  1.0000
  H   H4        1.0  0.5108663243189334  0.5180127659008867  0.20583927190461382  1.0000
  H   H5        1.0  0.2859761542301318  0.20404965299853878  0.4912572313175163  1.0000
  H   H6        1.0  0.1584972521127068  0.20506539909242028  0.4923023165210083  1.0000
  H   H7        1.0  0.1585033725313715  0.6061876935779669  0.3281139680021652  1.0000
  H   H8        1.0  0.2859821572955037  0.6072037210621708  0.3291588069343363  1.0000
  C   C15       1.0  0.8346796259256679  0.024379029177020724  0.4102148817946605  1.0000
  C   C16       1.0  0.9064458162230686  0.02150154457164111  0.43797583015747793  1.0000
  C   C17       1.0  0.94205428438647  0.9031169686379187  0.45174997103578485  1.0000
  C   C18       1.0  0.9064458156733544  0.7863935752532444  0.43797576237331937  1.0000
  C   C19       1.0  0.8346796333367912  0.7868639717790408  0.41021496430075577  1.0000
  C   C20       1.0  0.7991463659632853  0.9064503568804936  0.39646978056486937  1.0000
  Cl  Cl1       1.0  0.03170735480183073  0.9010258207787076  0.48642991037017835  1.0000
  H   H9        1.0  0.807646559041861  0.3527660378351787  0.39975701183775825  1.0000
  H   H10       1.0  0.9349889742372036  0.11088236233811123  0.44901691025335905  1.0000
  H   H11       1.0  0.9349889467592506  0.6956811685193313  0.44901680670185273  1.0000
  H   H12       1.0  0.7437981021370272  0.9077412327785372  0.37505965829713905  1.0000
  H   H13       1.0  0.8076465556316872  0.45973807376234876  0.3997572839562855  1.0000
  C   C21       1.0  0.8347118510950159  0.401572953133454  0.9869691249048375  1.0000
  C   C22       1.0  0.8985469988745033  0.3989933614963974  0.0605716015377158  1.0000
  C   C23       1.0  0.9612687182243482  0.4084825199059455  0.9851568045973131  1.0000
  C   C24       1.0  0.9617489005800447  0.4209029850274764  0.833528816277882  1.0000
  C   C25       1.0  0.8983373870028492  0.4212931152827233  0.759116737530269  1.0000
  C   C26       1.0  0.8346474394712149  0.4096700356338497  0.8334606596712208  1.0000
  N   N3        1.0  0.02564533264751701  0.43188697726179304  0.7527405361162076  1.0000
  C   C27       1.0  0.09426856263058347  0.43203998361540075  0.8197287241060516  1.0000
  H   H14       1.0  0.7250095999382966  0.3392099785266005  0.2728091340967773  1.0000
  H   H15       1.0  0.009156007331808878  0.40728788019041406  0.046277802138455795  1.0000
  H   H16       1.0  0.6726724123939707  0.3088080861082192  0.7379695954970825  1.0000
  H   H17       1.0  0.023390213671114816  0.4404911774707059  0.6398647032887239  1.0000
  H   H18       1.0  0.0987792843764108  0.5153224848998714  0.8891972605160738  1.0000
  H   H19       1.0  0.10274647781650281  0.33923747771819857  0.8852826590330913  1.0000
  H   H20       1.0  0.13499961508075042  0.44185471780990243  0.7348381517956818  1.0000
  Zn  Zn1       1.0  0.758522750041976  0.40562303357891843  0.4102170007305501  1.0000
  Zn  Zn2       1.0  0.9108298692411908  0.4056193000994377  0.4102121306224232  1.0000
  C   C28       1.0  0.8346580494954026  0.402967463157456  0.673455641155702  1.0000
  C   C29       1.0  0.8346962329660508  0.40827650993094405  0.14697363160727472  1.0000
  C   C30       1.0  0.8346765035500441  0.6426831189025934  0.4044714662875895  1.0000
  C   C31       1.0  0.8346777269337411  0.1685592951165038  0.4159578833184816  1.0000
  O   O1        1.0  0.8924907493600112  0.4105192040571335  0.20067075753495245  1.0000
  O   O2        1.0  0.8924611124583501  0.40072095202761426  0.6197544040317742  1.0000
  O   O3        1.0  0.892475235058406  0.5942943900144959  0.40254777974307765  1.0000
  O   O4        1.0  0.8924765747960782  0.21694577432508133  0.41787727375825345  1.0000
  O   O5        1.0  0.7768759925121445  0.5942965593558902  0.4025518575888003  1.0000
  O   O6        1.0  0.7768618699148123  0.4007246804409259  0.6197584050284833  1.0000
  O   O7        1.0  0.7768915069945889  0.410522870653405  0.20067302567873505  1.0000
  O   O8        1.0  0.7768773324195886  0.21694943266913858  0.4178796499615123  1.0000
