data_image0
_chemical_formula_structural       NC6NC2H4C9H10C7OH5Zn2C4O8
_chemical_formula_sum              "N2 C28 H19 O9 Zn2"
_cell_length_a       14.927258858638513
_cell_length_b       10.297183801781406
_cell_length_c       9.274074313596557
_cell_angle_alpha    86.09469829957582
_cell_angle_beta     90.23360497227152
_cell_angle_gamma    89.99762792032334

_space_group_name_H-M_alt    "P 1"
_space_group_IT_number       1

loop_
  _space_group_symop_operation_xyz
  'x, y, z'

loop_
  _atom_site_type_symbol
  _atom_site_label
  _atom_site_symmetry_multiplicity
  _atom_site_fract_x
  _atom_site_fract_y
  _atom_site_fract_z
  _atom_site_occupancy
  N   N1        1.0  0.8394994570553188  0.40762363138024627  0.40949539035835825  1.0000
  C   C1        1.0  0.7619729659152308  0.4076236057923333  0.40949540095798165  1.0000
  C   C2        1.0  0.6655404582415889  0.4076237090320618  0.4094953510552437  1.0000
  C   C3        1.0  0.6181679089840808  0.3851633838831004  0.282845185709667  1.0000
  C   C4        1.0  0.5244565973018912  0.3851634057963405  0.2828450522661221  1.0000
  C   C5        1.0  0.4777243943018373  0.40762354925974803  0.4094953697617478  1.0000
  C   C6        1.0  0.38129181963664444  0.4076236525020941  0.40949531985308507  1.0000
  N   N2        1.0  0.3037653284965564  0.4076236269141811  0.4094953304527085  1.0000
  C   C7        1.0  0.5250968765677944  0.4300838744113271  0.5361455351013997  1.0000
  C   C8        1.0  0.6188081882499836  0.4300838524980872  0.5361456685449448  1.0000
  H   H1        1.0  0.6536149915440175  0.3676879834516318  0.1843040882575191  1.0000
  H   H2        1.0  0.4885113360151131  0.3676881613497609  0.18430408323325698  1.0000
  H   H3        1.0  0.4896498612696792  0.4475592665040429  0.6346867406221016  1.0000
  H   H4        1.0  0.6547534498105666  0.44755918559088537  0.6346867475407343  1.0000
  C   C9        1.0  0.07164034097970688  0.026149865327562923  0.409699589094594  1.0000
  C   C10       1.0  0.06864443700153999  0.03466913603077559  0.2580348804270738  1.0000
  C   C11       1.0  0.06710934057186102  0.9224173201495403  0.18033261503133158  1.0000
  C   C12       1.0  0.06863245251215605  0.7994928467962013  0.2574470504739241  1.0000
  C   C13       1.0  0.0716330802197907  0.7890874913104379  0.40930359283503415  1.0000
  C   C14       1.0  0.07311658656205827  0.9028833659933623  0.4844385773435691  1.0000
  C   C15       1.0  0.0638688110142267  0.9410637077824846  0.016296523333217964  1.0000
  C   C16       1.0  0.011209941594146683  0.8416375508564942  0.9360650110873765  1.0000
  C   C17       1.0  0.11325795311373281  0.8419052845573841  0.9314864671092136  1.0000
  H   H5        1.0  0.07280326517692398  0.3504055710568148  0.4681408660145087  1.0000
  H   H6        1.0  0.06748804089694938  0.1293804098858653  0.19948393530066033  1.0000
  H   H7        1.0  0.06750599595675655  0.7113899258076194  0.20052205376511398  1.0000
  H   H8        1.0  0.07542754038352212  0.895583126881779  0.6014510849307897  1.0000
  H   H9        1.0  0.07728852092050455  0.5622182547751858  0.6961178420156684  1.0000
  H   H10       1.0  0.06282807029910664  0.04131319247822219  0.9635724397984315  1.0000
  H   H11       1.0  0.9814826713914372  0.7585798594397816  0.001655233457940275  1.0000
  H   H12       1.0  0.9793468226885763  0.8816090924035347  0.834092961765097  1.0000
  H   H13       1.0  0.1455193718174027  0.7590110333514918  0.9942962222755022  1.0000
  H   H14       1.0  0.14103740263593245  0.8820309255869697  0.8268371305146637  1.0000
  C   C18       1.0  0.07056411067143992  0.4038772540448628  0.9862623704858238  1.0000
  C   C19       1.0  0.9924545443707358  0.4422287845428088  0.05613132456187353  1.0000
  C   C20       1.0  0.9187562767056989  0.4910202076168841  0.9769237753087112  1.0000
  C   C21       1.0  0.9214436350011994  0.5027578857299599  0.8256376815286273  1.0000
  C   C22       1.0  0.9983436546598983  0.4628380213130592  0.7546296555809987  1.0000
  C   C23       1.0  0.0727092645002914  0.4113600591891937  0.8327408926771898  1.0000
  C   C24       1.0  0.8443841048671461  0.5551216604921276  0.7402198029663092  1.0000
  O   O1        1.0  0.774183275103118  0.5913161958400724  0.8009073002617699  1.0000
  H   H15       1.0  0.28945119252021434  0.37078078028109696  0.09306810131362764  1.0000
  H   H16       1.0  0.8599772363949278  0.5207582070822683  0.03430999842763049  1.0000
  H   H17       1.0  0.9993816537184486  0.4691333618078106  0.6374697252124907  1.0000
  H   H18       1.0  0.21984242138720245  0.38436040285729267  0.5552890697868387  1.0000
  H   H19       1.0  0.8475651221425506  0.563006699499137  0.6233461930003377  1.0000
  Zn  Zn1       1.0  0.973476587976606  0.4076202228303669  0.4095037028683157  1.0000
  Zn  Zn2       1.0  0.16978823852129302  0.40761649949058554  0.4094988463579274  1.0000
  C   C25       1.0  0.07230185870663204  0.40477057941178307  0.6727409704062264  1.0000
  C   C26       1.0  0.07096511185125065  0.41046778318927873  0.14626171937723728  1.0000
  C   C27       1.0  0.07161527388247269  0.644825265713779  0.4036351171049248  1.0000
  C   C28       1.0  0.07165162989758227  0.1704115368361054  0.4153676503305276  1.0000
  O   O2        1.0  0.1455989398593801  0.4126725446876453  0.19995712239825858  1.0000
  O   O3        1.0  0.14666403007744122  0.4025620083250976  0.6190414670243889  1.0000
  O   O4        1.0  0.14610860366129796  0.5964092166867891  0.40173658583884286  1.0000
  O   O5        1.0  0.14615429901370153  0.21882534466470638  0.41726189551524984  1.0000
  O   O6        1.0  0.9971104604926458  0.5964113776588638  0.40174065370506845  1.0000
  O   O7        1.0  0.9976658866950661  0.402565729350967  0.6190454572327011  1.0000
  O   O8        1.0  0.9966007921456109  0.4126762051269695  0.19995937980390321  1.0000
  O   O9        1.0  0.9971561515702029  0.21882899676789513  0.41726426098352487  1.0000
