data_image0
_chemical_formula_structural       NC9NC3NH7C6NCOCH7C9H10Zn2C4O8
_chemical_formula_sum              "N4 C33 H24 O9 Zn2"
_cell_length_a       16.053384444249904
_cell_length_b       10.300268703208214
_cell_length_c       9.272679976505533
_cell_angle_alpha    86.02026342835288
_cell_angle_beta     90.20084585415952
_cell_angle_gamma    89.1549403880511

_space_group_name_H-M_alt    "P 1"
_space_group_IT_number       1

loop_
  _space_group_symop_operation_xyz
  'x, y, z'

loop_
  _atom_site_type_symbol
  _atom_site_label
  _atom_site_symmetry_multiplicity
  _atom_site_fract_x
  _atom_site_fract_y
  _atom_site_fract_z
  _atom_site_occupancy
  N   N1        1.0  0.7777857095232246  0.3924681252374951  0.4065130566984865  1.0000
  C   C1        1.0  0.7267077646289819  0.3710621278110361  0.323427429882174  1.0000
  C   C2        1.0  0.6632319992089458  0.3444651026577124  0.22021482714248108  1.0000
  C   C3        1.0  0.6762798099247566  0.3313487305641474  0.07509278607170877  1.0000
  C   C4        1.0  0.5994326601871108  0.305607593808648  0.01708801926737635  1.0000
  C   C5        1.0  0.5427826335552701  0.30445142297825095  0.1299499902332868  1.0000
  C   C6        1.0  0.4520907405231053  0.28054990318875506  0.11857546319618505  1.0000
  C   C7        1.0  0.3965961459270099  0.32400684484507464  0.22281801827898562  1.0000
  C   C8        1.0  0.3110097642618922  0.30133771556157596  0.2119233701196055  1.0000
  C   C9        1.0  0.25474508629283726  0.3465582747290222  0.3187988872743639  1.0000
  N   N2        1.0  0.2095248835899228  0.3829092155270926  0.40471006593188474  1.0000
  C   C10       1.0  0.2801920326159356  0.23509977574860044  0.09680138627748147  1.0000
  C   C11       1.0  0.3346789746405096  0.19176412428730782  0.992793796678283  1.0000
  C   C12       1.0  0.4200576923474111  0.21426438401639517  0.0032482131205511266  1.0000
  N   N3        1.0  0.5824542752390106  0.3283091831825549  0.2537829726147267  1.0000
  H   H1        1.0  0.7347864216416763  0.339572966691659  0.017795744244655912  1.0000
  H   H2        1.0  0.5867326132725575  0.29103061965932736  0.90477701628031  1.0000
  H   H3        1.0  0.4192512779387566  0.3770970509956437  0.31139914016238346  1.0000
  H   H4        1.0  0.2141369218600344  0.21706704396214097  0.08744078371901054  1.0000
  H   H5        1.0  0.310732112196695  0.14031372839785236  0.9039530800785651  1.0000
  H   H6        1.0  0.460864346505058  0.1782397824079718  0.9219386267724757  1.0000
  H   H7        1.0  0.5566957283792624  0.33141418997645555  0.35675154152279864  1.0000
  C   C13       1.0  0.9937439423634584  0.00633914261626023  0.4056196994212151  1.0000
  C   C14       1.0  0.007190883398486169  0.01434218610095694  0.2557014673206415  1.0000
  C   C15       1.0  0.015104448234091628  0.9010515844129524  0.1804607841051744  1.0000
  C   C16       1.0  0.007002566476383087  0.7791870971238019  0.2557382195151159  1.0000
  C   C17       1.0  0.9935746413817851  0.7690281781578195  0.40561582034260324  1.0000
  C   C18       1.0  0.9873301848908915  0.8831933214736604  0.47985157551054014  1.0000
  N   N4        1.0  0.02757319931271929  0.9076811649065939  0.026614059252270342  1.0000
  C   C19       1.0  0.07617076416854295  0.005151851131055104  0.9489459961604245  1.0000
  O   O1        1.0  0.12347542179290172  0.07758206882382292  0.015322009287078935  1.0000
  C   C20       1.0  0.07556118122910284  0.014881733236500326  0.7874500499364063  1.0000
  H   H8        1.0  0.009858278119967423  0.10870762328151606  0.19704090042083444  1.0000
  H   H9        1.0  0.011938615329574631  0.6922881956541627  0.19670444077095994  1.0000
  H   H10       1.0  0.9769816903281416  0.8762110407312943  0.5954852005087881  1.0000
  H   H11       1.0  0.004395708244911529  0.83235078364926  0.9687846656602588  1.0000
  H   H12       1.0  0.011638580020797873  0.9989659371321957  0.7468439447327682  1.0000
  H   H13       1.0  0.09604707416969327  0.11278366217906434  0.745326922327294  1.0000
  H   H14       1.0  0.11840221091109493  0.9399202953072859  0.7475854100243962  1.0000
  C   C21       1.0  0.9919709685669608  0.3846545401933729  0.9822621649910865  1.0000
  C   C22       1.0  0.048601941782572045  0.30307219021318504  0.06229236374158064  1.0000
  C   C23       1.0  0.1093329734081554  0.2319223820917689  0.9934381452704021  1.0000
  C   C24       1.0  0.11548666199424895  0.24001379974573217  0.8425501465076204  1.0000
  C   C25       1.0  0.057856144402590015  0.3198558191140981  0.7611398558748061  1.0000
  C   C26       1.0  0.995347617554252  0.3907127773801702  0.8289734217368654  1.0000
  C   C27       1.0  0.18398803036591782  0.1602698809997425  0.7761162963331127  1.0000
  C   C28       1.0  0.16416510944803364  0.10127873914802721  0.634099565626582  1.0000
  C   C29       1.0  0.22273363333867957  0.21625993438807403  0.6360358098178942  1.0000
  H   H15       1.0  0.8665189502817037  0.4752338794747173  0.2557364417605723  1.0000
  H   H16       1.0  0.04728460506209875  0.29655082230674323  0.17937250617751754  1.0000
  H   H17       1.0  0.15247209418219065  0.17095354833214627  0.058890749013917  1.0000
  H   H18       1.0  0.059718351418817754  0.325428507289405  0.6443531419201833  1.0000
  H   H19       1.0  0.8061924842270323  0.5170687756736922  0.7150599168800738  1.0000
  H   H20       1.0  0.22754053422648757  0.10088742817040687  0.8481210346401395  1.0000
  H   H21       1.0  0.10228203319111251  0.12480956077331443  0.5846762655768569  1.0000
  H   H22       1.0  0.19654322546942593  0.00707312264999272  0.6196709078275475  1.0000
  H   H23       1.0  0.19646778404852105  0.3095751625111449  0.5876718088816228  1.0000
  H   H24       1.0  0.289352219809091  0.18924706654846868  0.6227349323225457  1.0000
  Zn  Zn1       1.0  0.9023763407494798  0.389706226541535  0.40600107028721677  1.0000
  Zn  Zn2       1.0  0.08493427824171973  0.38566061866696977  0.4052338352170426  1.0000
  C   C30       1.0  0.994708656795602  0.3843942508255942  0.6689268556590142  1.0000
  C   C31       1.0  0.9926039559232058  0.39097418975358234  0.1423081829585897  1.0000
  C   C32       1.0  0.9935794557868804  0.6248226869261786  0.3998716532752711  1.0000
  C   C33       1.0  0.9937330952904923  0.1505441953602875  0.41136346247347566  1.0000
  O   O2        1.0  0.06209617938949585  0.39155416931921816  0.19572992694496305  1.0000
  O   O3        1.0  0.06377368234520975  0.38074276585018113  0.6149223830074597  1.0000
  O   O4        1.0  0.06286091030349117  0.5748918000560856  0.3976584073906073  1.0000
  O   O5        1.0  0.06300888870341415  0.19740514501013445  0.4129937947284732  1.0000
  O   O6        1.0  0.9243016679896909  0.5779617015802972  0.3982411110300226  1.0000
  O   O7        1.0  0.925214439374749  0.383814227049029  0.6155050097699692  1.0000
  O   O8        1.0  0.9235369295721237  0.39462557286139993  0.19631082040487757  1.0000
  O   O9        1.0  0.9244496393157472  0.2004765400374218  0.41357479627596705  1.0000
