data_image0
_chemical_formula_structural       NC8NC6H8C9H10C8H6Zn2C4O8
_chemical_formula_sum              "N2 C35 H24 Zn2 O8"
_cell_length_a       17.457602349358154
_cell_length_b       9.272676604525723
_cell_length_c       9.27514407655224
_cell_angle_alpha    86.20425915631827
_cell_angle_beta     93.32514331016303
_cell_angle_gamma    92.2282679722568

_space_group_name_H-M_alt    "P 1"
_space_group_IT_number       1

loop_
  _space_group_symop_operation_xyz
  'x, y, z'

loop_
  _atom_site_type_symbol
  _atom_site_label
  _atom_site_symmetry_multiplicity
  _atom_site_fract_x
  _atom_site_fract_y
  _atom_site_fract_z
  _atom_site_occupancy
  N   N1        1.0  0.7241743901464103  0.602788443029977  0.48269345414041404  1.0000
  C   C1        1.0  0.6627827964847485  0.5516923131798326  0.47065958522979784  1.0000
  C   C2        1.0  0.5864091492739784  0.4881351509602943  0.4557000781646996  1.0000
  C   C3        1.0  0.5284685548377721  0.5333419895816449  0.5390804365621895  1.0000
  C   C4        1.0  0.45354805443519824  0.4721425889134076  0.5248145533719799  1.0000
  C   C5        1.0  0.3920505476885673  0.519876253952539  0.6131168289596995  1.0000
  C   C6        1.0  0.31734297223906915  0.5399455893461513  0.5512972115093924  1.0000
  C   C7        1.0  0.2594018382533168  0.584948992893009  0.6347964528156587  1.0000
  C   C8        1.0  0.1832489824208365  0.6056736218518901  0.5705200816720557  1.0000
  N   N2        1.0  0.12203496704016181  0.6223291384790388  0.5188420127673572  1.0000
  C   C9        1.0  0.2756799403831688  0.6101571841134505  0.7806812638424956  1.0000
  C   C10       1.0  0.3496068919094152  0.5905230057919026  0.842933349392996  1.0000
  C   C11       1.0  0.40753964031513507  0.5457232462543167  0.7599433187155091  1.0000
  C   C12       1.0  0.4378460648289334  0.3649724834226269  0.4255735919329826  1.0000
  C   C13       1.0  0.4957784490653137  0.32007837739928746  0.34263888435385503  1.0000
  C   C14       1.0  0.5699174567119415  0.38140698295024866  0.3575160237765904  1.0000
  H   H1        1.0  0.5415616456632342  0.6173953229387373  0.6134692600911194  1.0000
  H   H2        1.0  0.3044244396998267  0.5225041240649182  0.4379309377063189  1.0000
  H   H3        1.0  0.23127708397587723  0.6449292377075846  0.8461770900933203  1.0000
  H   H4        1.0  0.3620188455738756  0.6096916700444959  0.9558935186190968  1.0000
  H   H5        1.0  0.464159892748753  0.5294385658529028  0.8110585822224368  1.0000
  H   H6        1.0  0.3810509520835775  0.3145310406443882  0.41350278298911136  1.0000
  H   H7        1.0  0.48319982946535556  0.2372556042979899  0.26692545825732683  1.0000
  H   H8        1.0  0.6143178223582048  0.34567298480828873  0.29258307480450396  1.0000
  C   C15       1.0  0.9209251896753028  0.18895025988522463  0.49872832328093386  1.0000
  C   C16       1.0  0.8907050119399036  0.2524118765259571  0.6153613702066931  1.0000
  C   C17       1.0  0.8675239403923711  0.16800819027657665  0.7361568506938796  1.0000
  C   C18       1.0  0.8738157196763587  0.017622249994269982  0.7443869488937989  1.0000
  C   C19       1.0  0.9027733238854172  0.9526410788335881  0.6265286218823196  1.0000
  C   C20       1.0  0.9252915263988257  0.036156625423932505  0.5028202461186508  1.0000
  C   C21       1.0  0.8479563082076371  0.9337185386691662  0.8805042484557292  1.0000
  C   C22       1.0  0.809094487346537  0.7856135977106035  0.862621488313702  1.0000
  C   C23       1.0  0.8904197872259019  0.7974840349218434  0.9310014466987405  1.0000
  H   H9        1.0  0.9369632467020996  0.4868876171401342  0.26398037828417276  1.0000
  H   H10       1.0  0.8866535906666758  0.36873443724200206  0.6148547005757223  1.0000
  H   H11       1.0  0.845168302661936  0.2209994301338436  0.8246946057453799  1.0000
  H   H12       1.0  0.9064415001496029  0.8364303985945076  0.6282004268864159  1.0000
  H   H13       1.0  0.9437028756285006  0.9577405803113448  0.15154780215423447  1.0000
  H   H14       1.0  0.8266121669895602  0.9934372520408697  0.9693215945610849  1.0000
  H   H15       1.0  0.8050617949754709  0.745385418962826  0.7523674883131524  1.0000
  H   H16       1.0  0.7649573934732905  0.7552537387852225  0.9417693982831065  1.0000
  H   H17       1.0  0.9357648475626152  0.764337507486701  0.8623676383164669  1.0000
  H   H18       1.0  0.8938115248540676  0.7740558618258988  0.05013302252270579  1.0000
  C   C24       1.0  0.9212848231875551  0.6095127619644654  0.0773102193490458  1.0000
  C   C25       1.0  0.8717148247637421  0.7011310282083154  0.13919047329598833  1.0000
  C   C26       1.0  0.8283418073684223  0.8001991011678784  0.05275605164583585  1.0000
  C   C27       1.0  0.833755512184408  0.8096808252755069  0.9028576535203507  1.0000
  C   C28       1.0  0.8817311758499201  0.7178784950212421  0.8390762484118528  1.0000
  C   C29       1.0  0.9249318675178442  0.6155941753952314  0.9242383756530521  1.0000
  C   C30       1.0  0.7892879021120739  0.912659541510486  0.8139711612086158  1.0000
  C   C31       1.0  0.7520597450802088  0.9988770118628167  0.7395363269990534  1.0000
  H   H19       1.0  0.07990551937457013  0.4279878642959807  0.2095001794228284  1.0000
  H   H20       1.0  0.8678622265032602  0.6985174885216164  0.25549998338253244  1.0000
  H   H21       1.0  0.791100586903563  0.87047854933638  0.10312539244889773  1.0000
  H   H22       1.0  0.883963021143802  0.7239807412021066  0.7222205611635442  1.0000
  H   H23       1.0  0.030043373479485595  0.4887118100144159  0.6633982944684305  1.0000
  H   H24       1.0  0.7193811485398406  0.07455754712391505  0.6741965161352512  1.0000
  Zn  Zn1       1.0  0.8389883743257185  0.6084236569791457  0.4931334547666104  1.0000
  Zn  Zn2       1.0  0.00722095849604343  0.6166821821483099  0.5084137611532478  1.0000
  C   C32       1.0  0.9242111663217171  0.6086978353706438  0.7641228708735046  1.0000
  C   C33       1.0  0.9220000135845542  0.6164099150664519  0.23742466223381364  1.0000
  C   C34       1.0  0.9244374778310229  0.8759751429976056  0.4963000086582992  1.0000
  C   C35       1.0  0.9217736360681863  0.34913087205424875  0.5052475877452887  1.0000
  O   O1        1.0  0.986083394522196  0.6218524366457912  0.29695929817345657  1.0000
  O   O2        1.0  0.9878124167362616  0.6095222520897088  0.7161852135522473  1.0000
  O   O3        1.0  0.9879943119595728  0.8253520266993555  0.49991628649502556  1.0000
  O   O4        1.0  0.9859014414800836  0.4060226687608853  0.5132281119435931  1.0000
  O   O5        1.0  0.8603078339321287  0.8190831675498569  0.4883190987542687  1.0000
  O   O6        1.0  0.8601259473063306  0.6032551255087384  0.704587957293225  1.0000
  O   O7        1.0  0.8583969174183886  0.6155852473496997  0.28536030792966094  1.0000
  O   O8        1.0  0.8582149647855284  0.3997554699233398  0.5016292297648866  1.0000
