data_image0
_chemical_formula_structural       NC9NC5H8C8H10C7OH5Zn2C4O8
_chemical_formula_sum              "N2 C33 H23 O9 Zn2"
_cell_length_a       17.807436237873137
_cell_length_b       9.275653711864159
_cell_length_c       9.274081674992354
_cell_angle_alpha    86.25045921742756
_cell_angle_beta     89.07685020002327
_cell_angle_gamma    87.8440138982238

_space_group_name_H-M_alt    "P 1"
_space_group_IT_number       1

loop_
  _space_group_symop_operation_xyz
  'x, y, z'

loop_
  _atom_site_type_symbol
  _atom_site_label
  _atom_site_symmetry_multiplicity
  _atom_site_fract_x
  _atom_site_fract_y
  _atom_site_fract_z
  _atom_site_occupancy
  N   N1        1.0  0.7045915999047307  0.5265625341715605  0.40351880561187303  1.0000
  C   C1        1.0  0.6442362868879515  0.48737303618934114  0.39115480177645456  1.0000
  C   C2        1.0  0.5691609111122107  0.4386256163008171  0.3757753236723249  1.0000
  C   C3        1.0  0.5518196954545578  0.35826025338052236  0.25896696345498715  1.0000
  C   C4        1.0  0.47892626944258815  0.3108056132401149  0.2439423640751326  1.0000
  C   C5        1.0  0.4223275422137666  0.3432967603715775  0.3456887325984108  1.0000
  C   C6        1.0  0.3448597071115713  0.2929931427495218  0.3298129910164962  1.0000
  C   C7        1.0  0.2821427419309066  0.3840452626322173  0.35890128649167696  1.0000
  C   C8        1.0  0.20910809001247954  0.3363652856508341  0.3438911345273348  1.0000
  C   C9        1.0  0.1453248925613592  0.43040983353345186  0.3733931302136395  1.0000
  N   N2        1.0  0.0940562249316845  0.5060151546754885  0.39711190713721  1.0000
  C   C10       1.0  0.1982083735908736  0.1973464452507121  0.29976361215177905  1.0000
  C   C11       1.0  0.2600680740325334  0.10627885774454414  0.2706659541089891  1.0000
  C   C12       1.0  0.3329861640059057  0.15351865310740886  0.2854498627562094  1.0000
  C   C13       1.0  0.4403566827780111  0.42421332970379955  0.4627422255954381  1.0000
  C   C14       1.0  0.5133045606223204  0.47145496675250964  0.47759336704082883  1.0000
  H   H1        1.0  0.5945812953592203  0.33256732295891944  0.1792870670664224  1.0000
  H   H2        1.0  0.4665911085179535  0.25035522156705015  0.15170898660457754  1.0000
  H   H3        1.0  0.2900026254031886  0.49257159111875487  0.3913078664768701  1.0000
  H   H4        1.0  0.1419677245729151  0.15944244397379692  0.2878800178100429  1.0000
  H   H5        1.0  0.2515093534637134  0.9986511512974503  0.23692994875528936  1.0000
  H   H6        1.0  0.3800556252582388  0.08031645542310883  0.2640679589059658  1.0000
  H   H7        1.0  0.3983105805761603  0.4493206941386478  0.5438570016922388  1.0000
  H   H8        1.0  0.5261648233528189  0.5332503229968772  0.5686750190425693  1.0000
  C   C15       1.0  0.9014407693615595  0.09277603353995123  0.3989354540554395  1.0000
  C   C16       1.0  0.8841948018981136  0.17594396694859138  0.2706658603928309  1.0000
  C   C17       1.0  0.8601560187404214  0.11088712622598496  0.1480864674596416  1.0000
  C   C18       1.0  0.8544840198822973  0.9606337754827269  0.1527854409843563  1.0000
  C   C19       1.0  0.8725494142329635  0.8762103413737179  0.27826370999157324  1.0000
  C   C20       1.0  0.8972142425861618  0.9397902921919101  0.4017075889925523  1.0000
  C   C21       1.0  0.842972043532206  0.20135551590990053  0.011029703528737668  1.0000
  C   C22       1.0  0.9135514627739237  0.21864258767473618  0.9171114498448412  1.0000
  H   H9        1.0  0.9690506145115823  0.35553690808933247  0.5976101342045508  1.0000
  H   H10       1.0  0.8878048621580857  0.29253751898891767  0.2667231435741395  1.0000
  H   H11       1.0  0.8367760773104799  0.9084829413867276  0.05853001212091291  1.0000
  H   H12       1.0  0.8690768897377947  0.7599145700168651  0.27744097935000434  1.0000
  H   H13       1.0  0.9035629865617864  0.6424705685469713  0.6392979751162768  1.0000
  H   H14       1.0  0.7993520873050981  0.15021675232240117  0.9490686777154793  1.0000
  H   H15       1.0  0.820087529106005  0.3099543790821  0.03695456298631328  1.0000
  H   H16       1.0  0.9571646739805993  0.2730694765307413  0.9759031907362585  1.0000
  H   H17       1.0  0.9361985454247959  0.11127643502222974  0.887078978756128  1.0000
  H   H18       1.0  0.8996842517910262  0.28553492471461883  0.8167363705530168  1.0000
  C   C23       1.0  0.900614648124372  0.5124356674154555  0.9770185701876796  1.0000
  C   C24       1.0  0.9613346958580047  0.5719816136463292  0.04474604910737434  1.0000
  C   C25       1.0  0.01774591129804848  0.6423915908139117  0.9635693292988261  1.0000
  C   C26       1.0  0.01341988392023641  0.6536475393149135  0.8125529888016536  1.0000
  C   C27       1.0  0.9542787093821593  0.5931961958032885  0.7435940856586516  1.0000
  C   C28       1.0  0.8980403755937636  0.5201306811872777  0.8236244583474077  1.0000
  C   C29       1.0  0.0802039105259238  0.7047160374387653  0.03819622890544472  1.0000
  O   O1        1.0  0.13158687383132928  0.7691798289140326  0.9682256274803481  1.0000
  H   H19       1.0  0.7230253019666913  0.42814451774773676  0.09100985054125532  1.0000
  H   H20       1.0  0.05616580716199482  0.7080197489697369  0.7474226706168055  1.0000
  H   H21       1.0  0.9535444773979168  0.6006844482076692  0.6265561808717033  1.0000
  H   H22       1.0  0.7796916453425028  0.45739173382592213  0.5502668247901874  1.0000
  H   H23       1.0  0.08244051436002908  0.6954318926278167  0.15503737018049368  1.0000
  Zn  Zn1       1.0  0.8169826704485966  0.5206292318478691  0.40167823716796036  1.0000
  Zn  Zn2       1.0  0.9816651588179365  0.5119368086962743  0.3989642876817745  1.0000
  C   C30       1.0  0.8985539559966963  0.5129308528351997  0.6635790756558757  1.0000
  C   C31       1.0  0.900095662087167  0.5196369137717542  0.13706356699547584  1.0000
  C   C32       1.0  0.8980267503480902  0.7796345890025058  0.3954394668936607  1.0000
  C   C33       1.0  0.9006228199536037  0.25293144854280825  0.4052032478646721  1.0000
  O   O2        1.0  0.9624176631139372  0.5187486967049091  0.1897461796747797  1.0000
  O   O3        1.0  0.9612221598395632  0.5072206300990618  0.6088362195993402  1.0000
  O   O4        1.0  0.9607955875753456  0.7225873280752799  0.39231160718369784  1.0000
  O   O5        1.0  0.962844179460341  0.30338201102929574  0.4062706849686142  1.0000
  O   O6        1.0  0.8358035936081563  0.7291840324826464  0.39437184079968146  1.0000
  O   O7        1.0  0.836230157456508  0.513819066535866  0.6108963820269042  1.0000
  O   O8        1.0  0.837425666301444  0.5253470671295399  0.19180460884995054  1.0000
  O   O9        1.0  0.8378521823676258  0.3099803721211196  0.40832922218415413  1.0000
