data_image0
_chemical_formula_structural       NC6NC3H6C6NCH9C7OH5Zn2C4O8
_chemical_formula_sum              "N3 C27 H20 O9 Zn2"
_cell_length_a       14.934028789175542
_cell_length_b       9.273386996610926
_cell_length_c       9.274074313596557
_cell_angle_alpha    86.02935137670892
_cell_angle_beta     90.20908406498742
_cell_angle_gamma    89.3610420342759

_space_group_name_H-M_alt    "P 1"
_space_group_IT_number       1

loop_
  _space_group_symop_operation_xyz
  'x, y, z'

loop_
  _atom_site_type_symbol
  _atom_site_label
  _atom_site_symmetry_multiplicity
  _atom_site_fract_x
  _atom_site_fract_y
  _atom_site_fract_z
  _atom_site_occupancy
  N   N1        1.0  0.8289698394213365  0.5624021244920057  0.4071224504623243  1.0000
  C   C1        1.0  0.7514892569790709  0.5612969021936334  0.4064455308810109  1.0000
  C   C2        1.0  0.6550995327163152  0.5599169259127992  0.4056005232106026  1.0000
  C   C3        1.0  0.6068061187729278  0.6673893507459161  0.4713032978107261  1.0000
  C   C4        1.0  0.5132998662219834  0.666281335843834  0.47062578901836977  1.0000
  C   C5        1.0  0.46717420815584537  0.55775574422707  0.40427923606709903  1.0000
  C   C6        1.0  0.37051694232588805  0.5600842830821129  0.4057040626757846  1.0000
  N   N2        1.0  0.293027698465612  0.5619322754584688  0.4068351705178841  1.0000
  C   C7        1.0  0.515469394213016  0.4487964564600784  0.3376669231327254  1.0000
  C   C8        1.0  0.46773595214837677  0.33080659159923465  0.2655356594598257  1.0000
  C   C9        1.0  0.6096011300812856  0.45103509323943447  0.339035555542863  1.0000
  H   H1        1.0  0.6414321346605366  0.7520676581827423  0.5230715789191733  1.0000
  H   H2        1.0  0.47684915777820436  0.7503074961206297  0.5219952396280767  1.0000
  H   H3        1.0  0.4244474620268977  0.3790255631438497  0.17686293733556013  1.0000
  H   H4        1.0  0.4255990070290091  0.2687235671189765  0.3457392838754514  1.0000
  H   H5        1.0  0.5155722628475491  0.254382784976783  0.2188078975073187  1.0000
  H   H6        1.0  0.6475393779014516  0.36812673417010866  0.2883497570226745  1.0000
  C   C10       1.0  0.06375838244509224  0.1385173597181957  0.4076853255985766  1.0000
  C   C11       1.0  0.0791592380532164  0.22069801999770733  0.2773608997511807  1.0000
  C   C12       1.0  0.08612902087150705  0.1549086492990106  0.14703363804151404  1.0000
  C   C13       1.0  0.07780002174119827  0.004583627081638839  0.1436986839822969  1.0000
  C   C14       1.0  0.0639760469775934  0.9214340116253341  0.2735694488542826  1.0000
  C   C15       1.0  0.05824784376625766  0.9858060126800542  0.4062847829849512  1.0000
  N   N3        1.0  0.08400619567402451  0.9337321899209231  0.010681248876679872  1.0000
  C   C16       1.0  0.09857580472729505  0.010233178626569694  0.8700275667821397  1.0000
  H   H7        1.0  0.08263669157842535  0.4029659495415379  0.6442942915545815  1.0000
  H   H8        1.0  0.08372204489459988  0.3373219342166369  0.27558985999581465  1.0000
  H   H9        1.0  0.09717961310834507  0.22253847113707434  0.04912778932991668  1.0000
  H   H10       1.0  0.05974391193477244  0.8050149060238858  0.2712984195616184  1.0000
  H   H11       1.0  0.09208410294482156  0.8578560387775401  0.7572996453550704  1.0000
  H   H12       1.0  0.0776829581164264  0.8214008105585527  0.013673832508470209  1.0000
  H   H13       1.0  0.043003302180230296  0.08861716885239446  0.8450205421657371  1.0000
  H   H14       1.0  0.16338825673515622  0.06772158579530818  0.8702200118071785  1.0000
  H   H15       1.0  0.10062241535542465  0.93195686064648  0.7847025843302169  1.0000
  C   C17       1.0  0.05995799845992453  0.5580077030305262  0.9837513949238983  1.0000
  C   C18       1.0  0.9816067870766972  0.6006784600027726  0.05361817852221739  1.0000
  C   C19       1.0  0.9075895926639274  0.6549388887557683  0.9743919824691735  1.0000
  C   C20       1.0  0.9101910803977099  0.6679715750176115  0.8230887701586549  1.0000
  C   C21       1.0  0.9873445997802984  0.6235603118596298  0.7520857282089413  1.0000
  C   C22       1.0  0.062048216029257225  0.5663156426237859  0.8302187367331744  1.0000
  C   C23       1.0  0.8327883611709403  0.7262027193938703  0.7376496205958878  1.0000
  O   O1        1.0  0.7623579020820872  0.7664699981965206  0.7983328942225771  1.0000
  H   H16       1.0  0.27898575043881757  0.5210305371134452  0.09046527198859611  1.0000
  H   H17       1.0  0.8486223785125002  0.6880242324594584  0.031775416546778956  1.0000
  H   H18       1.0  0.9883367240496951  0.6305506201486488  0.6349168661095708  1.0000
  H   H19       1.0  0.2093102113810296  0.5361819797366243  0.5527114289747992  1.0000
  H   H20       1.0  0.835911076708289  0.7349563158604051  0.6207636596712671  1.0000
  Zn  Zn1       1.0  0.9628869725327666  0.5622627519189347  0.4070478705558769  1.0000
  Zn  Zn2       1.0  0.1591107013748222  0.5620599461418168  0.4069215532319188  1.0000
  C   C24       1.0  0.06168852421125767  0.5589980365883984  0.6702277433324224  1.0000
  C   C25       1.0  0.060311280964042924  0.5653264809334184  0.14374181752611692  1.0000
  C   C26       1.0  0.05927067648862392  0.8255940706015918  0.4008062193872717  1.0000
  C   C27       1.0  0.06272907319177996  0.2987287144560255  0.41316342121879446  1.0000
  O   O2        1.0  0.1348957692002856  0.5676994720387327  0.19738813851965586  1.0000
  O   O3        1.0  0.13603331191185886  0.556470028178085  0.6164851373268734  1.0000
  O   O4        1.0  0.1340798691629157  0.7717497129570416  0.39892534870579066  1.0000
  O   O5        1.0  0.13684914465739162  0.3524197965885394  0.4149478191028211  1.0000
  O   O6        1.0  0.9851484622886401  0.7719029015429166  0.39902160472049686  1.0000
  O   O7        1.0  0.987101893570924  0.5566249492988629  0.616581313629575  1.0000
  O   O8        1.0  0.9859643469669216  0.567854325878848  0.1974825821021482  1.0000
  O   O9        1.0  0.9879177227543076  0.352574641170595  0.41504237075875317  1.0000
