data_image0
_chemical_formula_structural       NC8NC6H8C6NO2H5C8H5Zn2C4O8
_chemical_formula_sum              "N3 C32 H18 O10 Zn2"
_cell_length_a       17.457602349358154
_cell_length_b       9.273392599741051
_cell_length_c       9.275144076552241
_cell_angle_alpha    86.08729211106984
_cell_angle_beta     93.32514331016303
_cell_angle_gamma    91.0881455882028

_space_group_name_H-M_alt    "P 1"
_space_group_IT_number       1

loop_
  _space_group_symop_operation_xyz
  'x, y, z'

loop_
  _atom_site_type_symbol
  _atom_site_label
  _atom_site_symmetry_multiplicity
  _atom_site_fract_x
  _atom_site_fract_y
  _atom_site_fract_z
  _atom_site_occupancy
  N   N1        1.0  0.7070784936027472  0.6020755721471043  0.4776035083552672  1.0000
  C   C1        1.0  0.6462319089555304  0.5510021682801406  0.46573190448461865  1.0000
  C   C2        1.0  0.5705361844454382  0.48747327432678594  0.4509742347308394  1.0000
  C   C3        1.0  0.512113398214365  0.5326600063401183  0.5342110306022205  1.0000
  C   C4        1.0  0.4378456718113218  0.4714878252784211  0.5201394972233278  1.0000
  C   C5        1.0  0.375839021264268  0.5192002598550501  0.6082901858887485  1.0000
  C   C6        1.0  0.3009173793338929  0.5392606690270498  0.5464068346190831  1.0000
  C   C7        1.0  0.24249622346222313  0.5842440564475384  0.629763159444265  1.0000
  C   C8        1.0  0.1661223115607854  0.6049594677304325  0.5654209734775788  1.0000
  N   N2        1.0  0.10473064267232719  0.6216075764973021  0.513690011955003  1.0000
  C   C9        1.0  0.2585054462954771  0.6094410358417346  0.7755679172817918  1.0000
  C   C10       1.0  0.33264182276658405  0.5898155901973509  0.8378823547313392  1.0000
  C   C11       1.0  0.3910524209207011  0.5450357562115571  0.7550345938264011  1.0000
  C   C12       1.0  0.4232867956608666  0.364365385746333  0.4212388739176063  1.0000
  C   C13       1.0  0.4816980359779314  0.31949124723719424  0.3384467357254275  1.0000
  C   C14       1.0  0.5551828914810081  0.3807925757152677  0.3531291150232756  1.0000
  H   H1        1.0  0.5243099470804242  0.6166759553660355  0.6083329275060492  1.0000
  H   H2        1.0  0.288184883502935  0.5218269611718247  0.43309594935657536  1.0000
  H   H3        1.0  0.2137316991237548  0.6441976238985092  0.8409533185614351  1.0000
  H   H4        1.0  0.3448493168204404  0.6089757288190856  0.9507816503828617  1.0000
  H   H5        1.0  0.4478463713945063  0.528758318733902  0.8062015722934233  1.0000
  H   H6        1.0  0.3670297088109433  0.31394637776665024  0.4093282509360078  1.0000
  H   H7        1.0  0.4700028327555719  0.23670531115181048  0.2629963283864245  1.0000
  H   H8        1.0  0.5999644083253499  0.3450744709539433  0.2883096458519825  1.0000
  C   C15       1.0  0.9082434344961016  0.18842145146690736  0.4949525958040046  1.0000
  C   C16       1.0  0.8979150676737504  0.27033055554849295  0.3623439425802282  1.0000
  C   C17       1.0  0.8808355319732161  0.20349964601056136  0.23390040294781667  1.0000
  C   C18       1.0  0.8735217530241302  0.05273311258034408  0.2344749267813282  1.0000
  C   C19       1.0  0.8850427474964155  0.9697071206653365  0.36618666484134477  1.0000
  C   C20       1.0  0.9035731503302994  0.03525098549207483  0.49635401116782824  1.0000
  N   N3        1.0  0.8552303644550114  0.9843954020025373  0.10169482870364299  1.0000
  O   O1        1.0  0.8446209570646006  0.06606857862723549  0.9727638885398483  1.0000
  O   O2        1.0  0.8484744739672689  0.850131939123565  0.10131185543553434  1.0000
  H   H9        1.0  0.8941145857182698  0.2667066262370752  0.84744362203267  1.0000
  H   H10       1.0  0.9012513701063705  0.3873067233303886  0.35838803567568855  1.0000
  H   H11       1.0  0.8725761684809755  0.27031143332871244  0.13408313805985483  1.0000
  H   H12       1.0  0.8813409472127705  0.8529303931851888  0.3668767707726671  1.0000
  H   H13       1.0  0.896678234280451  0.7385162338974235  0.7348226390134726  1.0000
  C   C21       1.0  0.9041172027296535  0.6087969003118527  0.07219891926791044  1.0000
  C   C22       1.0  0.8535699721526976  0.7003744175756184  0.13378822277149416  1.0000
  C   C23       1.0  0.8091402603861018  0.7993984281107598  0.04703919246378939  1.0000
  C   C24       1.0  0.8144528298494432  0.8088759350398425  0.8971106834014129  1.0000
  C   C25       1.0  0.8634076889585703  0.7171144356316583  0.8336208132649671  1.0000
  C   C26       1.0  0.9076993805984309  0.614875608917425  0.9191077629391153  1.0000
  C   C27       1.0  0.768886813130488  0.911808849516842  0.8078971634741867  1.0000
  C   C28       1.0  0.7307390307046345  0.9979879729965857  0.7331885300294639  1.0000
  H   H14       1.0  0.0646741063332712  0.4273527393211418  0.20496534462119054  1.0000
  H   H15       1.0  0.8497452508115249  0.697762040310792  0.2501060326279618  1.0000
  H   H16       1.0  0.7711494149908531  0.8696466181475462  0.09718534811565793  1.0000
  H   H17       1.0  0.8655744455816136  0.723213967721564  0.7167457472256755  1.0000
  H   H18       1.0  0.6972531993686714  0.07363484788895347  0.6676083818815082  1.0000
  Zn  Zn1       1.0  0.821832370638723  0.6077082797268514  0.4880256133361498  1.0000
  Zn  Zn2       1.0  0.9899768665198485  0.6159631317586443  0.503279693276272  1.0000
  C   C29       1.0  0.9070522381530561  0.6079823361722545  0.7590141587397679  1.0000
  C   C30       1.0  0.9047588257033348  0.6156909857727901  0.23229145899040304  1.0000
  C   C31       1.0  0.9044276773469734  0.8751407670933801  0.49034250889364506  1.0000
  C   C32       1.0  0.9073833390125758  0.34853082023826865  0.5009631776438266  1.0000
  O   O3        1.0  0.9687841548211861  0.6211310866863327  0.29180881121434815  1.0000
  O   O4        1.0  0.970644695053398  0.6088063862161814  0.711073883333496  1.0000
  O   O5        1.0  0.9685244751636298  0.8245401663964662  0.4941195496299006  1.0000
  O   O6        1.0  0.9709043168204252  0.4053973132277975  0.5087630316095028  1.0000
  O   O7        1.0  0.8409048629586419  0.8182740954422378  0.4825422697898678  1.0000
  O   O8        1.0  0.8430250729657479  0.6025420470598883  0.6994965294731119  1.0000
  O   O9        1.0  0.8411645257286003  0.6148666848428122  0.28022972356835396  1.0000
  O   O10       1.0  0.8432846882388636  0.39913290184706685  0.4971840520588984  1.0000
