data_image0
_chemical_formula_structural       NC11NC3H8C12NCOCH13C13NH9Zn2C4O8
_chemical_formula_sum              "N4 C45 H30 O9 Zn2"
_cell_length_a       17.807433833752565
_cell_length_b       10.299155265289649
_cell_length_c       10.298528502251457
_cell_angle_alpha    85.52481818200187
_cell_angle_beta     88.52196449538943
_cell_angle_gamma    90.66237101144993

_space_group_name_H-M_alt    "P 1"
_space_group_IT_number       1

loop_
  _space_group_symop_operation_xyz
  'x, y, z'

loop_
  _atom_site_type_symbol
  _atom_site_label
  _atom_site_symmetry_multiplicity
  _atom_site_fract_x
  _atom_site_fract_y
  _atom_site_fract_z
  _atom_site_occupancy
  N   N1        1.0  0.7071355805570291  0.4390634348380076  0.5340858048843402  1.0000
  C   C1        1.0  0.6563219743339628  0.40431210306278137  0.6006656404781883  1.0000
  C   C2        1.0  0.5931047221637533  0.36108431184121836  0.683482459865865  1.0000
  C   C3        1.0  0.6048425584265575  0.2974887644343509  0.8062329881081347  1.0000
  C   C4        1.0  0.5435323907401185  0.2559416252710241  0.8867651453594666  1.0000
  C   C5        1.0  0.4703300910397826  0.2776765294841643  0.8451877326209261  1.0000
  C   C6        1.0  0.4576154396909307  0.34142679271245013  0.7219769097492923  1.0000
  C   C7        1.0  0.3798447022834742  0.36449283607250704  0.677618148854276  1.0000
  C   C8        1.0  0.3610682764024376  0.34766283321584335  0.5480267853983432  1.0000
  C   C9        1.0  0.2878360438631112  0.3693590215972553  0.5064053063885696  1.0000
  C   C10       1.0  0.2324371152118036  0.4082040360975881  0.5935547311404626  1.0000
  C   C11       1.0  0.1570680527519376  0.43055918902865575  0.5505716144569957  1.0000
  N   N2        1.0  0.09647670025806092  0.4485310712023838  0.5160163169554108  1.0000
  C   C12       1.0  0.2505219454493896  0.42524480769834805  0.7226148391883842  1.0000
  C   C13       1.0  0.3237014171536398  0.40351360153612004  0.7644917877861643  1.0000
  C   C14       1.0  0.5197829198292834  0.38296936114780683  0.6414611715466787  1.0000
  H   H1        1.0  0.6613112881855336  0.28006196639234227  0.8396072919515738  1.0000
  H   H2        1.0  0.5527388340474878  0.2064543657494451  0.9815261711508126  1.0000
  H   H3        1.0  0.4236967337548416  0.24309698134073712  0.9086438617919674  1.0000
  H   H4        1.0  0.4027554083806738  0.31604190776512375  0.4793106261350359  1.0000
  H   H5        1.0  0.27440027151149093  0.3555108485568721  0.4063625256544505  1.0000
  H   H6        1.0  0.20811831245172221  0.4556427984504654  0.7908165013876521  1.0000
  H   H7        1.0  0.3366084223079938  0.4189073462349085  0.8643513708984336  1.0000
  H   H8        1.0  0.5112746483626999  0.4338189841516402  0.5469341186294314  1.0000
  C   C15       1.0  0.9018936352305845  0.06240185173086245  0.5251656965392806  1.0000
  C   C16       1.0  0.8890643214603463  0.07184742378951413  0.39081961944148874  1.0000
  C   C17       1.0  0.8824868334344695  0.9594971255237472  0.32258896675889837  1.0000
  C   C18       1.0  0.8888847008230595  0.8365834174274933  0.3905201337232142  1.0000
  C   C19       1.0  0.9017258515375021  0.8251828646543038  0.5249472618881619  1.0000
  C   C20       1.0  0.908154606116205  0.9386078319396488  0.5914422985608871  1.0000
  C   C21       1.0  0.8689158959813773  0.9704630920954714  0.18046699635122262  1.0000
  C   C22       1.0  0.9070178292063253  0.06553519284854303  0.09727122818825971  1.0000
  C   C23       1.0  0.8942528645279608  0.07572416296048812  0.9635246963730268  1.0000
  C   C24       1.0  0.8435978621292858  0.9901737939267277  0.9101183243678013  1.0000
  C   C25       1.0  0.8045782723862784  0.8968956930496379  0.9932885137867253  1.0000
  C   C26       1.0  0.8173706001359873  0.8864513848023374  0.12699643568902516  1.0000
  N   N3        1.0  0.8284153642240343  0.00010416206926055971  0.7732452720920606  1.0000
  C   C27       1.0  0.8832727367180097  0.03841645889028689  0.6724697133805919  1.0000
  O   O1        1.0  0.952191553284266  0.04261481626161668  0.6971329356580215  1.0000
  C   C28       1.0  0.8593099748871184  0.06433947617943934  0.5350252070357282  1.0000
  H   H9        1.0  0.9068516572126023  0.38624543705081155  0.5768341671369206  1.0000
  H   H10       1.0  0.883121961367633  0.16677007088494245  0.33927950877161916  1.0000
  H   H11       1.0  0.8848449232340234  0.7497084997235187  0.33807281311310844  1.0000
  H   H12       1.0  0.9180526530007329  0.9306074614071161  0.695065672452589  1.0000
  H   H13       1.0  0.9264127059575581  0.5963925953374145  0.7785197223818459  1.0000
  H   H14       1.0  0.947132662365903  0.13154196899092185  0.13550664117509667  1.0000
  H   H15       1.0  0.9230751746369602  0.15190603012168996  0.9025994027620985  1.0000
  H   H16       1.0  0.7643913667755541  0.831591583639228  0.9541893050114876  1.0000
  H   H17       1.0  0.786134266402498  0.8138268093258714  0.18886681355538681  1.0000
  H   H18       1.0  0.7755027551564796  0.9699621299781688  0.7446237772472792  1.0000
  H   H19       1.0  0.8050803336222289  0.11646833508980348  0.5330878566458281  1.0000
  H   H20       1.0  0.8523594567738392  0.9705800745223616  0.49011825084747945  1.0000
  H   H21       1.0  0.9020790637132672  0.12549434294099981  0.47763828665021446  1.0000
  C   C29       1.0  0.9018203819072217  0.4439190829866045  0.1436390808527741  1.0000
  C   C30       1.0  0.8237142935125153  0.46188319253223936  0.14476804209990224  1.0000
  C   C31       1.0  0.784145089700479  0.47084569860824727  0.028193285702601042  1.0000
  C   C32       1.0  0.8236919257079743  0.461617769580499  0.909509455134953  1.0000
  C   C33       1.0  0.9017990806979977  0.44366556649668243  0.9064738639209351  1.0000
  C   C34       1.0  0.9403631648161394  0.4349284182027778  0.024028685203060444  1.0000
  C   C35       1.0  0.70157124572592  0.489831652192396  0.030394498190125185  1.0000
  C   C36       1.0  0.6683824294640069  0.5769621640915343  0.11282478046305353  1.0000
  C   C37       1.0  0.5906557651832218  0.5947865991743189  0.11477731283513279  1.0000
  C   C38       1.0  0.5450836583885806  0.5258148413745944  0.03456341122281015  1.0000
  C   C39       1.0  0.5775309490476831  0.4389026496276318  0.9522714807400997  1.0000
  C   C40       1.0  0.6552496148304015  0.4209836484242704  0.9500827373354173  1.0000
  C   C41       1.0  0.4650639651509628  0.5442158140712445  0.03669419510592742  1.0000
  N   N4        1.0  0.4007335276069259  0.5590090783081421  0.03840723665744017  1.0000
  H   H22       1.0  0.049348203378210886  0.4091640444494682  0.34889624032899363  1.0000
  H   H23       1.0  0.7933727951883861  0.4671536466894189  0.23669004928044066  1.0000
  H   H24       1.0  0.7936322815979537  0.47023471485444995  0.8191978034117553  1.0000
  H   H25       1.0  0.000561035886765816  0.4210878448499515  0.02242369252878329  1.0000
  H   H26       1.0  0.04946535712103418  0.410556799062502  0.693346170028195  1.0000
  H   H27       1.0  0.7026382902289436  0.6325675053446165  0.1745217267509791  1.0000
  H   H28       1.0  0.5661495001918558  0.6625860569064812  0.17860142323100892  1.0000
  H   H29       1.0  0.542755524474352  0.3847349430098441  0.8900264889168628  1.0000
  H   H30       1.0  0.679018509722583  0.3520359884398139  0.8868399639373172  1.0000
  Zn  Zn1       1.0  0.8194910178258724  0.4417921128123372  0.5288788274560106  1.0000
  Zn  Zn2       1.0  0.9841212502694148  0.44579176937830756  0.521233884784404  1.0000
  C   C42       1.0  0.9018025670650894  0.4385394327198788  0.7622833395897246  1.0000
  C   C43       1.0  0.901811498423141  0.44904613183825887  0.2878294161815709  1.0000
  C   C44       1.0  0.9017538230488702  0.681002613918704  0.5198129141592887  1.0000
  C   C45       1.0  0.9018601866039203  0.2065813888403505  0.5302999139149397  1.0000
  O   O2        1.0  0.9642848335259204  0.4522789989553542  0.3333197956334375  1.0000
  O   O3        1.0  0.9642797693286737  0.4383412327240948  0.7109902519290278  1.0000
  O   O4        1.0  0.9642395656707964  0.6341332969974778  0.5151937065991148  1.0000
  O   O5        1.0  0.9643249810073271  0.2564869426403895  0.5291162461823418  1.0000
  O   O6        1.0  0.8392872309077417  0.6310969381867853  0.520996468660084  1.0000
  O   O7        1.0  0.8393274342208401  0.4353064343490147  0.7167929442890756  1.0000
  O   O8        1.0  0.8393324985216181  0.44924415584127786  0.33912092640490266  1.0000
  O   O9        1.0  0.8393726459992765  0.2534520902044253  0.5349174743368275  1.0000
