data_image0
_chemical_formula_structural       NC6NC2H4C6ClH5C6NCH8Zn2C4O8
_chemical_formula_sum              "N3 C25 H17 Cl1 Zn2 O8"
_cell_length_a       14.927258858638513
_cell_length_b       9.276545438789551
_cell_length_c       9.274690524155615
_cell_angle_alpha    86.08901854457557
_cell_angle_beta     89.68735833801398
_cell_angle_gamma    89.40960950127158

_space_group_name_H-M_alt    "P 1"
_space_group_IT_number       1

loop_
  _space_group_symop_operation_xyz
  'x, y, z'

loop_
  _atom_site_type_symbol
  _atom_site_label
  _atom_site_symmetry_multiplicity
  _atom_site_fract_x
  _atom_site_fract_y
  _atom_site_fract_z
  _atom_site_occupancy
  N   N1        1.0  0.838939105599862  0.5641995594491918  0.4111036789985141  1.0000
  C   C1        1.0  0.761412614578307  0.5641995310349823  0.4111036895686486  1.0000
  C   C2        1.0  0.6649801064686415  0.5641996456857643  0.4111036397847905  1.0000
  C   C3        1.0  0.6185159713834569  0.5394066298420717  0.28442571048771637  1.0000
  C   C4        1.0  0.5248046603355664  0.5394066543112468  0.284425577067706  1.0000
  C   C5        1.0  0.4771640435499184  0.5641994683176406  0.41110365830650886  1.0000
  C   C6        1.0  0.3807314684487189  0.5641995829713345  0.4111036085167292  1.0000
  N   N2        1.0  0.30320497742716407  0.5641995545571254  0.41110361908686377  1.0000
  C   C7        1.0  0.5236281116435687  0.5889924841642452  0.5377815875976613  1.0000
  C   C8        1.0  0.617339422691459  0.5889924596950702  0.5377817210176719  1.0000
  H   H1        1.0  0.6546698521529631  0.5201162645460125  0.1858630111128634  1.0000
  H   H2        1.0  0.4895661953936904  0.5201164620189351  0.18586300629456876  1.0000
  H   H3        1.0  0.48747429755556443  0.6082828400865012  0.6363443950329045  1.0000
  H   H4        1.0  0.6525778866286451  0.6082827502651185  0.6363444018579212  1.0000
  C   C9        1.0  0.07378085009431096  0.14076233235922353  0.4108660664580932  1.0000
  C   C10       1.0  0.07456979568246075  0.223253447836107  0.2778341432535101  1.0000
  C   C11       1.0  0.06719871312984749  0.15703895900289577  0.1476976841336206  1.0000
  C   C12       1.0  0.058860488856783216  0.007455608946485895  0.14859103073222643  1.0000
  C   C13       1.0  0.05946192097466499  0.9234047797891713  0.27918115120909626  1.0000
  C   C14       1.0  0.0683718707939942  0.9876258138129572  0.4113537242026075  1.0000
  Cl  Cl1       1.0  0.06706102670668534  0.26222514144613895  0.9831521796868617  1.0000
  H   H5        1.0  0.11883149048533032  0.4056978473033861  0.63746708588719  1.0000
  H   H6        1.0  0.07877709934352578  0.3399491232248655  0.2749805569777404  1.0000
  H   H7        1.0  0.052765998161221656  0.9558558308533031  0.04790969533899236  1.0000
  H   H8        1.0  0.055091221685155345  0.8071211974059067  0.2765308301216989  1.0000
  H   H9        1.0  0.03755308729098661  0.6909231013717707  0.6444159317569726  1.0000
  C   C15       1.0  0.07253434277743925  0.5605022685261929  0.9878604690171349  1.0000
  C   C16       1.0  0.14491889202300667  0.6228774757344935  0.056633752761620526  1.0000
  C   C17       1.0  0.212626841354146  0.6961731962466489  0.9761781557016143  1.0000
  C   C18       1.0  0.20725129145049104  0.7068243198833573  0.8252878283780771  1.0000
  C   C19       1.0  0.1367838940928917  0.6435900354905377  0.7553033646349604  1.0000
  C   C20       1.0  0.069618323205416  0.5678858279655055  0.8343592674019331  1.0000
  N   N3        1.0  0.2867600526920433  0.7616098836378398  0.04493762076294548  1.0000
  C   C21       1.0  0.2989502460570421  0.7565339546745371  0.20121624482580924  1.0000
  H   H10       1.0  0.9713910753543515  0.3866899002987829  0.28075916778984666  1.0000
  H   H11       1.0  0.25849134585355316  0.7632696471562634  0.7612617680795494  1.0000
  H   H12       1.0  0.13605728589230973  0.6510297509496978  0.6382349337024307  1.0000
  H   H13       1.0  0.928481663392808  0.5002388255805799  0.5588821427710391  1.0000
  H   H14       1.0  0.3351561583398994  0.8155475744575313  0.9803345288801579  1.0000
  H   H15       1.0  0.3612792530824349  0.8136682938105111  0.22692745502463893  1.0000
  H   H16       1.0  0.3046920306537697  0.6425399053662955  0.2453752554699582  1.0000
  H   H17       1.0  0.2414689955100953  0.8105912461859833  0.25244939200179534  1.0000
  Zn  Zn1       1.0  0.9729162114839643  0.5641957668905999  0.4111119876756868  1.0000
  Zn  Zn2       1.0  0.16922791713536256  0.5641916392646308  0.41110712678587213  1.0000
  C   C22       1.0  0.0702042305059285  0.5607458034414974  0.6743495940432742  1.0000
  C   C23       1.0  0.07194202972328823  0.5676434232763232  0.1478696628771825  1.0000
  C   C24       1.0  0.06940943942866223  0.8275004585915713  0.40551804617853326  1.0000
  C   C25       1.0  0.07273676461351129  0.3008870363802263  0.41670128658817074  1.0000
  O   O1        1.0  0.14624255343859097  0.5700322029106208  0.20156836173394788  1.0000
  O   O2        1.0  0.14489975741345473  0.5583527996211204  0.6206467903568287  1.0000
  O   O3        1.0  0.1442569441186985  0.7737605703211337  0.4035634143164557  1.0000
  O   O4        1.0  0.1468853000518456  0.3546244415844106  0.4186516297139302  1.0000
  O   O5        1.0  0.9952587615759472  0.7737629645737323  0.4035674847417072  1.0000
  O   O6        1.0  0.9959015640662124  0.5583569256226539  0.6206507849299114  1.0000
  O   O7        1.0  0.9972443664411846  0.570036263549153  0.20157062341023768  1.0000
  O   O8        1.0  0.9978871127444066  0.3546284928520518  0.41865399944468895  1.0000
