data_image0
_chemical_formula_structural       NC6NC2H4C6BrH5C9H8Zn2C4O8
_chemical_formula_sum              "N2 C27 H17 Br1 Zn2 O8"
_cell_length_a       14.927258858638513
_cell_length_b       9.276564384272257
_cell_length_c       9.275155815604961
_cell_angle_alpha    86.0004437210585
_cell_angle_beta     90.35750032956715
_cell_angle_gamma    90.58593300640023

_space_group_name_H-M_alt    "P 1"
_space_group_IT_number       1

loop_
  _space_group_symop_operation_xyz
  'x, y, z'

loop_
  _atom_site_type_symbol
  _atom_site_label
  _atom_site_symmetry_multiplicity
  _atom_site_fract_x
  _atom_site_fract_y
  _atom_site_fract_z
  _atom_site_occupancy
  N   N1        1.0  0.8473427610492399  0.5645261028715588  0.4089247221525696  1.0000
  C   C1        1.0  0.7698162697421069  0.5645260744534506  0.40892473276297786  1.0000
  C   C2        1.0  0.6733837627329076  0.564526189120758  0.4089246828168853  1.0000
  C   C3        1.0  0.6256829282589129  0.53974487239651  0.2822870383274241  1.0000
  C   C4        1.0  0.5319716165536056  0.5397448968828573  0.282286904877437  1.0000
  C   C5        1.0  0.4855676976866783  0.5645260117335689  0.4089247015917987  1.0000
  C   C6        1.0  0.38913512368593894  0.5645261264037893  0.408924651639781  1.0000
  N   N2        1.0  0.3116086323788057  0.5645260979856812  0.4089246622501892  1.0000
  C   C7        1.0  0.5332684651691324  0.5893073284607306  0.5355623460753344  1.0000
  C   C8        1.0  0.6269797768744397  0.589307303974383  0.535562479525322  1.0000
  H   H1        1.0  0.6608745862321423  0.5204636096891202  0.18375568281063792  1.0000
  H   H2        1.0  0.49577093195636085  0.5204638071815131  0.18375567770985057  1.0000
  H   H3        1.0  0.4980768745430696  0.6085885817814105  0.6340938096618398  1.0000
  H   H4        1.0  0.663180462520192  0.6085884919506567  0.6340938166151739  1.0000
  C   C9        1.0  0.07678240284823779  0.14104830030533844  0.4092932532851561  1.0000
  C   C10       1.0  0.0647840718206083  0.2234130912564969  0.277567946549488  1.0000
  C   C11       1.0  0.061127752495132165  0.1573003209730488  0.14707301922290195  1.0000
  C   C12       1.0  0.06944011466785473  0.007882416234208822  0.1458255691477206  1.0000
  C   C13       1.0  0.07985242584002618  0.9238071407704798  0.27555896694458515  1.0000
  C   C14       1.0  0.08217756100048296  0.9879928612327834  0.40856857764076193  1.0000
  Br  Br1       1.0  0.06509468926875761  0.9179824530639077  0.9667637286434059  1.0000
  H   H5        1.0  0.05143442521241216  0.4056187344025712  0.6436047203674149  1.0000
  H   H6        1.0  0.060353457937505794  0.3400482336478734  0.2751005840882729  1.0000
  H   H7        1.0  0.052682702699015996  0.2226559275828008  0.04668219958379027  1.0000
  H   H8        1.0  0.08398513856964708  0.807540396303732  0.2724516768996721  1.0000
  H   H9        1.0  0.1324791266952763  0.6919934603191131  0.6330375856751451  1.0000
  C   C15       1.0  0.07781537275035036  0.5608754881521424  0.9857028236786536  1.0000
  C   C16       1.0  0.008182145120676276  0.6311427488841848  0.05345758051820892  1.0000
  C   C17       1.0  0.9446103392835138  0.7109941036209886  0.9721044966303221  1.0000
  C   C18       1.0  0.9494940401217998  0.7222502975731228  0.8215130681643266  1.0000
  C   C19       1.0  0.017319591156609984  0.6512082348842112  0.7520506095886128  1.0000
  C   C20       1.0  0.08114456864427272  0.5681656577158354  0.8321590116112473  1.0000
  C   C21       1.0  0.884132854848448  0.8054707553990215  0.7378444834823021  1.0000
  C   C22       1.0  0.8294046599539568  0.8751565239720502  0.6677568201851329  1.0000
  C   C23       1.0  0.7630018413411775  0.959708421616284  0.5827058146721046  1.0000
  H   H10       1.0  0.2850074517394219  0.4445263149211647  0.09876020177716183  1.0000
  H   H11       1.0  0.004131946915365337  0.6271452802133393  0.17025253910943894  1.0000
  H   H12       1.0  0.892090518821517  0.76519612147895  0.026871156608556657  1.0000
  H   H13       1.0  0.01901799622809253  0.6579893403213537  0.6348985117675681  1.0000
  H   H14       1.0  0.21935377368572317  0.4846537753627602  0.55864806476864  1.0000
  H   H15       1.0  0.7812324288018104  0.9638517809128455  0.46670328034718706  1.0000
  H   H16       1.0  0.695954244448773  0.9083561821854123  0.5977760369880603  1.0000
  H   H17       1.0  0.7614439874828823  0.07106033917744715  0.6191152710326339  1.0000
  Zn  Zn1       1.0  0.9813198789388305  0.5645223090260534  0.40893303594418096  1.0000
  Zn  Zn2       1.0  0.17763149662650868  0.5645181815444429  0.40892818114688545  1.0000
  C   C24       1.0  0.08047669860835471  0.5610427638479998  0.6721656177499127  1.0000
  C   C25       1.0  0.07847683282088713  0.5679995474438233  0.14569573918859222  1.0000
  C   C26       1.0  0.08113055839657984  0.8278528696691946  0.40296239527057537  1.0000
  C   C27       1.0  0.0778228953106439  0.30118770970212694  0.41489903999023614  1.0000
  O   O1        1.0  0.1531980206123376  0.5703825891380869  0.19938898619950862  1.0000
  O   O2        1.0  0.1547514777383836  0.5586554980187426  0.6184682721114421  1.0000
  O   O3        1.0  0.15527847939539907  0.7741080456716751  0.40108476404384996  1.0000
  O   O4        1.0  0.15267095160815636  0.35493005087186386  0.4167723861973818  1.0000
  O   O5        1.0  0.006280356965642  0.7741104397015449  0.4010888308877595  1.0000
  O   O6        1.0  0.005753366039104262  0.5586596239720276  0.6184722606271194  1.0000
  O   O7        1.0  0.004199901837285807  0.5703866499146623  0.1993912419775443  1.0000
  O   O8        1.0  0.0036728331887303537  0.3549341022646426  0.41677475003921116  1.0000
