data_image0
_chemical_formula_structural       NC12NC2H8C16H10C13NH9Zn2C4O8
_chemical_formula_sum              "N3 C47 H27 Zn2 O8"
_cell_length_a       17.80743265337812
_cell_length_b       10.29914801576943
_cell_length_c       10.298528502251457
_cell_angle_alpha    85.51780360307934
_cell_angle_beta     91.53111058914057
_cell_angle_gamma    89.44985071264973

_space_group_name_H-M_alt    "P 1"
_space_group_IT_number       1

loop_
  _space_group_symop_operation_xyz
  'x, y, z'

loop_
  _atom_site_type_symbol
  _atom_site_label
  _atom_site_symmetry_multiplicity
  _atom_site_fract_x
  _atom_site_fract_y
  _atom_site_fract_z
  _atom_site_occupancy
  N   N1        1.0  0.7076481977045448  0.40722466509658434  0.6006317762313238  1.0000
  C   C1        1.0  0.6568339534185837  0.4368067553607587  0.5319140518329825  1.0000
  C   C2        1.0  0.5936160182625229  0.47360472724390196  0.4464378524595419  1.0000
  C   C3        1.0  0.6053528977794327  0.5276682999708942  0.3197832847433879  1.0000
  C   C4        1.0  0.5440420561335523  0.5629618303162465  0.23670391372312152  1.0000
  C   C5        1.0  0.47084008251483694  0.5444554744418877  0.27961903386068343  1.0000
  C   C6        1.0  0.4581264033562342  0.4902729469402489  0.40674184137865016  1.0000
  C   C7        1.0  0.5202945618945579  0.45498267577213064  0.4898046976434021  1.0000
  C   C8        1.0  0.3803560079089515  0.47065150430666036  0.45251800010080445  1.0000
  C   C9        1.0  0.3615715066061684  0.49780170965178394  0.5795657106699004  1.0000
  C   C10       1.0  0.2883395919955865  0.47933691827888036  0.6225213820406177  1.0000
  C   C11       1.0  0.23294915906569097  0.4334673755560248  0.5392675015045192  1.0000
  C   C12       1.0  0.1575805379512948  0.4144492895681895  0.5836244677621298  1.0000
  N   N2        1.0  0.0969895038620247  0.3991600275112293  0.6192844171816121  1.0000
  C   C13       1.0  0.2510421343142959  0.40614807975621803  0.4127628853228722  1.0000
  C   C14       1.0  0.3242212003695731  0.42462773505693446  0.369551293214208  1.0000
  H   H1        1.0  0.6618212109632879  0.5425036873278148  0.2853367762319561  1.0000
  H   H2        1.0  0.5532476203080477  0.6050918882887311  0.13889782933396888  1.0000
  H   H3        1.0  0.4242059460658437  0.5741132420813544  0.21400956561451823  1.0000
  H   H4        1.0  0.5117871964802727  0.41146723172992283  0.587486860640215  1.0000
  H   H5        1.0  0.40325178446089255  0.5349642894967124  0.6451315601918  1.0000
  H   H6        1.0  0.2748974685954761  0.5011547258250901  0.7205325096143902  1.0000
  H   H7        1.0  0.2086451408686719  0.3702527626374905  0.34760954348569073  1.0000
  H   H8        1.0  0.33713471748641416  0.4012741612559112  0.2718441304632824  1.0000
  C   C15       1.0  0.9022689457409956  0.021791960648411365  0.6101212559690182  1.0000
  C   C16       1.0  0.8851194626787532  0.03179153276239077  0.4758090987430193  1.0000
  C   C17       1.0  0.8764795221875921  0.9197306800864269  0.40754800479951925  1.0000
  C   C18       1.0  0.8852197599167616  0.7965377781993654  0.47540926323662674  1.0000
  C   C19       1.0  0.9023759370653529  0.7845825963626453  0.6098065045848136  1.0000
  C   C20       1.0  0.9107962388140116  0.8977283065954023  0.6763350364359354  1.0000
  C   C21       1.0  0.8583376227798054  0.9313546232481728  0.2654619494260577  1.0000
  C   C22       1.0  0.8938837059376831  0.8496623157449262  0.1819366181776574  1.0000
  C   C23       1.0  0.8767829297131082  0.8607280904862921  0.04820943894692342  1.0000
  C   C24       1.0  0.8239604892339509  0.9533907343346723  0.996194699866814  1.0000
  C   C25       1.0  0.7882774567304908  0.03506663202049977  0.0784293697780798  1.0000
  C   C26       1.0  0.805324668709182  0.024243225337307717  0.2121749320276909  1.0000
  C   C27       1.0  0.8063829483741733  0.9646586853678779  0.8585114458633902  1.0000
  C   C28       1.0  0.7916619473795974  0.9740954859013986  0.7432037093458491  1.0000
  C   C29       1.0  0.774423829062192  0.9851458526867455  0.6081795268342254  1.0000
  C   C30       1.0  0.7597052987008562  0.9945812185523156  0.49289041874230577  1.0000
  H   H9        1.0  0.9088267353912275  0.3454210921702683  0.6617957097242968  1.0000
  H   H10       1.0  0.8794535484279076  0.1269819267601766  0.4236211268110054  1.0000
  H   H11       1.0  0.8776147257364633  0.7098195860893862  0.423623034735368  1.0000
  H   H12       1.0  0.9240218779230496  0.8892995344535739  0.7799342013922105  1.0000
  H   H13       1.0  0.9342920814803469  0.554720829846606  0.8636302232976469  1.0000
  H   H14       1.0  0.9356156585002103  0.7783809968903422  0.21979006293831493  1.0000
  H   H15       1.0  0.9048914490368599  0.7972448370857953  0.9853732404418635  1.0000
  H   H16       1.0  0.7471430841463937  0.10690039209942781  0.039234491122494226  1.0000
  H   H17       1.0  0.7763404065546664  0.08735508507231217  0.2741662883114522  1.0000
  H   H18       1.0  0.7467812440997107  0.0028662655967586137  0.3916568633060158  1.0000
  C   C31       1.0  0.9023331421921373  0.40331354803827235  0.22854745126265352  1.0000
  C   C32       1.0  0.824234170123182  0.42479487350728234  0.22230745285813305  1.0000
  C   C33       1.0  0.7846685216896818  0.4355392304818569  0.10199953388444638  1.0000
  C   C34       1.0  0.8242117068792851  0.424530457056104  0.9870467841568624  1.0000
  C   C35       1.0  0.9023117498242973  0.4030609900524591  0.9913802519400298  1.0000
  C   C36       1.0  0.9408723680460567  0.392587252654629  0.11257340787076453  1.0000
  C   C37       1.0  0.7021021990407975  0.45824358865662895  0.09641027459388174  1.0000
  C   C38       1.0  0.6689450470960585  0.546868855269059  0.17570094755966736  1.0000
  C   C39       1.0  0.5912254456901612  0.5681934201823315  0.17032032277918763  1.0000
  C   C40       1.0  0.5456288664312456  0.5012736117475893  0.08581528545549655  1.0000
  C   C41       1.0  0.5780445775451539  0.4129000572552821  0.006592999616478857  1.0000
  C   C42       1.0  0.6557561464496484  0.3914812861366972  0.011736668920170333  1.0000
  C   C43       1.0  0.4656164626958155  0.5232779724043573  0.08039656998393796  1.0000
  N   N3        1.0  0.4012918854643064  0.540968117580978  0.07604032311264164  1.0000
  H   H19       1.0  0.04984722532171726  0.3619151428710099  0.44772328702556585  1.0000
  H   H20       1.0  0.7938948209111951  0.4314316389657927  0.311367055876586  1.0000
  H   H21       1.0  0.794155415196007  0.43450103083522884  0.8938989597958008  1.0000
  H   H22       1.0  0.0010647561248722267  0.37603589306203355  0.11664781424575676  1.0000
  H   H23       1.0  0.049964879865536105  0.36330262583799566  0.7921841197672679  1.0000
  H   H24       1.0  0.7032206581702101  0.6009317877617046  0.24062307840495367  1.0000
  H   H25       1.0  0.5667438089856697  0.6370965983185009  0.23182581378930728  1.0000
  H   H26       1.0  0.5432499248856298  0.36029815966681444  0.941073665551624  1.0000
  H   H27       1.0  0.6795000054757774  0.3214631068035156  0.95074308647079  1.0000
  Zn  Zn1       1.0  0.820003691068757  0.4048939148508672  0.6060220147862105  1.0000
  Zn  Zn2       1.0  0.9846340062206703  0.4014801799183887  0.6139047773690949  1.0000
  C   C44       1.0  0.9023133893709842  0.39793468507372065  0.8471905976522113  1.0000
  C   C45       1.0  0.9023261059026633  0.4084410111299599  0.3727364073886845  1.0000
  C   C46       1.0  0.9023519979400323  0.6404007333066064  0.6046899759437387  1.0000
  C   C47       1.0  0.9022874409359669  0.16597340360796675  0.6152370962985125  1.0000
  O   O1        1.0  0.9648000902868743  0.40886067375950996  0.42411900790405804  1.0000
  O   O2        1.0  0.9647900047739308  0.39492309693946964  0.8017904580542697  1.0000
  O   O3        1.0  0.9648203394327963  0.5907175143060275  0.6059694494082599  1.0000
  O   O4        1.0  0.9647696994548685  0.21306626688105412  0.6199399164695849  1.0000
  O   O5        1.0  0.8398679416543123  0.5933078290545581  0.5999868729888882  1.0000
  O   O6        1.0  0.8398376072128486  0.3975149721434638  0.7958078117367096  1.0000
  O   O7        1.0  0.8398476928132045  0.4114525042197219  0.41813480001240366  1.0000
  O   O8        1.0  0.8398173019740923  0.2156580880195209  0.6139558059615811  1.0000
