data_image0
_chemical_formula_structural       NC9NC4H8C6SCNH4C7NC2NH8Zn2C4O8
_chemical_formula_sum              "N5 C33 H20 S1 Zn2 O8"
_cell_length_a       16.32274767691083
_cell_length_b       10.302215558581764
_cell_length_c       9.27399911348925
_cell_angle_alpha    85.06957531056571
_cell_angle_beta     89.127461349941
_cell_angle_gamma    89.54366289277024

_space_group_name_H-M_alt    "P 1"
_space_group_IT_number       1

loop_
  _space_group_symop_operation_xyz
  'x, y, z'

loop_
  _atom_site_type_symbol
  _atom_site_label
  _atom_site_symmetry_multiplicity
  _atom_site_fract_x
  _atom_site_fract_y
  _atom_site_fract_z
  _atom_site_occupancy
  N   N1        1.0  0.7771382894001567  0.42414045216863583  0.39620124402476753  1.0000
  C   C1        1.0  0.7250029356671878  0.37718309103107434  0.335851732151323  1.0000
  C   C2        1.0  0.6601979396180414  0.3188616830148314  0.26089715583272133  1.0000
  C   C3        1.0  0.6720908040618581  0.23908844197628443  0.158367863246905  1.0000
  C   C4        1.0  0.5928911539762193  0.2001586464697407  0.10833697640887352  1.0000
  C   C5        1.0  0.5337152223946372  0.25713143982665265  0.18156435704725205  1.0000
  C   C6        1.0  0.4438419210069107  0.2420740120921785  0.16221494018168792  1.0000
  C   C7        1.0  0.38796290638811504  0.3084795462090373  0.24755796411500183  1.0000
  C   C8        1.0  0.3033092476102764  0.2956107471566265  0.23102072629575818  1.0000
  C   C9        1.0  0.24700960761126092  0.3640577161653112  0.3189864986231845  1.0000
  N   N2        1.0  0.2017636879173335  0.4190778193353719  0.38969608090724206  1.0000
  C   C10       1.0  0.2734820206571107  0.2162290104049749  0.12900313576236355  1.0000
  C   C11       1.0  0.32803874064400673  0.14991143231612236  0.04377353422294061  1.0000
  C   C12       1.0  0.4125350815237919  0.16243360675844198  0.05986516123173069  1.0000
  C   C13       1.0  0.5711150866207999  0.3402041139081473  0.28833133679121836  1.0000
  H   H1        1.0  0.731130606570474  0.208068409835696  0.11849654676562225  1.0000
  H   H2        1.0  0.5848739100048698  0.13496007759170436  0.024539708045960847  1.0000
  H   H3        1.0  0.40981107247894605  0.370450373187308  0.3272000104771817  1.0000
  H   H4        1.0  0.2081354677390163  0.2056277839518406  0.1153801315933971  1.0000
  H   H5        1.0  0.30479213181547543  0.0885022569966576  0.9648535853695033  1.0000
  H   H6        1.0  0.4525425675756152  0.10938380972191464  0.9916874045156794  1.0000
  H   H7        1.0  0.5539552689783346  0.3045902903490234  0.40114140515805796  1.0000
  H   H8        1.0  0.554439716211046  0.44443291083429504  0.26370935431360953  1.0000
  C   C14       1.0  0.9893736649766506  0.04033813648814455  0.39291011289678446  1.0000
  C   C15       1.0  0.07133801410377805  0.03493514741574887  0.43707104257880186  1.0000
  C   C16       1.0  0.11212547359982272  0.9152021384293524  0.45950387103760226  1.0000
  C   C17       1.0  0.07155057241286022  0.7997564515359106  0.43718999923520285  1.0000
  C   C18       1.0  0.9895360930349275  0.8028698856502261  0.3929995421151138  1.0000
  C   C19       1.0  0.9488886393361473  0.9236711885530114  0.37115829734171  1.0000
  S   S1        1.0  0.21684553580551877  0.9098277160453772  0.5152813156589837  1.0000
  C   C20       1.0  0.18919609623878508  0.8958823242985593  0.7006603552777972  1.0000
  N   N3        1.0  0.1710445119380419  0.8867406181576811  0.8221925558293735  1.0000
  H   H9        1.0  0.10380899826296974  0.12338166747064983  0.4544832490809693  1.0000
  H   H10       1.0  0.10416725617784994  0.7079188277531167  0.45468381842683653  1.0000
  H   H11       1.0  0.8856743212586127  0.9269883723128075  0.33711987208529726  1.0000
  H   H12       1.0  0.8349744565366115  0.6015319354429346  0.30955674040658  1.0000
  C   C21       1.0  0.9908706740438643  0.42491006307606344  0.9690821701249472  1.0000
  C   C22       1.0  0.05517503321237971  0.36197282364395633  0.046574073687992934  1.0000
  C   C23       1.0  0.11405379178838881  0.28985697674179045  0.9770112876717151  1.0000
  C   C24       1.0  0.11021055256877443  0.27819382099057743  0.8277723585476671  1.0000
  C   C25       1.0  0.04713978705670784  0.34330895505361303  0.7487031770435544  1.0000
  C   C26       1.0  0.9880391100899157  0.41829799123437766  0.8168274787927623  1.0000
  C   C27       1.0  0.17307436008846677  0.19979306144053235  0.7561043854680349  1.0000
  N   N4        1.0  0.24167715819298086  0.15361019291456968  0.8230867554532475  1.0000
  C   C28       1.0  0.28132729350686625  0.08817305369205888  0.7231484928947238  1.0000
  C   C29       1.0  0.23657329365529467  0.09517730373990883  0.5982928157064649  1.0000
  N   N5        1.0  0.16848994537882953  0.16531725664051009  0.6191772579444379  1.0000
  H   H13       1.0  0.9036881596864059  0.5898291414520567  0.2370147274227121  1.0000
  H   H14       1.0  0.058887409497141226  0.3657922543140588  0.16266881889901907  1.0000
  H   H15       1.0  0.16209333601593023  0.24145405954614252  0.04099729177438882  1.0000
  H   H16       1.0  0.045112297238015325  0.33982008071977554  0.6326288179341062  1.0000
  H   H17       1.0  0.8602156704733431  0.4931008765161545  0.5330323955472398  1.0000
  H   H18       1.0  0.33927735485667454  0.03806641111823872  0.7406231970181958  1.0000
  H   H19       1.0  0.25229111928487313  0.05163627028065121  0.49935411803446694  1.0000
  H   H20       1.0  0.12214141744435049  0.18554957376567785  0.5441842760022171  1.0000
  Zn  Zn1       1.0  0.8996759846208114  0.4226759359938395  0.3943323299258916  1.0000
  Zn  Zn2       1.0  0.07922595710275537  0.42053158904889926  0.39157681867814853  1.0000
  C   C30       1.0  0.9885714057501812  0.41437548464327634  0.6565849189240527  1.0000
  C   C31       1.0  0.9903324965293121  0.4288336540766255  0.12932434145474914  1.0000
  C   C32       1.0  0.9895204071048694  0.6587800898577458  0.38723078554614365  1.0000
  C   C33       1.0  0.9893834333173971  0.18442748909216755  0.3986785525452128  1.0000
  O   O1        1.0  0.05829015685671161  0.4293310142836484  0.18205737516071308  1.0000
  O   O2        1.0  0.05688802121219649  0.41224963849202534  0.6017601003129553  1.0000
  O   O3        1.0  0.05765342825816688  0.6096094473845186  0.3842547461402752  1.0000
  O   O4        1.0  0.05752468890596729  0.23197121625483796  0.3995626220476278  1.0000
  O   O5        1.0  0.9213771915460316  0.6112363095211342  0.3863465274891409  1.0000
  O   O6        1.0  0.9206117850857197  0.413878061131862  0.6038518048819956  1.0000
  O   O7        1.0  0.9220139265715832  0.43095940521408305  0.18414734430401514  1.0000
  O   O8        1.0  0.9212484582540448  0.23359959705482278  0.4016526994094243  1.0000
