data_image0
_chemical_formula_structural       NC9NC5H8C7OC6OCH11C7OC6OH10Zn2C4O8
_chemical_formula_sum              "N2 C45 H29 O12 Zn2"
_cell_length_a       17.807436237873137
_cell_length_b       10.299359160628079
_cell_length_c       10.299362532796529
_cell_angle_alpha    85.58430886835329
_cell_angle_beta     89.40785739381337
_cell_angle_gamma    88.41300836981586

_space_group_name_H-M_alt    "P 1"
_space_group_IT_number       1

loop_
  _space_group_symop_operation_xyz
  'x, y, z'

loop_
  _atom_site_type_symbol
  _atom_site_label
  _atom_site_symmetry_multiplicity
  _atom_site_fract_x
  _atom_site_fract_y
  _atom_site_fract_z
  _atom_site_occupancy
  N   N1        1.0  0.7075116616462565  0.38733572677696126  0.5572694858793781  1.0000
  C   C1        1.0  0.6469142921783888  0.35214224510346087  0.5462423161260985  1.0000
  C   C2        1.0  0.5715378247739676  0.3083654296054119  0.5325257142755098  1.0000
  C   C3        1.0  0.553413783905468  0.2369177621125549  0.42751678239888347  1.0000
  C   C4        1.0  0.4802270852501186  0.19430232506616615  0.41411620768646445  1.0000
  C   C5        1.0  0.4241156165435156  0.22275701151986982  0.5056920777792075  1.0000
  C   C6        1.0  0.34633706127497405  0.1775827202008456  0.49153282191895836  1.0000
  C   C7        1.0  0.2841836192129047  0.2593477108731954  0.5174792879651473  1.0000
  C   C8        1.0  0.2108545707633572  0.21652923743956132  0.5040923751292887  1.0000
  C   C9        1.0  0.1476517181146031  0.30098572243749055  0.5304029957777938  1.0000
  N   N2        1.0  0.09684961141333401  0.36888289366960497  0.5515560077449255  1.0000
  C   C10       1.0  0.1990953558845146  0.09168778262248845  0.4647336223091707  1.0000
  C   C11       1.0  0.2603914236306537  0.00990893695029673  0.4387787653098367  1.0000
  C   C12       1.0  0.333600917674771  0.05233280337263824  0.4519631037810741  1.0000
  C   C13       1.0  0.44293120998449687  0.2946991176096826  0.610920284588989  1.0000
  C   C14       1.0  0.5161707120358036  0.3371241109152261  0.6241651915311806  1.0000
  H   H1        1.0  0.5957925119103443  0.2144105821131302  0.35580234613938644  1.0000
  H   H2        1.0  0.4672893977099227  0.14059433509774033  0.3311911970775708  1.0000
  H   H3        1.0  0.2927080823161889  0.3568224795045286  0.5463653310810586  1.0000
  H   H4        1.0  0.14262082479017327  0.05764812825014222  0.4541355981658681  1.0000
  H   H5        1.0  0.2511686219327157  0.9132539144012067  0.4086923955641606  1.0000
  H   H6        1.0  0.38022360573021424  0.9865812347411629  0.43290862706217936  1.0000
  H   H7        1.0  0.4012694357371109  0.3166676334695864  0.6839291604816027  1.0000
  H   H8        1.0  0.5296368722658791  0.39205238588318087  0.7060486967798734  1.0000
  C   C15       1.0  0.9020958156410174  0.9967350436504646  0.554382525365996  1.0000
  C   C16       1.0  0.8399452873650322  0.0049350646814261285  0.47089853504260654  1.0000
  C   C17       1.0  0.8091366384419357  0.8920604693783101  0.42769046841321945  1.0000
  C   C18       1.0  0.8401242742226903  0.7696651487215755  0.4711510119339599  1.0000
  C   C19       1.0  0.9022726405137572  0.7594732336277568  0.554454176112438  1.0000
  C   C20       1.0  0.933004218682699  0.8736063224861487  0.5953778748042999  1.0000
  C   C21       1.0  0.7429902237264429  0.90288046892476  0.340728619842418  1.0000
  O   O1        1.0  0.6952511397607517  0.9940194001266116  0.35299558354789773  1.0000
  C   C22       1.0  0.7309991495206776  0.8103790798226086  0.2398581948262064  1.0000
  C   C23       1.0  0.7920943754882951  0.7541144648513529  0.1749071704711074  1.0000
  C   C24       1.0  0.7800046941106128  0.6682706013822609  0.0790038297949025  1.0000
  C   C25       1.0  0.7070172306697226  0.6378046085569874  0.0453125807743362  1.0000
  C   C26       1.0  0.645668934909945  0.6951155810758193  0.10895557428658532  1.0000
  C   C27       1.0  0.6576899275377538  0.7810216040238662  0.20490634393329676  1.0000
  O   O2        1.0  0.6979033808000074  0.5509790577143171  0.9485490860098228  1.0000
  C   C28       1.0  0.6271003998644928  0.5114762344215612  0.904720513432329  1.0000
  H   H9        1.0  0.8157795354252085  0.09939808740717093  0.43826873809976896  1.0000
  H   H10       1.0  0.8151801736038682  0.6822006395074727  0.4410659341049559  1.0000
  H   H11       1.0  0.9809450583457033  0.8664764648556034  0.6596423722343551  1.0000
  H   H12       1.0  0.9259211401094358  0.42806729210341854  0.5868249009862601  1.0000
  H   H13       1.0  0.8492132459032901  0.7775025708960548  0.1971998324392612  1.0000
  H   H14       1.0  0.8276749712652915  0.6255484177421413  0.030123546771451792  1.0000
  H   H15       1.0  0.5885184173040087  0.6740054484815983  0.0850187791268675  1.0000
  H   H16       1.0  0.6095996243034534  0.8237175709403876  0.252742041027771  1.0000
  H   H17       1.0  0.636466534468986  0.44261286165114017  0.8281090903870489  1.0000
  H   H18       1.0  0.5940831252894233  0.5973759867549472  0.8626954723668493  1.0000
  H   H19       1.0  0.595576951305121  0.4614265482676879  0.9867179410425879  1.0000
  C   C29       1.0  0.9021255662740707  0.37798640416479673  0.17305229997949945  1.0000
  C   C30       1.0  0.8307994480323083  0.3226850303991991  0.17738094007610639  1.0000
  C   C31       1.0  0.7945010097215579  0.2961312654814252  0.062397548198434016  1.0000
  C   C32       1.0  0.831011046507828  0.3228385630145716  0.9421235509754933  1.0000
  C   C33       1.0  0.9022428923817074  0.3782219030546318  0.9357843767835088  1.0000
  C   C34       1.0  0.9373275023770894  0.4057348159736769  0.05179451520458822  1.0000
  C   C35       1.0  0.7195641452224363  0.23638386945402526  0.06929388110792267  1.0000
  O   O3        1.0  0.7041970835797445  0.1579038721893844  0.16540824558535072  1.0000
  C   C36       1.0  0.6620634106069051  0.26566093704693455  0.9672254630701101  1.0000
  C   C37       1.0  0.6563148724765906  0.38930863712667596  0.8994684261201411  1.0000
  C   C38       1.0  0.6013323969227473  0.41609468370847497  0.8045820452543717  1.0000
  C   C39       1.0  0.5507748976355802  0.3208244443370398  0.7762656523131994  1.0000
  C   C40       1.0  0.5557334234798513  0.19740774588448654  0.8449525173494901  1.0000
  C   C41       1.0  0.6107091372564151  0.17049481788809295  0.9399113900767425  1.0000
  O   O4        1.0  0.4967010978979457  0.352547513425689  0.6800774596880653  1.0000
  H   H20       1.0  0.802978742290547  0.30126216868068956  0.27032107005911366  1.0000
  H   H21       1.0  0.8041497043768467  0.29903104679357484  0.8534612213878958  1.0000
  H   H22       1.0  0.9922778717905801  0.4484548396404498  0.0476370842929268  1.0000
  H   H23       1.0  0.6937783567356285  0.46578546935485166  0.9207504783312351  1.0000
  H   H24       1.0  0.5977750909362632  0.511724749975115  0.7530798995692933  1.0000
  H   H25       1.0  0.5174071491741151  0.1216576092595543  0.8257799688204939  1.0000
  H   H26       1.0  0.6135365004981128  0.07471747520360328  0.9913110376346125  1.0000
  H   H27       1.0  0.40662934902302134  0.3157494218324691  0.5639392282381581  1.0000
  H   H28       1.0  0.4052135564967043  0.23490667808544302  0.7255852035264052  1.0000
  H   H29       1.0  0.46989029460165976  0.17873320068972956  0.6024254214577671  1.0000
  Zn  Zn1       1.0  0.8198661829453758  0.3820071747311606  0.5556282099178953  1.0000
  Zn  Zn2       1.0  0.984495071105079  0.374200862693852  0.5532079592437082  1.0000
  C   C42       1.0  0.9022178296755762  0.3730037305148912  0.791611207802309  1.0000
  C   C43       1.0  0.9021452225166894  0.38320586034669346  0.31722506254956384  1.0000
  C   C44       1.0  0.9022345468889277  0.6152981007475962  0.5492655237403257  1.0000
  C   C45       1.0  0.9021284487759438  0.14090993247528782  0.5595708165290241  1.0000
  O   O5        1.0  0.9646276231037836  0.3819894369678618  0.3646922856529782  1.0000
  O   O6        1.0  0.9646849456639041  0.3682943638318931  0.742306696502785  1.0000
  O   O7        1.0  0.964697603029066  0.5639501723776027  0.54661085449522  1.0000
  O   O8        1.0  0.9646149095491104  0.18633364034619979  0.5603880311133513  1.0000
  O   O9        1.0  0.8397462883215838  0.569874399744136  0.5484481388673341  1.0000
  O   O10       1.0  0.8397336313040549  0.37422015150244975  0.7441439117765034  1.0000
  O   O11       1.0  0.8396763085432531  0.38791517889734867  0.36652793953283674  1.0000
  O   O12       1.0  0.8396635949983303  0.19225937301696264  0.5622237823594833  1.0000
