data_image0
_chemical_formula_structural       NC12NC2H8C9H10C6BrH4Zn2C4O8
_chemical_formula_sum              "N2 C33 H22 Br1 Zn2 O8"
_cell_length_a       19.240039667572717
_cell_length_b       10.297183801781406
_cell_length_c       9.27656775626242
_cell_angle_alpha    86.09344643719086
_cell_angle_beta     90.18620512450872
_cell_angle_gamma    89.99762600624447

_space_group_name_H-M_alt    "P 1"
_space_group_IT_number       1

loop_
  _space_group_symop_operation_xyz
  'x, y, z'

loop_
  _atom_site_type_symbol
  _atom_site_label
  _atom_site_symmetry_multiplicity
  _atom_site_fract_x
  _atom_site_fract_y
  _atom_site_fract_z
  _atom_site_occupancy
  N   N1        1.0  0.6519543689978858  0.40765461850380813  0.40992532447411567  1.0000
  C   C1        1.0  0.5918060000362502  0.40765470170682  0.40992523352598975  1.0000
  C   C2        1.0  0.5169879626537242  0.4076548176819553  0.40992508113210685  1.0000
  C   C3        1.0  0.4806954857508184  0.3441831130053026  0.5246902185515602  1.0000
  C   C4        1.0  0.4080248906270855  0.3440730476048497  0.5247862889259913  1.0000
  C   C5        1.0  0.3706557273184962  0.40765490804598103  0.4099248284777696  1.0000
  C   C6        1.0  0.4076622427310003  0.4712369574272773  0.29506358378138575  1.0000
  C   C7        1.0  0.4803330843893293  0.471126657660635  0.295159790180737  1.0000
  C   C8        1.0  0.2934506367148134  0.40765482843012096  0.40992472265261726  1.0000
  C   C9        1.0  0.25633820692779963  0.29477239069021205  0.4564334475744045  1.0000
  C   C10       1.0  0.1836673573441304  0.2948784272030731  0.45633207241502327  1.0000
  C   C11       1.0  0.1471183499004564  0.4076546998174049  0.40992479029304607  1.0000
  C   C12       1.0  0.0723003131803531  0.4076545884749345  0.4099250662332647  1.0000
  N   N2        1.0  0.012151996691480798  0.40765454967827996  0.4099252974915235  1.0000
  C   C13       1.0  0.1835168532197181  0.5204310477629668  0.36351744945347275  1.0000
  C   C14       1.0  0.2561873879513  0.5205372628562552  0.3634158938119707  1.0000
  H   H1        1.0  0.5085518467085396  0.2950485621710317  0.6142953776968683  1.0000
  H   H2        1.0  0.3810749996275997  0.2957477092137002  0.6156287126782856  1.0000
  H   H3        1.0  0.38042560285334887  0.519562322381051  0.20422110360052392  1.0000
  H   H4        1.0  0.5079064953763978  0.5202611109017923  0.20555493707481953  1.0000
  H   H5        1.0  0.2834877033064501  0.2058972956576861  0.4910557588033892  1.0000
  H   H6        1.0  0.15601051153830156  0.20691286021529656  0.4921000231421048  1.0000
  H   H7        1.0  0.1557438756036122  0.6083965903494317  0.3277495148815477  1.0000
  H   H8        1.0  0.2832243703102191  0.609412436649337  0.32879353287199975  1.0000
  C   C15       1.0  0.8320592730874706  0.026180838068049717  0.4101294542838325  1.0000
  C   C16       1.0  0.8297953964907888  0.034703067310688736  0.2585057474720225  1.0000
  C   C17       1.0  0.8286353855433525  0.9224527671757268  0.18082448852599464  1.0000
  C   C18       1.0  0.8297863327987588  0.7995267895429915  0.2579180764360167  1.0000
  C   C19       1.0  0.83205379777686  0.7891184717756403  0.4097335650800047  1.0000
  C   C20       1.0  0.8331748065890163  0.902912880792548  0.4848482371914455  1.0000
  C   C21       1.0  0.8261866508477814  0.941102354677979  0.016832743230049244  1.0000
  C   C22       1.0  0.785363603743067  0.8416777651246572  0.9366229242232955  1.0000
  C   C23       1.0  0.8645387112948152  0.8419455835638759  0.9320456119956955  1.0000
  H   H9        1.0  0.8329382169118164  0.35043540377678406  0.4685549318730977  1.0000
  H   H10       1.0  0.828921561174288  0.12941548332521524  0.19997063132403992  1.0000
  H   H11       1.0  0.8289350775429639  0.7114249789963978  0.2010084691380969  1.0000
  H   H12       1.0  0.8349210865620386  0.8956103591056904  0.6018291109860023  1.0000
  H   H13       1.0  0.8363271680155627  0.5622436403251121  0.6964702753494902  1.0000
  H   H14       1.0  0.8254002225627753  0.0413528678679267  0.9641229134084569  1.0000
  H   H15       1.0  0.762273741784644  0.7586187956224059  0.002195416413084631  1.0000
  H   H16       1.0  0.7606834725553647  0.8816512971884201  0.8346784443395169  1.0000
  H   H17       1.0  0.8895434766343782  0.759050105731752  0.9948383850001252  1.0000
  H   H18       1.0  0.8861329440435707  0.8820732646619469  0.8274245651031515  1.0000
  C   C24       1.0  0.8313931313067374  0.40391648649320677  0.9868067095467475  1.0000
  C   C25       1.0  0.7696298834569539  0.4351893415117341  0.057401330259335914  1.0000
  C   C26       1.0  0.710955086206913  0.47716264134727293  0.9786785707798494  1.0000
  C   C27       1.0  0.7129414452675162  0.48871322501964226  0.8281767335680379  1.0000
  C   C28       1.0  0.7733421214681204  0.4560370887420264  0.7558557788272591  1.0000
  C   C29       1.0  0.83271995058705  0.4113828625041118  0.8330563581196815  1.0000
  Br  Br1       1.0  0.6326343126466216  0.5472049813518283  0.7208961698851173  1.0000
  H   H19       1.0  0.927008565830755  0.2859255546230184  0.2777021044451664  1.0000
  H   H20       1.0  0.6640972358550329  0.501930285063654  0.034983114381846876  1.0000
  H   H21       1.0  0.7732326863078381  0.4626727553676959  0.6388018726816237  1.0000
  H   H22       1.0  0.9470795966433158  0.39796888373542294  0.5536685680144009  1.0000
  Zn  Zn1       1.0  0.7558996458759446  0.40765120378959696  0.4099336268170295  1.0000
  Zn  Zn2       1.0  0.9082067570976884  0.4076474717497709  0.40992876001497836  1.0000
  C   C30       1.0  0.8324676202379999  0.404796421179519  0.6730997238371388  1.0000
  C   C31       1.0  0.8316404461344932  0.4105038946371211  0.14676280351396387  1.0000
  C   C32       1.0  0.8320422431361509  0.6448563567503147  0.40406662179064434  1.0000
  C   C33       1.0  0.8320657713962377  0.17044239901363523  0.41579598319145805  1.0000
  O   O1        1.0  0.8895232022441688  0.4127076053975294  0.20044368588085848  1.0000
  O   O2        1.0  0.8901824367557029  0.4025888942357414  0.6194147334103197  1.0000
  O   O3        1.0  0.8898381625470001  0.5964403414191877  0.4021685993780006  1.0000
  O   O4        1.0  0.8898674243113198  0.21885616655494738  0.4176897118738436  1.0000
  O   O5        1.0  0.7742389266873592  0.5964425089870415  0.40217267495224535  1.0000
  O   O6        1.0  0.774583200761212  0.40259262185890576  0.6194187313476456  1.0000
  O   O7        1.0  0.7739239635801448  0.41271127246794875  0.20044595148397093  1.0000
  O   O8        1.0  0.7742681858138936  0.21885982528712367  0.4176920855103715  1.0000
