data_image0
_chemical_formula_structural       NC9NC4H8C7NC2NH8C6NCOCH7Zn2C4O8
_chemical_formula_sum              "N5 C34 H23 O9 Zn2"
_cell_length_a       16.32274767691083
_cell_length_b       9.273995741505848
_cell_length_c       10.30027207537675
_cell_angle_alpha    85.68415599440686
_cell_angle_beta     89.46610543676563
_cell_angle_gamma    90.10890436374608

_space_group_name_H-M_alt    "P 1"
_space_group_IT_number       1

loop_
  _space_group_symop_operation_xyz
  'x, y, z'

loop_
  _atom_site_type_symbol
  _atom_site_label
  _atom_site_symmetry_multiplicity
  _atom_site_fract_x
  _atom_site_fract_y
  _atom_site_fract_z
  _atom_site_occupancy
  N   N1        1.0  0.7805800905463323  0.5683710965210557  0.5603427912844077  1.0000
  C   C1        1.0  0.727949584275226  0.5157163288663706  0.5059376631202919  1.0000
  C   C2        1.0  0.6625296048764665  0.45031869750431247  0.43836605892473934  1.0000
  C   C3        1.0  0.6735812658700354  0.3608664098607915  0.34593583700235375  1.0000
  C   C4        1.0  0.5939711171680616  0.3172132177376816  0.30083295379871466  1.0000
  C   C5        1.0  0.5353959685267354  0.3810986552641018  0.3668474790001055  1.0000
  C   C6        1.0  0.4453638986369373  0.3642143070471706  0.34940396160098386  1.0000
  C   C7        1.0  0.39018510803424794  0.4386769131154598  0.42634076101538976  1.0000
  C   C8        1.0  0.3053957570802047  0.42424673781303324  0.4114324261939635  1.0000
  C   C9        1.0  0.24981786443701684  0.5009984616224792  0.4907336367799511  1.0000
  N   N2        1.0  0.2051521094436652  0.5626942179151437  0.5544783796997486  1.0000
  C   C10       1.0  0.2747314837733709  0.3352335272962741  0.31946348869554386  1.0000
  C   C11       1.0  0.3285889085022698  0.2608695522646025  0.24262893896521875  1.0000
  C   C12       1.0  0.4132172860599293  0.2749110453998638  0.2571355555546082  1.0000
  C   C13       1.0  0.5736718185938611  0.4742506783000615  0.463097983847814  1.0000
  H   H1        1.0  0.732293955687174  0.3260826342075666  0.30999182460358865  1.0000
  H   H2        1.0  0.5852663579831077  0.24410397460191183  0.22528966389840518  1.0000
  H   H3        1.0  0.4126867303093849  0.508166729948829  0.4981381277624961  1.0000
  H   H4        1.0  0.209273149456016  0.3233460521659024  0.3071823376797287  1.0000
  H   H5        1.0  0.3046947668420431  0.1920095353163316  0.1714825431653091  1.0000
  H   H6        1.0  0.45266538237503035  0.21542465202173183  0.1956732559303016  1.0000
  H   H7        1.0  0.5566709935976054  0.43563474064145136  0.5645114897096488  1.0000
  H   H8        1.0  0.5575609960083872  0.5898067815317325  0.4411860929206443  1.0000
  C   C14       1.0  0.9904199268980907  0.14207670729780797  0.5564957220936011  1.0000
  C   C15       1.0  0.004807834932684771  0.22516382456702053  0.438856770618792  1.0000
  C   C16       1.0  0.026526232729835675  0.15980047457189062  0.32598741864076786  1.0000
  C   C17       1.0  0.034762637531404045  0.009243662578979801  0.3275290319683628  1.0000
  C   C18       1.0  0.018654462742836213  0.9249023465052794  0.44411597177565243  1.0000
  C   C19       1.0  0.995320059983162  0.9889773058726691  0.5583365264176443  1.0000
  C   C20       1.0  0.05877901344542735  0.9419696424448465  0.20652081702833258  1.0000
  N   N3        1.0  0.061767099307180606  0.016257706777754063  0.08847777251866074  1.0000
  C   C21       1.0  0.0863431128895602  0.9180717036710982  0.006464584853639322  1.0000
  C   C22       1.0  0.09803054281231578  0.7869755900759695  0.07524277934880241  1.0000
  N   N4        1.0  0.08073071275453202  0.8021594942348207  0.2010419516848283  1.0000
  H   H9        1.0  0.9239766517350734  0.40749797636516133  0.7443116352650323  1.0000
  H   H10       1.0  0.0012432843229723803  0.34205690710063985  0.43471760443566443  1.0000
  H   H11       1.0  0.038091521193338806  0.22787827152059628  0.23761059273823415  1.0000
  H   H12       1.0  0.021428508306764904  0.8083024897113663  0.4458772982800106  1.0000
  H   H13       1.0  0.9963851099996008  0.6908527538562705  0.774276679254827  1.0000
  H   H14       1.0  0.09541034871021693  0.941010235032349  0.9028031012348933  1.0000
  H   H15       1.0  0.11815255190347317  0.6876092300891005  0.036468050151653886  1.0000
  H   H16       1.0  0.0851807373666511  0.721531291251588  0.2768891618718552  1.0000
  C   C23       1.0  0.9928775606683828  0.5656733832008018  0.17606363134379777  1.0000
  C   C24       1.0  0.9092305222679773  0.6009064232124882  0.1738568153440443  1.0000
  C   C25       1.0  0.8673391463525917  0.6206051946353177  0.05533102725167694  1.0000
  C   C26       1.0  0.9092369006747533  0.6005775469415371  0.9387220274270254  1.0000
  C   C27       1.0  0.9928624495795405  0.5653806329682405  0.9387686740121124  1.0000
  C   C28       1.0  0.034314018471034206  0.5486508742655751  0.057949919179688836  1.0000
  N   N5        1.0  0.7813984012291824  0.6544585690125819  0.051610121699039  1.0000
  C   C29       1.0  0.7412494665333887  0.7447681507431672  0.13981890149384535  1.0000
  O   O1        1.0  0.7823599667204919  0.821350032597967  0.2116876512890009  1.0000
  C   C30       1.0  0.6499874740384981  0.7565952978066235  0.1399909294888686  1.0000
  H   H17       1.0  0.8763023271719498  0.6102023785487722  0.26447473057341186  1.0000
  H   H18       1.0  0.8762714957014623  0.6138299589033922  0.8478369795230951  1.0000
  H   H19       1.0  0.09883364382198234  0.5215156749608001  0.058840386111865366  1.0000
  H   H20       1.0  0.7469617026037457  0.6189550201090037  0.9750479525040686  1.0000
  H   H21       1.0  0.6221605131395788  0.6491950205256607  0.12775667072059993  1.0000
  H   H22       1.0  0.6277635030879248  0.795413023180083  0.23342978879939857  1.0000
  H   H23       1.0  0.6307499434793415  0.8339258763440465  0.05856786808012249  1.0000
  Zn  Zn1       1.0  0.9031023876050176  0.5667289988670798  0.5586579400330922  1.0000
  Zn  Zn2       1.0  0.08262974988080374  0.5643244784376149  0.5561738439528889  1.0000
  C   C31       1.0  0.992830218832056  0.5596914003298985  0.7945886026003333  1.0000
  C   C32       1.0  0.9929038896117329  0.5713638701222781  0.3202432856751414  1.0000
  C   C33       1.0  0.9943897153245658  0.8288971502050919  0.5528137052622077  1.0000
  C   C34       1.0  0.9913443218335712  0.30215638854720317  0.5620182493308041  1.0000
  O   O2        1.0  0.06104238781513093  0.5723548555456819  0.3676885795755207  1.0000
  O   O3        1.0  0.06094882832879089  0.5568743518384969  0.745257561058658  1.0000
  O   O4        1.0  0.062207223021298656  0.7742614112168623  0.5500226368279211  1.0000
  O   O5        1.0  0.05978393192371212  0.35496780734065253  0.5629234073058551  1.0000
  O   O6        1.0  0.9259481442982401  0.7760856707861596  0.551908377520999  1.0000
  O   O7        1.0  0.9246897596275151  0.5587003439297932  0.7471432362750712  1.0000
  O   O8        1.0  0.9247833189085803  0.5741807979851314  0.36957269334845155  1.0000
  O   O9        1.0  0.923524862952204  0.35679373942888326  0.5648076184200614  1.0000
