data_image0
_chemical_formula_structural       NC8NH4C7NH3C6SCH7Zn2C4O8
_chemical_formula_sum              "N3 C26 H14 S1 Zn2 O8"
_cell_length_a       14.927258825633057
_cell_length_b       9.275154477615127
_cell_length_c       9.275274088470228
_cell_angle_alpha    86.32665131531041
_cell_angle_beta     89.72578083849504
_cell_angle_gamma    89.43370909507247

_space_group_name_H-M_alt    "P 1"
_space_group_IT_number       1

loop_
  _space_group_symop_operation_xyz
  'x, y, z'

loop_
  _atom_site_type_symbol
  _atom_site_label
  _atom_site_symmetry_multiplicity
  _atom_site_fract_x
  _atom_site_fract_y
  _atom_site_fract_z
  _atom_site_occupancy
  N   N1        1.0  0.8386796880253151  0.5628558205478424  0.41657096841816954  1.0000
  C   C1        1.0  0.7611532638112262  0.5628557941931129  0.4165709779638458  1.0000
  C   C2        1.0  0.6647206219002535  0.56285579442624  0.4165710330347183  1.0000
  C   C3        1.0  0.6184836534754644  0.4737069074567968  0.32649763568986767  1.0000
  C   C4        1.0  0.5247723425584444  0.47370681737288717  0.32649760687428375  1.0000
  C   C5        1.0  0.4769046244314181  0.5628558466252251  0.4165709454421189  1.0000
  C   C6        1.0  0.5231415931240813  0.652004742881571  0.5066442347766826  1.0000
  C   C7        1.0  0.6168529710326377  0.6520048329625712  0.5066442635981783  1.0000
  C   C8        1.0  0.38047198345494154  0.5628557485032797  0.41657089012671733  1.0000
  N   N2        1.0  0.3029455585742307  0.5628558297905253  0.416570902048381  1.0000
  H   H1        1.0  0.6548141712646407  0.4043438465798772  0.2564154953921989  1.0000
  H   H2        1.0  0.4897105152326739  0.40434382383337536  0.2564155925123981  1.0000
  H   H3        1.0  0.486811075334905  0.7213678037584905  0.5767263750743512  1.0000
  H   H4        1.0  0.6519147310989977  0.7213678172180895  0.5767263859644396  1.0000
  C   C9        1.0  0.07341431810234478  0.13945067452831839  0.41490325221981683  1.0000
  C   C10       1.0  0.049209784225467734  0.22142346501504195  0.2878354051968206  1.0000
  C   C11       1.0  0.01769817854671052  0.1542426456184749  0.1674985320258393  1.0000
  C   C12       1.0  0.009870543983994562  0.004172566464476502  0.17281227827315315  1.0000
  C   C13       1.0  0.03491414437852258  0.9209646043296985  0.2969837148253398  1.0000
  C   C14       1.0  0.06821955420817917  0.9862499753122841  0.4182511149374022  1.0000
  C   C15       1.0  0.9923064542720867  0.23978270949062064  0.038899186151652776  1.0000
  N   N3        1.0  0.971898559454724  0.30854132751714225  0.9355382524949897  1.0000
  H   H5        1.0  0.0897121593762171  0.21948004060156712  0.7686581909986361  1.0000
  H   H6        1.0  0.9851745565386159  0.9511679888951463  0.08032583351592404  1.0000
  H   H7        1.0  0.08299842254239186  0.6897298919069387  0.6552769861142342  1.0000
  C   C16       1.0  0.07209958290632046  0.5588326261343952  0.9933643637917444  1.0000
  C   C17       1.0  0.14807709506141786  0.6095839862295627  0.0629133477096313  1.0000
  C   C18       1.0  0.21900851495198603  0.6718224104915127  0.9830953370137707  1.0000
  C   C19       1.0  0.21515131099967655  0.6834477551657667  0.8325811720992657  1.0000
  C   C20       1.0  0.14109481214199082  0.6316049929141312  0.7615249611605703  1.0000
  C   C21       1.0  0.06953428847692879  0.5668680268221851  0.8397899558566446  1.0000
  S   S1        1.0  0.31482131403895774  0.7371945656278376  0.07404213162519935  1.0000
  C   C22       1.0  0.2676681001165895  0.9176653538038183  0.08648779106086613  1.0000
  H   H8        1.0  0.8555305470376761  0.4995067086078766  0.10183454512281331  1.0000
  H   H9        1.0  0.26990165377546194  0.731757235166403  0.7702742868348298  1.0000
  H   H10       1.0  0.14078575435342855  0.6390751409156272  0.6444950309493853  1.0000
  H   H11       1.0  0.9248311654445815  0.5210431059197314  0.5626939962643087  1.0000
  H   H12       1.0  0.25455313710425576  0.968052430291799  0.976724905945404  1.0000
  H   H13       1.0  0.20436794327610316  0.9122492214189404  0.14983195004039085  1.0000
  H   H14       1.0  0.31619516368070943  0.9849395106169405  0.14175307627099687  1.0000
  Zn  Zn1       1.0  0.9726567966879331  0.5628520311352065  0.4165792649351836  1.0000
  Zn  Zn2       1.0  0.1689684997520291  0.5628478948814368  0.41657439303132815  1.0000
  C   C23       1.0  0.0700524179397104  0.5596051962633851  0.6797746887766429  1.0000
  C   C24       1.0  0.07157501062896898  0.5660965502868338  0.15337911778111102  1.0000
  C   C25       1.0  0.06921426581876554  0.8261323426131546  0.4118752693458241  1.0000
  C   C26       1.0  0.07241310615645412  0.2995676723814724  0.4212786072005106  1.0000
  O   O1        1.0  0.14589826619454405  0.5685265296564799  0.20707965724217647  1.0000
  O   O2        1.0  0.14472521058619536  0.5571709859223033  0.6260700324885062  1.0000
  O   O3        1.0  0.14404738332117795  0.7723950415428538  0.40973936181728066  1.0000
  O   O4        1.0  0.14657602673589995  0.3533024833257414  0.4234102198972034  1.0000
  O   O5        1.0  0.9950492027125261  0.7723974426938118  0.4097434380633964  1.0000
  O   O6        1.0  0.9957270195794675  0.5571751186317622  0.62607403874013  1.0000
  O   O7        1.0  0.9969000808070482  0.5685305956724342  0.20708193057723734  1.0000
  O   O8        1.0  0.9975778410805294  0.35330654005479245  0.42341260124255187  1.0000
