data_image0
_chemical_formula_structural       NC9NC5H8C7OC3NC3H11C6SCOC6H10Zn2C4O8
_chemical_formula_sum              "N3 C44 H29 O10 S1 Zn2"
_cell_length_a       17.807436237873137
_cell_length_b       10.298746005989749
_cell_length_c       10.302041481415108
_cell_angle_alpha    85.5447523670973
_cell_angle_beta     89.38796050765288
_cell_angle_gamma    88.3993582553778

_space_group_name_H-M_alt    "P 1"
_space_group_IT_number       1

loop_
  _space_group_symop_operation_xyz
  'x, y, z'

loop_
  _atom_site_type_symbol
  _atom_site_label
  _atom_site_symmetry_multiplicity
  _atom_site_fract_x
  _atom_site_fract_y
  _atom_site_fract_z
  _atom_site_occupancy
  N   N1        1.0  0.7075958421348871  0.38836339692534116  0.5575183063960283  1.0000
  C   C1        1.0  0.6470054210002328  0.3531746138017411  0.5464946650045035  1.0000
  C   C2        1.0  0.5716375965603918  0.3094036427933533  0.5327824520508984  1.0000
  C   C3        1.0  0.553543420508101  0.23801889115092892  0.4277977544717211  1.0000
  C   C4        1.0  0.48036514465347663  0.1954091744671216  0.4144014621112635  1.0000
  C   C5        1.0  0.4242322921043017  0.22380666040171437  0.5059574003799918  1.0000
  C   C6        1.0  0.34646265661961717  0.17863840323415614  0.4918026745104893  1.0000
  C   C7        1.0  0.2842930091208883  0.2603922664817317  0.5177408755418742  1.0000
  C   C8        1.0  0.2109724088183751  0.2175794905919477  0.5043582494463423  1.0000
  C   C9        1.0  0.1477529107382063  0.3020247983966504  0.5306604342465739  1.0000
  N   N2        1.0  0.0969374220531156  0.36991298323244226  0.5518066641494253  1.0000
  C   C10       1.0  0.19923788788050265  0.09275485935612095  0.4650120627870083  1.0000
  C   C11       1.0  0.2605501645711486  0.01098714557473747  0.43906547302828147  1.0000
  C   C12       1.0  0.3337513034313578  0.053405418128959825  0.4522455806297596  1.0000
  C   C13       1.0  0.4430179108367703  0.2956857430562372  0.6111613100254452  1.0000
  C   C14       1.0  0.5162490459966651  0.338105103441766  0.6244019735433262  1.0000
  H   H1        1.0  0.5959389253433618  0.21555649030554316  0.3560989350740693  1.0000
  H   H2        1.0  0.46745066758594644  0.14175105585153336  0.3314954928146736  1.0000
  H   H3        1.0  0.2927985433460571  0.3578550912775924  0.5466174883165495  1.0000
  H   H4        1.0  0.1427700644197396  0.05871970580731878  0.45441743735633167  1.0000
  H   H5        1.0  0.251346407837767  0.9143448988125447  0.4089887525182143  1.0000
  H   H6        1.0  0.3803866778264634  0.9876616280277241  0.4331973761758341  1.0000
  H   H7        1.0  0.4013391870255446  0.3176086063813562  0.6841543207333485  1.0000
  H   H8        1.0  0.5296920264058722  0.3929842640075641  0.706266609333011  1.0000
  C   C15       1.0  0.9022343208606387  0.9977376599045551  0.5546458151728739  1.0000
  C   C16       1.0  0.9373824406935755  0.004621621791363944  0.4316532297060538  1.0000
  C   C17       1.0  0.9543650664080028  0.8910167943128029  0.36878497124716203  1.0000
  C   C18       1.0  0.9373830057794184  0.7693850119613456  0.4316040952670659  1.0000
  C   C19       1.0  0.902306106324556  0.7605284342448235  0.5546903065453184  1.0000
  C   C20       1.0  0.8847735088702695  0.8752688389110106  0.6152783611058537  1.0000
  C   C21       1.0  0.9921196814784491  0.8980642392016664  0.23944429247986432  1.0000
  O   O1        1.0  0.03799038693884893  0.8079214444309888  0.21356473741005932  1.0000
  C   C22       1.0  0.9778384676136824  0.0073141487103098824  0.13947042958116063  1.0000
  C   C23       1.0  0.9067024033113759  0.07008157056598696  0.1284092381674149  1.0000
  C   C24       1.0  0.8935415179972378  0.172410238131707  0.032716880597311045  1.0000
  N   N3        1.0  0.8212028163692145  0.236076526192117  0.022576506602140604  1.0000
  C   C25       1.0  0.9515632144778681  0.21157732027664813  0.9467505217042111  1.0000
  C   C26       1.0  0.022013598948557256  0.14867828472609923  0.9559661143858773  1.0000
  C   C27       1.0  0.03511605995639577  0.04677696759051299  0.051355188956381026  1.0000
  H   H9        1.0  0.8368634647061437  0.19197586270825445  0.7878885745247837  1.0000
  H   H10       1.0  0.9523239208627616  0.09844672337582483  0.38522255317514165  1.0000
  H   H11       1.0  0.95093385815408  0.6815681590356486  0.383718066230327  1.0000
  H   H12       1.0  0.8576843575945579  0.8692102943770788  0.7100852121365935  1.0000
  H   H13       1.0  0.8363109523444334  0.5364624179615292  0.7874538075447362  1.0000
  H   H14       1.0  0.861204843772934  0.038810904626479514  0.19302502794448184  1.0000
  H   H15       1.0  0.777550610225762  0.20766881496894896  0.08615398933106988  1.0000
  H   H16       1.0  0.810783404395157  0.3122108621509576  0.951506866169928  1.0000
  H   H17       1.0  0.9420983274762919  0.29040376489958747  0.8724188604895544  1.0000
  H   H18       1.0  0.06659076757806748  0.1789577853828168  0.8890320373866  1.0000
  H   H19       1.0  0.0902142038768372  0.9995216969979398  0.057073001608261  1.0000
  C   C28       1.0  0.9022843165239465  0.37926164903806914  0.1733808386893967  1.0000
  C   C29       1.0  0.936737028257855  0.5007379083869183  0.1619698008203978  1.0000
  C   C30       1.0  0.9542137495137057  0.5606410016944594  0.039331735242503114  1.0000
  C   C31       1.0  0.9368082905786486  0.500330634326389  0.9268633193552492  1.0000
  C   C32       1.0  0.9022561441096495  0.3790044031715665  0.935955327440281  1.0000
  C   C33       1.0  0.8852284423949216  0.31904147267874833  0.059780230179805834  1.0000
  S   S1        1.0  0.9988968821942787  0.7150697958061853  0.02616305518486928  1.0000
  C   C34       1.0  0.09143448419606547  0.6408778947153535  0.02736978124431189  1.0000
  O   O2        1.0  0.12083311353839553  0.6163099973110483  0.9198768568457716  1.0000
  C   C35       1.0  0.13284020368378188  0.6075703705741134  0.15028500028765102  1.0000
  C   C36       1.0  0.1994781660079567  0.5306828183739878  0.14949529753602508  1.0000
  C   C37       1.0  0.23863122452495308  0.49792801910508083  0.26487115507854075  1.0000
  C   C38       1.0  0.21194373158340915  0.541543845516701  0.3822027589748098  1.0000
  C   C39       1.0  0.14611319526632793  0.6182343104782542  0.3843608741829432  1.0000
  C   C40       1.0  0.10673593448757733  0.6513739010263442  0.2692877339958115  1.0000
  H   H20       1.0  0.8372344067194709  0.15041860047584166  0.4021986707924652  1.0000
  H   H21       1.0  0.9502373786817058  0.5490301013667009  0.24808900872571996  1.0000
  H   H22       1.0  0.9506270369142339  0.5482761803380867  0.8326921364772657  1.0000
  H   H23       1.0  0.8586696013392175  0.22539163304623155  0.06765674670501975  1.0000
  H   H24       1.0  0.8893245394854232  0.33269657087752785  0.6120829652077253  1.0000
  H   H25       1.0  0.22117571858579696  0.4951937549401024  0.05985628631517014  1.0000
  H   H26       1.0  0.289693216681973  0.43851891210378113  0.26327166077920916  1.0000
  H   H27       1.0  0.24232054464778785  0.5160510975893859  0.47141776672756275  1.0000
  H   H28       1.0  0.12558206370185854  0.6522809423861899  0.47533672933885907  1.0000
  H   H29       1.0  0.05624414766826534  0.7116981241330245  0.2741061782290579  1.0000
  Zn  Zn1       1.0  0.8199514100614891  0.3830355379796174  0.5558775588033309  1.0000
  Zn  Zn2       1.0  0.9845818345381748  0.3752302515304567  0.5534580854495379  1.0000
  C   C41       1.0  0.902259286711979  0.3738790191987052  0.791812118154178  1.0000
  C   C42       1.0  0.9022757557963339  0.38438832378962645  0.31752362721287986  1.0000
  C   C43       1.0  0.902288870354511  0.6163466522190367  0.5495079015792756  1.0000
  C   C44       1.0  0.9022461158275131  0.14191913297807712  0.5598279137461348  1.0000
  O   O3        1.0  0.9647492703148577  0.38314115093043416  0.3649810859428244  1.0000
  O   O4        1.0  0.964736455004137  0.3692011805677893  0.7425179613083794  1.0000
  O   O5        1.0  0.9647595019081044  0.5649969001281048  0.5468556045380586  1.0000
  O   O6        1.0  0.9647261672381524  0.18734544335736072  0.5606433461854783  1.0000
  O   O7        1.0  0.8398070211812282  0.5709203488176909  0.548692298886208  1.0000
  O   O8        1.0  0.8397839744232656  0.3751261897135701  0.744354586516994  1.0000
  O   O9        1.0  0.8397967898374106  0.38906611534071317  0.366816150081815  1.0000
  O   O10       1.0  0.8397736867531594  0.193270398445375  0.5624785076709544  1.0000
