data_image0
_chemical_formula_structural       NC8NC6H8C7OC6H9C7OC6OH11Zn2C4O8
_chemical_formula_sum              "N2 C44 H28 O11 Zn2"
_cell_length_a       17.457602349358154
_cell_length_b       10.299379429549807
_cell_length_c       10.299362532796529
_cell_angle_alpha    85.55652278512687
_cell_angle_beta     92.89066602148195
_cell_angle_gamma    91.68701110263541

_space_group_name_H-M_alt    "P 1"
_space_group_IT_number       1

loop_
  _space_group_symop_operation_xyz
  'x, y, z'

loop_
  _atom_site_type_symbol
  _atom_site_label
  _atom_site_symmetry_multiplicity
  _atom_site_fract_x
  _atom_site_fract_y
  _atom_site_fract_z
  _atom_site_occupancy
  N   N1        1.0  0.7221773190971034  0.45246909680816366  0.6259261957809167  1.0000
  C   C1        1.0  0.6610987308610653  0.4065380322514031  0.6153283418665809  1.0000
  C   C2        1.0  0.5851143854347022  0.3494055056878487  0.602154151402484  1.0000
  C   C3        1.0  0.5265966323238862  0.3895935228425158  0.6770367528551471  1.0000
  C   C4        1.0  0.4520504194652599  0.3345795687708561  0.6644761772409327  1.0000
  C   C5        1.0  0.38994241491678433  0.3770122725134084  0.7437797422431232  1.0000
  C   C6        1.0  0.31538658853217144  0.3954637688031182  0.6880085424380229  1.0000
  C   C7        1.0  0.25686885358051603  0.4354678853326872  0.762999170403802  1.0000
  C   C8        1.0  0.18087451066314691  0.45452455622700566  0.7050122541220416  1.0000
  N   N2        1.0  0.1197879756291272  0.4698397396380881  0.6583909269753927  1.0000
  C   C9        1.0  0.2724148568008411  0.45726382310509645  0.894269424958051  1.0000
  C   C10       1.0  0.34618603146652877  0.43920145852186576  0.9504280740150118  1.0000
  C   C11       1.0  0.40469222940291577  0.39937755271323966  0.8758951007887572  1.0000
  C   C12       1.0  0.43731039547977624  0.2386996824315583  0.5756003333683527  1.0000
  C   C13       1.0  0.4958164871130916  0.198790488403592  0.5011176296094848  1.0000
  C   C14       1.0  0.5695780181895567  0.2539170004658591  0.5142281156910192  1.0000
  H   H1        1.0  0.5389494783027067  0.46481323099500593  0.7436386179788672  1.0000
  H   H2        1.0  0.3030258975723367  0.3804599709243415  0.5859890606287592  1.0000
  H   H3        1.0  0.22756244294173852  0.48816710862642515  0.953093677705772  1.0000
  H   H4        1.0  0.3580329184825884  0.45576287999788145  0.052073683031407025  1.0000
  H   H5        1.0  0.46118541348003517  0.3843997336133051  0.922007802726573  1.0000
  H   H6        1.0  0.3808250666088909  0.19335830581551303  0.5649661316683839  1.0000
  H   H7        1.0  0.48397723817999194  0.12468691686607114  0.433316996607844  1.0000
  H   H8        1.0  0.6144305753702333  0.2221441346542758  0.45591533228777575  1.0000
  C   C15       1.0  0.920994709757998  0.07976307348812647  0.6423136112891614  1.0000
  C   C16       1.0  0.9675197082973932  0.07194263577887172  0.7578567130920968  1.0000
  C   C17       1.0  0.9902665545716858  0.9507278331054541  0.8169257668331893  1.0000
  C   C18       1.0  0.967426279899872  0.8367163936003283  0.7575728054382156  1.0000
  C   C19       1.0  0.920977923797196  0.8425360730959646  0.6420153365390393  1.0000
  C   C20       1.0  0.8978649589642972  0.9645381965243672  0.5852395569138346  1.0000
  C   C21       1.0  0.040059667241372  0.9424157120484622  0.9381875099426913  1.0000
  O   O1        1.0  0.08873448645148208  0.8537596971751201  0.9545178442747109  1.0000
  C   C22       1.0  0.0346300403154709  0.034577087138125226  0.04092777146869431  1.0000
  C   C23       1.0  0.10026627375756975  0.06693213498411456  0.11784877665781678  1.0000
  C   C24       1.0  0.0955297630454417  0.15251619069570324  0.2159531923948812  1.0000
  C   C25       1.0  0.025254896094651265  0.2057488395494655  0.23897318200340342  1.0000
  C   C26       1.0  0.9595013915329201  0.17308051556858195  0.16428667502625868  1.0000
  C   C27       1.0  0.9639297937250749  0.08756262427903903  0.06606943643485397  1.0000
  H   H9        1.0  0.8341671882075744  0.30197297330238304  0.42319519322929233  1.0000
  H   H10       1.0  0.9868251696909895  0.16038734998882107  0.8012695153664098  1.0000
  H   H11       1.0  0.9853933212385032  0.74321376357648  0.8024765078799433  1.0000
  H   H12       1.0  0.8619980523390499  0.9697630873816186  0.49616395754368287  1.0000
  H   H13       1.0  0.15530185775454153  0.02688464557600232  0.10129531787390277  1.0000
  H   H14       1.0  0.14639543106047298  0.17752579456334083  0.27420178834582437  1.0000
  H   H15       1.0  0.0216932035299362  0.27188798671216863  0.31502249058559584  1.0000
  H   H16       1.0  0.904959801237847  0.2135889685472034  0.1828802706195224  1.0000
  H   H17       1.0  0.9120050777965238  0.061822868655558416  0.010894078850231852  1.0000
  C   C28       1.0  0.9209264416082955  0.4610264120525151  0.2607927569813726  1.0000
  C   C29       1.0  0.8480999595349066  0.39916082084422516  0.2581570055094886  1.0000
  C   C30       1.0  0.8110375626346038  0.3692665111190552  0.1396285714996743  1.0000
  C   C31       1.0  0.8483160117642623  0.39933382683401447  0.02292028255229805  1.0000
  C   C32       1.0  0.921046198303351  0.4612727120901643  0.023536216313403857  1.0000
  C   C33       1.0  0.9568687419844852  0.4920145059820804  0.14297191212149696  1.0000
  C   C34       1.0  0.7345248073367256  0.3026225569780707  0.1392087898974268  1.0000
  O   O2        1.0  0.7188517195885736  0.22272669953111857  0.23385648342360607  1.0000
  C   C35       1.0  0.6757954180955528  0.32660956184969425  0.031488416699009036  1.0000
  C   C36       1.0  0.6698928102467123  0.44973132289242407  0.9631050502076137  1.0000
  C   C37       1.0  0.6137358020929882  0.4714589570745866  0.8628148566420121  1.0000
  C   C38       1.0  0.5621293211297367  0.37153449899926794  0.8295904170785197  1.0000
  C   C39       1.0  0.5672250803089024  0.24857105436975474  0.8988260454234446  1.0000
  C   C40       1.0  0.623375215924172  0.22671591353130996  0.9991881323712049  1.0000
  O   O3        1.0  0.5068990078507619  0.39828288466202344  0.7280849875899519  1.0000
  H   H18       1.0  0.05848094437905593  0.5772810267701451  0.47308541916817837  1.0000
  H   H19       1.0  0.8196939997213187  0.3751775939807562  0.34838060428859774  1.0000
  H   H20       1.0  0.8208904055382251  0.3730541608800879  0.9316366836943318  1.0000
  H   H21       1.0  0.012974977176373192  0.5397916725520828  0.14417986102607094  1.0000
  H   H22       1.0  0.7081320760523045  0.5296571084508717  0.9880210161161721  1.0000
  H   H23       1.0  0.6100782088372341  0.5667640254368522  0.8109154225518295  1.0000
  H   H24       1.0  0.5281045143096247  0.16929259476906133  0.8759346305431367  1.0000
  H   H25       1.0  0.6262874035626459  0.13119640150268494  0.05091358306320414  1.0000
  H   H26       1.0  0.41492402725775546  0.35319619633237637  0.6031352407508312  1.0000
  H   H27       1.0  0.4134990875588498  0.27222122288458744  0.7646834591379726  1.0000
  H   H28       1.0  0.4795638286530585  0.22199743657698814  0.647892786909912  1.0000
  Zn  Zn1       1.0  0.8369191669955001  0.4574784086152276  0.6353023158124711  1.0000
  Zn  Zn2       1.0  0.005046115384455661  0.46481978281450503  0.6490254437133918  1.0000
  C   C41       1.0  0.9210219535948775  0.45605210699818016  0.8793632393564916  1.0000
  C   C42       1.0  0.9209451647100654  0.46624780335686156  0.4049647968521039  1.0000
  C   C43       1.0  0.920976331017174  0.6983538880592839  0.6368961913500921  1.0000
  C   C44       1.0  0.920990729963012  0.22394445941809088  0.6474319100250585  1.0000
  O   O4        1.0  0.9847547491914382  0.47078049714857734  0.45855810819588805  1.0000
  O   O5        1.0  0.9848168327108219  0.4570903664546641  0.8361850910922779  1.0000
  O   O6        1.0  0.9847791320153396  0.652752081865051  0.6403911635990585  1.0000
  O   O7        1.0  0.98479239250109  0.2751187884924031  0.6543519336273161  1.0000
  O   O8        1.0  0.8571728325053889  0.6471794004334908  0.6299758212086846  1.0000
  O   O9        1.0  0.8572105331521507  0.45151924539693167  0.8257696788454874  1.0000
  O   O10       1.0  0.8571484494396598  0.46520933033020206  0.44814113455878446  1.0000
  O   O11       1.0  0.8571860927616648  0.2695476124159757  0.6439350573621427  1.0000
