data_image0
_chemical_formula_structural       NC12NC2H8C9N2CH8C10IC2H9Zn2C4O8
_chemical_formula_sum              "N4 C40 H25 I1 Zn2 O8"
_cell_length_a       17.80743265337812
_cell_length_b       10.29904407246008
_cell_length_c       10.299773630820606
_cell_angle_alpha    85.5262470586481
_cell_angle_beta     91.53904260144846
_cell_angle_gamma    89.45828139610279

_space_group_name_H-M_alt    "P 1"
_space_group_IT_number       1

loop_
  _space_group_symop_operation_xyz
  'x, y, z'

loop_
  _atom_site_type_symbol
  _atom_site_label
  _atom_site_symmetry_multiplicity
  _atom_site_fract_x
  _atom_site_fract_y
  _atom_site_fract_z
  _atom_site_occupancy
  N   N1        1.0  0.7076589949594718  0.4071942740460044  0.6009811367395539  1.0000
  C   C1        1.0  0.6568418352621997  0.43677493142820506  0.5322754238794207  1.0000
  C   C2        1.0  0.5936202738387755  0.4735711209841638  0.44681416555260545  1.0000
  C   C3        1.0  0.6053517398539353  0.5276320534390004  0.32018167664479047  1.0000
  C   C4        1.0  0.5440373324219749  0.5629238521467989  0.23711676619653008  1.0000
  C   C5        1.0  0.4708371767301209  0.5444183911741374  0.2800243808118956  1.0000
  C   C6        1.0  0.45812893814156436  0.4902385135838566  0.40712503842902076  1.0000
  C   C7        1.0  0.520300661429639  0.45494997371472806  0.4901734365073127  1.0000
  C   C8        1.0  0.3803604921648246  0.4706180253340104  0.4528932067037352  1.0000
  C   C9        1.0  0.3615885163142856  0.49777075660831327  0.5799293628389645  1.0000
  C   C10       1.0  0.2883584264966799  0.47930686089379937  0.6228775292817318  1.0000
  C   C11       1.0  0.23295733773219998  0.43343570521717956  0.5396275655778451  1.0000
  C   C12       1.0  0.157590605216338  0.41441854403192413  0.5839767884686573  1.0000
  N   N2        1.0  0.09700108942781803  0.39913002545266135  0.6196305127501183  1.0000
  C   C13       1.0  0.25103781621101773  0.40611389471521187  0.4131344173218747  1.0000
  C   C14       1.0  0.32421503830646814  0.4245926491646604  0.3699303624694741  1.0000
  H   H1        1.0  0.661818592190087  0.5424667225174034  0.28574119008322113  1.0000
  H   H2        1.0  0.5532387493351235  0.605051870656444  0.13932778121438183  1.0000
  H   H3        1.0  0.4242003799955548  0.5740747886153718  0.2144265648126813  1.0000
  H   H4        1.0  0.5117973125852231  0.41143656871772694  0.5878383344876145  1.0000
  H   H5        1.0  0.4032772766105704  0.5349346051569668  0.6454922628604721  1.0000
  H   H6        1.0  0.2749260419627089  0.5011266157573626  0.7208798567714196  1.0000
  H   H7        1.0  0.20863248379147684  0.370217315318711  0.3479841409462614  1.0000
  H   H8        1.0  0.33711870696763996  0.4012371364998866  0.27223176380264436  1.0000
  C   C15       1.0  0.902246898308917  0.02176234167539027  0.6104193202439006  1.0000
  C   C16       1.0  0.9154349957519039  0.031237163537997097  0.47622845861649066  1.0000
  C   C17       1.0  0.922214144024051  0.9189064748037925  0.4080520020613294  1.0000
  C   C18       1.0  0.9156237417380754  0.7959748170152586  0.4759328854408176  1.0000
  C   C19       1.0  0.902420378190447  0.7845517983995275  0.6102038405424216  1.0000
  C   C20       1.0  0.895814808837386  0.8979594133163273  0.6766184853130348  1.0000
  C   C21       1.0  0.9361799781050311  0.9299620419348784  0.26607501845759995  1.0000
  C   C22       1.0  0.9864259034610711  0.844920939456254  0.2119120171095392  1.0000
  C   C23       1.0  0.9983414644245647  0.857892646525561  0.07838972168504732  1.0000
  N   N3        1.0  0.9611333475569562  0.9525219617514351  0.0024013817688297565  1.0000
  N   N4        1.0  0.9131583397309485  0.03382130409526485  0.0528371777851262  1.0000
  C   C24       1.0  0.8994864734079109  0.025779085635587947  0.18234607270301795  1.0000
  H   H9        1.0  0.8971432626008029  0.34559697389814437  0.6620498763542788  1.0000
  H   H10       1.0  0.9215146275924766  0.12619067019860908  0.42480318845016973  1.0000
  H   H11       1.0  0.9197567836259873  0.7090755544418219  0.4235887113972871  1.0000
  H   H12       1.0  0.8856394972844122  0.8899385560404601  0.7801200567184625  1.0000
  H   H13       1.0  0.8770238861590689  0.5557227176910808  0.863478690862906  1.0000
  H   H14       1.0  0.016936418358463275  0.7703487739162623  0.2723871577800394  1.0000
  H   H15       1.0  0.03712646773445738  0.7933121349064578  0.03528953894332475  1.0000
  H   H16       1.0  0.859488087017948  0.09271398863334412  0.21902264468568244  1.0000
  C   C25       1.0  0.9023138475871303  0.4032756454664905  0.2289404920414508  1.0000
  C   C26       1.0  0.9780660277183362  0.43990179370671806  0.22860541089110062  1.0000
  C   C27       1.0  0.016470196521782166  0.45833998489928446  0.11130737820677883  1.0000
  C   C28       1.0  0.9781059736494474  0.43966215573868195  0.9933395519961636  1.0000
  C   C29       1.0  0.902353417042777  0.4030385681314424  0.9916826601452695  1.0000
  C   C30       1.0  0.8648816292920982  0.3850497264990072  0.1099847892717758  1.0000
  C   C31       1.0  0.09660883258754005  0.4970860340949309  0.11200645872759307  1.0000
  C   C32       1.0  0.1478578517180047  0.4400056840399176  0.031029982385792017  1.0000
  C   C33       1.0  0.22326420125034097  0.4766006978153825  0.03188825044806021  1.0000
  C   C34       1.0  0.24838725509018558  0.5704707568689384  0.11332869819091362  1.0000
  I   I1        1.0  0.3621677649740125  0.6254840031839649  0.1143194698313208  1.0000
  C   C35       1.0  0.19800797083489693  0.6278351605786707  0.19411158428550657  1.0000
  C   C36       1.0  0.12255949418209822  0.591492204033041  0.19365557927531382  1.0000
  H   H17       1.0  0.8734391489496094  0.389376535303827  0.556516581142502  1.0000
  H   H18       1.0  0.007670803119651514  0.45244170485278623  0.31993273637810815  1.0000
  H   H19       1.0  0.007162709215897019  0.4554840166839793  0.9025241626803653  1.0000
  H   H20       1.0  0.8064421118270068  0.3567953650892943  0.10947487413831779  1.0000
  H   H21       1.0  0.8734975617662999  0.3890274967022032  0.6636025558757715  1.0000
  H   H22       1.0  0.1298343074398225  0.3659123629485157  0.9683503105194688  1.0000
  H   H23       1.0  0.2621654151909598  0.4317053544644637  0.9694560651209744  1.0000
  H   H24       1.0  0.2172216280967143  0.7008290731072115  0.2570499324922466  1.0000
  H   H25       1.0  0.08433069882722277  0.6383877601394827  0.2558453078848095  1.0000
  Zn  Zn1       1.0  0.8200147161094643  0.4048636362115148  0.6063704317622483  1.0000
  Zn  Zn2       1.0  0.9846453639241721  0.4014500656786831  0.6142518138316173  1.0000
  C   C37       1.0  0.9023430908797877  0.3979092893655318  0.8475094672078197  1.0000
  C   C38       1.0  0.9023187872947096  0.4084060139609798  0.37311299145480126  1.0000
  C   C39       1.0  0.9023834488249604  0.6403700731462278  0.605069205492692  1.0000
  C   C40       1.0  0.9022783728213174  0.1659436708948827  0.6155533201603423  1.0000
  O   O1        1.0  0.9647969166829168  0.40882671406763965  0.4244895443115706  1.0000
  O   O2        1.0  0.9648158136468266  0.3948967885236288  0.8021143274075055  1.0000
  O   O3        1.0  0.9648475610552822  0.5906869548049101  0.6063420600660883  1.0000
  O   O4        1.0  0.9647651130942329  0.21303655827242302  0.6202617115857556  1.0000
  O   O5        1.0  0.8398949107590429  0.593277144784075  0.6003605313117495  1.0000
  O   O6        1.0  0.8398631636984465  0.3974885389544954  0.7961327289663941  1.0000
  O   O7        1.0  0.8398442666931888  0.4114184197232423  0.4185063844759959  1.0000
  O   O8        1.0  0.8398124631043727  0.21562825460826118  0.614278649121053  1.0000
