data_image0
_chemical_formula_structural       NC5NC4H6C10H6C6F3H5Zn2C4O8
_chemical_formula_sum              "N2 C29 H17 F3 Zn2 O8"
_cell_length_a       13.854160002989762
_cell_length_b       9.275150299802176
_cell_length_c       9.272721663655245
_cell_angle_alpha    85.5566990303468
_cell_angle_beta     90.51618417104903
_cell_angle_gamma    89.48388968248379

_space_group_name_H-M_alt    "P 1"
_space_group_IT_number       1

loop_
  _space_group_symop_operation_xyz
  'x, y, z'

loop_
  _atom_site_type_symbol
  _atom_site_label
  _atom_site_symmetry_multiplicity
  _atom_site_fract_x
  _atom_site_fract_y
  _atom_site_fract_z
  _atom_site_occupancy
  N   N1        1.0  0.8897951162674166  0.5702267084309915  0.400543935579073  1.0000
  C   C1        1.0  0.8169553086695003  0.5951228700426807  0.3413399286897354  1.0000
  C   C2        1.0  0.7263415520766592  0.6260943667054655  0.26768787881355727  1.0000
  C   C3        1.0  0.6393794147314995  0.5969951334229862  0.33959608585410334  1.0000
  C   C4        1.0  0.55119913947948  0.6260943809128396  0.26768785555396696  1.0000
  C   C5        1.0  0.46184716874848347  0.5951227231680638  0.3413400211696447  1.0000
  N   N2        1.0  0.3900215460543214  0.5702266449070579  0.40054393585238257  1.0000
  C   C6        1.0  0.5500100707633672  0.6848996095729145  0.12388697982592121  1.0000
  C   C7        1.0  0.6369258096499044  0.716149293844843  0.05186311770765672  1.0000
  C   C8        1.0  0.6356337195092613  0.7751322784211038  0.8965690197896207  1.0000
  C   C9        1.0  0.7250871592655899  0.6848996077482079  0.1238868895327616  1.0000
  H   H1        1.0  0.6403257116330128  0.5513696891654369  0.45089595382763625  1.0000
  H   H2        1.0  0.4816711339996675  0.706387687726318  0.06810004831878036  1.0000
  H   H3        1.0  0.6999317702502101  0.8431899421569498  0.8723900386106922  1.0000
  H   H4        1.0  0.5702232929705265  0.8431899443942129  0.8723901037010688  1.0000
  H   H5        1.0  0.6357538129071745  0.684174740965225  0.8255102834682564  1.0000
  H   H6        1.0  0.7924940918868166  0.7063877997848538  0.06809996223347725  1.0000
  C   C10       1.0  0.14247421839891716  0.14653446419114505  0.40295792859169643  1.0000
  C   C11       1.0  0.19258003039718963  0.22798436363583055  0.2938677046386984  1.0000
  C   C12       1.0  0.23437472756759425  0.16120204123356957  0.17923365707367478  1.0000
  C   C13       1.0  0.2264858361910631  0.011995778161299823  0.1722132947276882  1.0000
  C   C14       1.0  0.17848342145733764  0.9290984606281619  0.2806554674185584  1.0000
  C   C15       1.0  0.1373517991759794  0.993907818414193  0.39814251619980734  1.0000
  C   C16       1.0  0.28447730315277187  0.24638031016518785  0.06764919610152886  1.0000
  C   C17       1.0  0.32642585058827733  0.317719618298663  0.9742297449498842  1.0000
  C   C18       1.0  0.3755456514590929  0.4012629123348139  0.8648396418745684  1.0000
  C   C19       1.0  0.41748611004506225  0.4725968371677154  0.7714380985750644  1.0000
  H   H7        1.0  0.09807776962683246  0.41012216085996367  0.6319341318723246  1.0000
  H   H8        1.0  0.1972310367598673  0.3444450231660279  0.296095288065759  1.0000
  H   H9        1.0  0.258309846398421  0.9593610033984932  0.0835106272051016  1.0000
  H   H10       1.0  0.17549418896025765  0.813064038122962  0.2744300980910537  1.0000
  H   H11       1.0  0.07668687257608209  0.865328063008391  0.7407403238403077  1.0000
  H   H12       1.0  0.4543133317482242  0.5352340800113992  0.6894238290822371  1.0000
  C   C20       1.0  0.13737331611138456  0.5678810061389765  0.9771202930247643  1.0000
  C   C21       1.0  0.1791670480672789  0.44986733793091793  0.06051327698019171  1.0000
  C   C22       1.0  0.22936886148710334  0.3404358203871538  0.9952301480007  1.0000
  C   C23       1.0  0.23483132586172872  0.3470798141446112  0.8440425733797667  1.0000
  C   C24       1.0  0.19248370526167713  0.4620895240179447  0.7596983581710783  1.0000
  C   C25       1.0  0.14245275384373324  0.5725613254814337  0.8239801243024543  1.0000
  F   F1        1.0  0.3037011216181761  0.2548136631345883  0.21829702790627015  1.0000
  F   F2        1.0  0.3487492009572224  0.1532013578926481  0.017521603627060678  1.0000
  F   F3        1.0  0.20121281266083713  0.10902639227436772  0.10992825187222398  1.0000
  H   H13       1.0  0.07411281671092702  0.9114551987299969  0.05138723244658805  1.0000
  H   H14       1.0  0.1743784576848355  0.44474146707332096  0.1773880392119056  1.0000
  H   H15       1.0  0.27101989844412544  0.2623240648511431  0.7906163622098554  1.0000
  H   H16       1.0  0.19661702472577525  0.4625509763476919  0.6430411187054106  1.0000
  H   H17       1.0  0.9677674451214674  0.8159138453992679  0.7013063504331094  1.0000
  Zn  Zn1       1.0  0.03414973731977411  0.570222873331418  0.4005522933553751  1.0000
  Zn  Zn2       1.0  0.24566706857694107  0.570218738726592  0.40054748726124356  1.0000
  C   C26       1.0  0.1415252042160815  0.5659287871498195  0.6639381640758213  1.0000
  C   C27       1.0  0.1382939012873965  0.5745146461144814  0.13716174766769962  1.0000
  C   C28       1.0  0.1382806376825365  0.8337044830247166  0.39330678829579413  1.0000
  C   C29       1.0  0.14153840658475803  0.3067372172049918  0.4077932101751329  1.0000
  O   O1        1.0  0.21887262101281846  0.5767330927177989  0.19087133372511356  1.0000
  O   O2        1.0  0.2214832488270465  0.5637061117335871  0.61022452141221  1.0000
  O   O3        1.0  0.21886214723657305  0.7799383809457763  0.39168776220718593  1.0000
  O   O4        1.0  0.2214936497159008  0.3605008332307379  0.40940798475904705  1.0000
  O   O5        1.0  0.058323084000275305  0.7799407788302121  0.39169179585161795  1.0000
  O   O6        1.0  0.060944174646393214  0.5637102426555547  0.6102284683232828  1.0000
  O   O7        1.0  0.0583335368022233  0.5767371637803742  0.19087354731501494  1.0000
  O   O8        1.0  0.06095456621215753  0.36050489457112467  0.40941030651408594  1.0000
