data_image0
_chemical_formula_structural       NC9NC5H8C12H10C6NO2H3Zn2C4O8
_chemical_formula_sum              "N3 C36 H21 O10 Zn2"
_cell_length_a       17.807436237873137
_cell_length_b       10.299137764757564
_cell_length_c       9.273395971720358
_cell_angle_alpha    84.94328469474783
_cell_angle_beta     89.26497821809997
_cell_angle_gamma    88.40860916225229

_space_group_name_H-M_alt    "P 1"
_space_group_IT_number       1

loop_
  _space_group_symop_operation_xyz
  'x, y, z'

loop_
  _atom_site_type_symbol
  _atom_site_label
  _atom_site_symmetry_multiplicity
  _atom_site_fract_x
  _atom_site_fract_y
  _atom_site_fract_z
  _atom_site_occupancy
  N   N1        1.0  0.7092959229927959  0.40288692976948703  0.3954905688172181  1.0000
  C   C1        1.0  0.6487141007674894  0.36780940770834736  0.38324995077116353  1.0000
  C   C2        1.0  0.5733569724424362  0.32417683338071046  0.36802395097232754  1.0000
  C   C3        1.0  0.555369988575803  0.25385013079074725  0.2513268239390809  1.0000
  C   C4        1.0  0.48220217706189233  0.2113756213152842  0.23645155047701483  1.0000
  C   C5        1.0  0.4259725957179857  0.2388505947093469  0.3382374800036916  1.0000
  C   C6        1.0  0.3482140029916085  0.1938252003932237  0.3225201081140483  1.0000
  C   C7        1.0  0.2860240224466655  0.2753172768324406  0.35132229270663085  1.0000
  C   C8        1.0  0.2127138521610157  0.23263957167369198  0.3364623087425931  1.0000
  C   C9        1.0  0.1494738838381695  0.3168194099744208  0.36566794973534766  1.0000
  N   N2        1.0  0.0986419373068544  0.3844941646841158  0.3891484798295921  1.0000
  C   C10       1.0  0.2010100970847042  0.10821205497443388  0.29277206322649674  1.0000
  C   C11       1.0  0.2623427146052029  0.02670621259213469  0.263960557815174  1.0000
  C   C12       1.0  0.3355336055913204  0.06899145693761999  0.2785955488879097  1.0000
  C   C13       1.0  0.4446508315647452  0.30966941702709794  0.455178114814987  1.0000
  C   C14       1.0  0.5178716531758787  0.3519551391502561  0.46988043622622766  1.0000
  H   H1        1.0  0.5978412216927805  0.2321101645820627  0.17161684991031234  1.0000
  H   H2        1.0  0.46937260956428634  0.15855302352237644  0.14429506545627158  1.0000
  H   H3        1.0  0.29450753867973  0.3724886202297436  0.3833843425807093  1.0000
  H   H4        1.0  0.1445505171776581  0.07428383372503355  0.2810079234057896  1.0000
  H   H5        1.0  0.2531623581995661  0.9303675324087881  0.23056375257618988  1.0000
  H   H6        1.0  0.3821833645521126  0.0034399485610423514  0.257446773445384  1.0000
  H   H7        1.0  0.402894921896971  0.33085681106820153  0.5363273232784971  1.0000
  H   H8        1.0  0.5312309722971326  0.4060092622009164  0.5608785176819793  1.0000
  C   C15       1.0  0.903900050464926  0.012292435543190818  0.3924780481461612  1.0000
  C   C16       1.0  0.9040203175337662  0.023570113803486507  0.24046604954877426  1.0000
  C   C17       1.0  0.9041557157016179  0.9121545631132534  0.1632330188674025  1.0000
  C   C18       1.0  0.9041691761073191  0.7883116270631051  0.24006663981533194  1.0000
  C   C19       1.0  0.9040449638382311  0.7750782376714803  0.39217343702264307  1.0000
  C   C20       1.0  0.9039124252201223  0.8875948705911189  0.4674426874553866  1.0000
  C   C21       1.0  0.9042820566571954  0.9251301880768208  0.002419357427394524  1.0000
  C   C22       1.0  0.9496704413863174  0.8414021199725628  0.9240178618374402  1.0000
  C   C23       1.0  0.9496959944446463  0.8538707803201742  0.7726466944729564  1.0000
  C   C24       1.0  0.9045233582982436  0.9497017492235168  0.6979627021078127  1.0000
  C   C25       1.0  0.8592309360929353  0.03332849151941807  0.7744983202489425  1.0000
  C   C26       1.0  0.8590164814245148  0.021363642552027384  0.9258735401291136  1.0000
  H   H9        1.0  0.9038154471539263  0.3354320429700661  0.4509525395143157  1.0000
  H   H10       1.0  0.9050486133628971  0.11920045373871657  0.18175547727501584  1.0000
  H   H11       1.0  0.9032382171671837  0.7021415405821454  0.1811139956558017  1.0000
  H   H12       1.0  0.9038176037713929  0.8781807062174128  0.5846930636573453  1.0000
  H   H13       1.0  0.9033328130122863  0.5428319101380661  0.6792748194152862  1.0000
  H   H14       1.0  0.9858239995326026  0.7675004876939038  0.9797000598418131  1.0000
  H   H15       1.0  0.9849293363571711  0.7893514133983204  0.7132095340133668  1.0000
  H   H16       1.0  0.904616309458047  0.9591584382963987  0.5807898644503182  1.0000
  H   H17       1.0  0.8240907654111799  0.10732565757652625  0.7165000809244932  1.0000
  H   H18       1.0  0.8227737473147154  0.08615979551816587  0.9830289774804895  1.0000
  C   C27       1.0  0.9044007946057048  0.3976550802903671  0.968380463108628  1.0000
  C   C28       1.0  0.8374467395682849  0.4304627216471646  0.040046025933630595  1.0000
  C   C29       1.0  0.7702800635921657  0.4509995488175967  0.9647037960433694  1.0000
  C   C30       1.0  0.7681619105486746  0.4391675160935986  0.8154483890203115  1.0000
  C   C31       1.0  0.8350762414424286  0.4085872178089114  0.7423449134104234  1.0000
  C   C32       1.0  0.9035442062779642  0.38971559168565767  0.8162710273954601  1.0000
  N   N3        1.0  0.6985196276645705  0.4593884600970872  0.7384385711987549  1.0000
  O   O1        1.0  0.6332367182863123  0.49038483729209914  0.8102654931744553  1.0000
  O   O2        1.0  0.6961250176693586  0.448798056837203  0.6054862763675839  1.0000
  H   H19       1.0  0.06876454738704374  0.24438795363367527  0.08218276405947589  1.0000
  H   H20       1.0  0.7197236698850991  0.47492415198328347  0.023901754612201568  1.0000
  H   H21       1.0  0.015611949549999556  0.29025816747179234  0.5430336044495405  1.0000
  Zn  Zn1       1.0  0.8216527621009112  0.39757563134074597  0.39366872961977806  1.0000
  Zn  Zn2       1.0  0.9862850660001304  0.3897947649994937  0.3909821918132381  1.0000
  C   C33       1.0  0.9037034758648426  0.3860423349062714  0.656003630110324  1.0000
  C   C34       1.0  0.9042361501840324  0.4013296138844231  0.1286474030282443  1.0000
  C   C35       1.0  0.9040195222558731  0.6309495375205165  0.38647813151760024  1.0000
  C   C36       1.0  0.9039200472412864  0.15642085278338413  0.3981729801293612  1.0000
  O   O3        1.0  0.9666579942768618  0.3996043565277505  0.18141492728813202  1.0000
  O   O4        1.0  0.9662337413329998  0.3818611188414136  0.6011966706262912  1.0000
  O   O5        1.0  0.9664881090529971  0.5796268079754816  0.38355293677963664  1.0000
  O   O6        1.0  0.9664035704901298  0.20183868035328456  0.3990585538021494  1.0000
  O   O7        1.0  0.841534201429994  0.5855317186436684  0.38559236854005596  1.0000
  O   O8        1.0  0.8412798340807945  0.3877675906531065  0.603236024787507  1.0000
  O   O9        1.0  0.8417040888195053  0.4055107993305995  0.18345254574979641  1.0000
  O   O10       1.0  0.8414496649185903  0.20774511285324418  0.4010962805056404  1.0000
