data_image0
_chemical_formula_structural       NC9NC3NH7C6NO2H5C6NCOCH7Zn2C4O8
_chemical_formula_sum              "N5 C30 H19 O11 Zn2"
_cell_length_a       16.053384444249904
_cell_length_b       9.273392599741053
_cell_length_c       10.300272075376752
_cell_angle_alpha    85.66434630960563
_cell_angle_beta     89.79678474651607
_cell_angle_gamma    88.5803697124526

_space_group_name_H-M_alt    "P 1"
_space_group_IT_number       1

loop_
  _space_group_symop_operation_xyz
  'x, y, z'

loop_
  _atom_site_type_symbol
  _atom_site_label
  _atom_site_symmetry_multiplicity
  _atom_site_fract_x
  _atom_site_fract_y
  _atom_site_fract_z
  _atom_site_occupancy
  N   N1        1.0  0.7751240972223267  0.5599236297294483  0.5676794035961421  1.0000
  C   C1        1.0  0.7245126595380099  0.5368355818881126  0.49279160450546605  1.0000
  C   C2        1.0  0.6616164455814845  0.5081484244198258  0.3997626900798186  1.0000
  C   C3        1.0  0.6753228052638955  0.494782702300286  0.2690124975409529  1.0000
  C   C4        1.0  0.5988708552741109  0.466671322253231  0.21670729745403364  1.0000
  C   C5        1.0  0.5417817934916047  0.46445110284634694  0.3183674001213661  1.0000
  C   C6        1.0  0.4512887877602162  0.4379963979001973  0.30806932292700817  1.0000
  C   C7        1.0  0.3951020146490161  0.48540246416132504  0.4020628432499651  1.0000
  C   C8        1.0  0.3097046871484957  0.46031267904764284  0.392199720383823  1.0000
  C   C9        1.0  0.2527260596789596  0.5096558790694361  0.4885687881518721  1.0000
  N   N2        1.0  0.2069319489234658  0.549320854248595  0.5660344283694188  1.0000
  C   C10       1.0  0.2797688482425  0.3876924411271556  0.28835654181942094  1.0000
  C   C11       1.0  0.334946258337538  0.3404191514886493  0.19457493639933898  1.0000
  C   C12       1.0  0.42013875069235374  0.36532501267044815  0.20404114277428856  1.0000
  N   N3        1.0  0.5808099467610148  0.48992456526344985  0.42996453714259036  1.0000
  H   H1        1.0  0.7340031309061824  0.5043930914392918  0.21741904365709575  1.0000
  H   H2        1.0  0.5867089617609006  0.4514111034360437  0.11550909697041044  1.0000
  H   H3        1.0  0.4170649006058665  0.5436387320303661  0.4819700795158715  1.0000
  H   H4        1.0  0.213866871555919  0.36773989442474564  0.27988537583329265  1.0000
  H   H5        1.0  0.3116821109792213  0.2840064847202697  0.11443744977238901  1.0000
  H   H6        1.0  0.4614990079824222  0.3259843627816694  0.13072119030934126  1.0000
  H   H7        1.0  0.5546240672082368  0.4925195717948525  0.5227222792330981  1.0000
  C   C13       1.0  0.9935719559202961  0.13103144400449862  0.5660306078501856  1.0000
  C   C14       1.0  0.98296330398175  0.2146719727105214  0.4474455487403958  1.0000
  C   C15       1.0  0.9650015822896506  0.15004967695650584  0.33319289837025945  1.0000
  C   C16       1.0  0.9570538911490689  0.9998284713763862  0.334338732950648  1.0000
  C   C17       1.0  0.9689622421391427  0.9149879179526155  0.45201328488513176  1.0000
  C   C18       1.0  0.9884921129304112  0.9782017482224606  0.5676943552349636  1.0000
  N   N4        1.0  0.9377957061147095  0.9338216642840209  0.21628320393606004  1.0000
  O   O1        1.0  0.9268648065109858  0.017220880634977835  0.10103567788716417  1.0000
  O   O2        1.0  0.9304584686660364  0.800068515377944  0.21651847227631446  1.0000
  H   H8        1.0  0.9765990451338142  0.20783830182531027  0.8848169097613452  1.0000
  H   H9        1.0  0.9866058003446915  0.33142599503018655  0.44359494554048085  1.0000
  H   H10       1.0  0.9564893822154013  0.21820117936853897  0.24397314023905747  1.0000
  H   H11       1.0  0.964937752786779  0.7984843258529153  0.4529529974623485  1.0000
  H   H12       1.0  0.9799030194968423  0.6802667704625531  0.7831321377376695  1.0000
  C   C19       1.0  0.99103799004307  0.5547629318854592  0.18551002576816167  1.0000
  C   C20       1.0  0.9055600471209632  0.5909795829481648  0.18246282958116766  1.0000
  C   C21       1.0  0.862727332363737  0.6111717495944418  0.06351562226559015  1.0000
  C   C22       1.0  0.9055704408630377  0.5906505059148148  0.9473281926898321  1.0000
  C   C23       1.0  0.9910261022245189  0.554470244025103  0.9482149963462545  1.0000
  C   C24       1.0  0.033376307149609846  0.5372533350628652  0.06781250011810425  1.0000
  N   N5        1.0  0.7749333493584419  0.6460348024781084  0.0589319175027041  1.0000
  C   C25       1.0  0.7330335107275813  0.7368447960172737  0.146717767506358  1.0000
  O   O3        1.0  0.7739281776106393  0.8129794580007585  0.2189745160272012  1.0000
  C   C26       1.0  0.6400901493165277  0.7497348384216584  0.1459800034447647  1.0000
  H   H13       1.0  0.8719654491768088  0.6006609797515488  0.2727511428423164  1.0000
  H   H14       1.0  0.871890994949835  0.6042903162165085  0.8561121185924003  1.0000
  H   H15       1.0  0.09930767834656383  0.5093594610921979  0.06935116808685593  1.0000
  H   H16       1.0  0.740337077776973  0.6109169167809065  0.9820371011381074  1.0000
  H   H17       1.0  0.6130694753541827  0.642615854499863  0.13349792530633797  1.0000
  H   H18       1.0  0.6170297305864774  0.7888252536153066  0.23918773277742347  1.0000
  H   H19       1.0  0.6196089909136224  0.8273183221496796  0.06434521544170058  1.0000
  Zn  Zn1       1.0  0.8997345363410523  0.5568600479050636  0.567212184238957  1.0000
  Zn  Zn2       1.0  0.08232155664568186  0.552372680231251  0.5665122384374335  1.0000
  C   C27       1.0  0.9910609256622557  0.548779191744347  0.804036121162772  1.0000
  C   C28       1.0  0.990997150253699  0.5604553073742189  0.3296884249055865  1.0000
  C   C29       1.0  0.9894481016848706  0.8180706455285109  0.562204961755959  1.0000
  C   C30       1.0  0.9926099223175878  0.2911621220492142  0.5715196503833233  1.0000
  O   O4        1.0  0.06027430442707771  0.5606564949403718  0.37781037459921296  1.0000
  O   O5        1.0  0.060363101654915985  0.545171107899098  0.7553825528344029  1.0000
  O   O6        1.0  0.05905979180171018  0.7626273849233118  0.5601021871442371  1.0000
  O   O7        1.0  0.06157755191534919  0.3432002298035055  0.5730906431780187  1.0000
  O   O8        1.0  0.9204784787633867  0.7660324998657004  0.5606337797304013  1.0000
  O   O9        1.0  0.9217817782220895  0.5485779559152181  0.7559140795816726  1.0000
  O   O10       1.0  0.9216929813754644  0.5640632932878831  0.3783403399141949  1.0000
  O   O11       1.0  0.922996228920672  0.34660701779656056  0.5736207058363902  1.0000
