data_image0
_chemical_formula_structural       NC8NH4C9H8C9H10Zn2C4O8
_chemical_formula_sum              "N2 C30 H22 Zn2 O8"
_cell_length_a       13.859017124695912
_cell_length_b       9.275152443626249
_cell_length_c       10.29718717394978
_cell_angle_alpha    85.37052444745348
_cell_angle_beta     89.97407186165773
_cell_angle_gamma    90.57357307376715

_space_group_name_H-M_alt    "P 1"
_space_group_IT_number       1

loop_
  _space_group_symop_operation_xyz
  'x, y, z'

loop_
  _atom_site_type_symbol
  _atom_site_label
  _atom_site_symmetry_multiplicity
  _atom_site_fract_x
  _atom_site_fract_y
  _atom_site_fract_z
  _atom_site_occupancy
  N   N1        1.0  0.9196487540144203  0.5785975631042162  0.5622685682260087  1.0000
  C   C1        1.0  0.8471579974573328  0.5557241710821275  0.511724847450562  1.0000
  C   C2        1.0  0.7569838124570276  0.5272730184918712  0.4488549534544045  1.0000
  C   C3        1.0  0.6695338396158026  0.5550100140704745  0.5101451879393627  1.0000
  C   C4        1.0  0.5817535009885043  0.5272742446391967  0.448854427574517  1.0000
  C   C5        1.0  0.5816055001914111  0.47179397484706825  0.32625461610066747  1.0000
  C   C6        1.0  0.6688735476705019  0.44416358498946246  0.26520030463463296  1.0000
  C   C7        1.0  0.7564708429625904  0.47179162477711095  0.32625568534303184  1.0000
  C   C8        1.0  0.4919181650999374  0.5557250978728678  0.5117243957534765  1.0000
  N   N2        1.0  0.419699881830302  0.578597885791611  0.5622683725537112  1.0000
  H   H1        1.0  0.6697896044416762  0.5979539101710345  0.6050403766559429  1.0000
  H   H2        1.0  0.5141800465795976  0.44996393757273817  0.2780124859076827  1.0000
  H   H3        1.0  0.6686183718740634  0.40130740867842957  0.170497292368458  1.0000
  H   H4        1.0  0.8236362327142066  0.4499594862207698  0.27801446219291703  1.0000
  C   C9        1.0  0.16683211285687838  0.15496562471181294  0.5635946565759102  1.0000
  C   C10       1.0  0.1320612717997789  0.2376899111349673  0.45323846369456877  1.0000
  C   C11       1.0  0.10626020045195439  0.1722331755569919  0.340816124154669  1.0000
  C   C12       1.0  0.11482499858375639  0.02289065555214819  0.3365240483152823  1.0000
  C   C13       1.0  0.14770932366342238  0.9384780934512618  0.4459475889619615  1.0000
  C   C14       1.0  0.172525683523302  0.0022187862586780026  0.5609535373404289  1.0000
  C   C15       1.0  0.0887221589383802  0.955725209985935  0.22010364508475688  1.0000
  C   C16       1.0  0.06686713334471328  0.8994565112884355  0.12261981080334851  1.0000
  C   C17       1.0  0.04035038048026718  0.8311723983789557  0.004340274639708539  1.0000
  H   H5        1.0  0.30539194826322014  0.23665264125522562  0.8230195386559178  1.0000
  H   H6        1.0  0.12697866779913225  0.35420733766897516  0.452829862595132  1.0000
  H   H7        1.0  0.08049053611898538  0.23846141884408012  0.2566864761759342  1.0000
  H   H8        1.0  0.15177304091229193  0.8221675709037193  0.44232386540360535  1.0000
  H   H9        1.0  0.26271981256530963  0.7069437113008163  0.7383914483401581  1.0000
  H   H10       1.0  0.057985543433097364  0.7144522409459709  0.016475699543784916  1.0000
  H   H11       1.0  0.9618228201614036  0.8437524768723079  0.9865571259240642  1.0000
  H   H12       1.0  0.08112642061899211  0.8835094639209639  0.9202580357966054  1.0000
  C   C18       1.0  0.16980610472501884  0.5785400420805116  0.18082112252874663  1.0000
  C   C19       1.0  0.07228916833341659  0.6181639445450928  0.17721573046762942  1.0000
  C   C20       1.0  0.022328365965118776  0.6384641957318622  0.05875217883099571  1.0000
  C   C21       1.0  0.07191114104847962  0.6183169928766612  0.9419925284324648  1.0000
  C   C22       1.0  0.1695516935467396  0.578644362631433  0.9437271071187701  1.0000
  C   C23       1.0  0.21786153693390364  0.5590135428491798  0.06352957591366915  1.0000
  C   C24       1.0  0.9168567686122377  0.6813199830712439  0.06428486054586857  1.0000
  C   C25       1.0  0.8489154437742674  0.6232957077350676  0.9641939151098488  1.0000
  C   C26       1.0  0.8786771407404379  0.7824481531179679  0.9525982891700995  1.0000
  H   H13       1.0  0.2073851932206621  0.563284773415546  0.509747765336283  1.0000
  H   H14       1.0  0.034642357236903676  0.633461306305023  0.26724620840470564  1.0000
  H   H15       1.0  0.03530895715763149  0.6331861704837527  0.8493390906280247  1.0000
  H   H16       1.0  0.2930977075058514  0.5284421521211156  0.06558386661909911  1.0000
  H   H17       1.0  0.3539634197614734  0.5036954754168472  0.7397881468001408  1.0000
  H   H18       1.0  0.8829566280872884  0.6950957775834454  0.16031921258400383  1.0000
  H   H19       1.0  0.8811546941408911  0.558183006601443  0.8898718928274532  1.0000
  H   H20       1.0  0.7737919709620956  0.603775965866644  0.9993733682103025  1.0000
  H   H21       1.0  0.9289954666457098  0.8140116795959103  0.8712334871418319  1.0000
  H   H22       1.0  0.8209472116686412  0.8559464427040075  0.9809981910170877  1.0000
  Zn  Zn1       1.0  0.0639526824264256  0.5785938056703679  0.5622760290760851  1.0000
  Zn  Zn2       1.0  0.27539586314880315  0.578589876736437  0.5622716024128667  1.0000
  C   C27       1.0  0.16955900075574748  0.5728775965527813  0.7995394522646853  1.0000
  C   C28       1.0  0.16979186596178653  0.5843079060394815  0.32500830099645506  1.0000
  C   C29       1.0  0.17144623093378764  0.8420691679791834  0.5562764789372905  1.0000
  C   C30       1.0  0.16790455196262344  0.31511460140902603  0.5682713489820916  1.0000
  O   O1        1.0  0.2500286301482473  0.5862358692470017  0.3733971749794185  1.0000
  O   O2        1.0  0.2498027110867347  0.5709455630291327  0.751146848010784  1.0000
  O   O3        1.0  0.2513255911773997  0.7883211615527628  0.5547102712698064  1.0000
  O   O4        1.0  0.2485056780081769  0.3688602810311596  0.5698336542936024  1.0000
  O   O5        1.0  0.09084279541188424  0.7883234013785557  0.5547139771900225  1.0000
  O   O6        1.0  0.0893199269871745  0.5709495360618895  0.7511504792674313  1.0000
  O   O7        1.0  0.0895458462958616  0.5862397917950422  0.37339924464786184  1.0000
  O   O8        1.0  0.08802289405002896  0.36886419327432246  0.569835821383513  1.0000
