data_image0
_chemical_formula_structural       NC12NC2H8C6NCOH7C6ClH5Zn2C4O8
_chemical_formula_sum              "N3 C31 H20 O9 Cl1 Zn2"
_cell_length_a       19.240039667572717
_cell_length_b       9.27373018362039
_cell_length_c       10.302974078461048
_cell_angle_alpha    85.70652844495697
_cell_angle_beta     89.99986526728996
_cell_angle_gamma    90.59426011834398

_space_group_name_H-M_alt    "P 1"
_space_group_IT_number       1

loop_
  _space_group_symop_operation_xyz
  'x, y, z'

loop_
  _atom_site_type_symbol
  _atom_site_label
  _atom_site_symmetry_multiplicity
  _atom_site_fract_x
  _atom_site_fract_y
  _atom_site_fract_z
  _atom_site_occupancy
  N   N1        1.0  0.6623690631496667  0.5783027184635501  0.5716016190012789  1.0000
  C   C1        1.0  0.6022206947987068  0.5783028117234029  0.5716015373087201  1.0000
  C   C2        1.0  0.5274026583088233  0.5783029419675556  0.5716014003529316  1.0000
  C   C3        1.0  0.4905709363907633  0.5067148013347664  0.6748123242844501  1.0000
  C   C4        1.0  0.4178995726304982  0.5065916696407233  0.6748985509673053  1.0000
  C   C5        1.0  0.3810704238856563  0.578303044761201  0.5716011729862738  1.0000
  C   C6        1.0  0.4186169545658111  0.6500146275230791  0.4683039899650133  1.0000
  C   C7        1.0  0.4912870260617556  0.6498912343116724  0.46839033849852285  1.0000
  C   C8        1.0  0.3038653330094739  0.5783029574110441  0.5716010773988822  1.0000
  C   C9        1.0  0.2660487127626868  0.45252933813204654  0.6131647167861873  1.0000
  C   C10       1.0  0.19337861794446148  0.4526480490578265  0.6130736984008172  1.0000
  C   C11       1.0  0.15753304536910617  0.5783028139672465  0.5716011379545614  1.0000
  C   C12       1.0  0.0827150075823955  0.5783026876559945  0.5716013862383311  1.0000
  N   N2        1.0  0.0225666905033954  0.5783026423201838  0.5716015944827733  1.0000
  C   C13       1.0  0.1946349840713827  0.7039576630818527  0.5301285248314054  1.0000
  C   C14       1.0  0.2673062748553093  0.7040765740290778  0.5300373443717328  1.0000
  H   H1        1.0  0.5180086238471818  0.4512896981422101  0.7553975746491535  1.0000
  H   H2        1.0  0.3905335163920891  0.452052806523417  0.756601003594155  1.0000
  H   H3        1.0  0.3917964801663374  0.7045535206819782  0.3866014865766537  1.0000
  H   H4        1.0  0.51927910951146  0.7053162261622079  0.38780536357808837  1.0000
  H   H5        1.0  0.2926470090305411  0.3535242437546297  0.6440911805385903  1.0000
  H   H6        1.0  0.16517378741243757  0.35464145902860267  0.6450351134839258  1.0000
  H   H7        1.0  0.1674099910193837  0.8019642258633701  0.49816712423037895  1.0000
  H   H8        1.0  0.2948944578442652  0.8030817563305783  0.4991108360676322  1.0000
  C   C15       1.0  0.8403480534331863  0.1548020780832466  0.570635672941076  1.0000
  C   C16       1.0  0.85054057264108  0.23828935331708948  0.45229004893999114  1.0000
  C   C17       1.0  0.8660774326186312  0.17348191242276734  0.3374113295869421  1.0000
  C   C18       1.0  0.8736253137804246  0.023026547738876895  0.34177164499738244  1.0000
  C   C19       1.0  0.8626534070628493  0.9383694309584778  0.45778222754335507  1.0000
  C   C20       1.0  0.8445943365271513  0.0017922560728857969  0.572578747686515  1.0000
  N   N3        1.0  0.877825831783711  0.26325898221382116  0.21932619007890744  1.0000
  C   C21       1.0  0.8604647140493599  0.22230419733374715  0.09178689149304398  1.0000
  O   O1        1.0  0.8247361799713637  0.11040272770675474  0.07602122109479525  1.0000
  H   H9        1.0  0.8512428250547701  0.23143154956584433  0.8896731013772601  1.0000
  H   H10       1.0  0.8474483640256718  0.35511595970556276  0.44942672818263896  1.0000
  H   H11       1.0  0.8887076786866712  0.9705325380766474  0.25597478326520173  1.0000
  H   H12       1.0  0.8671258423274559  0.8220779227569258  0.457070238159423  1.0000
  H   H13       1.0  0.8489513848036815  0.7029743199512285  0.7872512811059577  1.0000
  H   H14       1.0  0.8958723419917356  0.3690324133906062  0.22645713074739662  1.0000
  H   H15       1.0  0.8766073207046899  0.2909182165122217  0.00738927224310615  1.0000
  C   C22       1.0  0.8424711921136078  0.5782971653605513  0.1903646970331967  1.0000
  C   C23       1.0  0.8296303867235362  0.42851022641689984  0.19925474973036983  1.0000
  C   C24       1.0  0.8232591649374115  0.35419002706289304  0.08670896019742758  1.0000
  C   C25       1.0  0.8296304182168969  0.4285103078636964  0.9641468509461012  1.0000
  C   C26       1.0  0.8424711899675565  0.5782970909177823  0.9528497159358419  1.0000
  C   C27       1.0  0.8488290120894758  0.6524604431866592  0.06660962822991578  1.0000
  Cl  Cl1       1.0  0.8072179507311351  0.16707055612524635  0.09931829074233112  1.0000
  H   H16       1.0  0.8473085026330835  0.6347193199406017  0.5143189067127407  1.0000
  H   H17       1.0  0.8245233080145904  0.368936462969034  0.2933157610044255  1.0000
  H   H18       1.0  0.8245233564794536  0.3689364423905898  0.8781147948833035  1.0000
  H   H19       1.0  0.8587321954396085  0.7679806263055313  0.058825027728054875  1.0000
  H   H20       1.0  0.8473083703149721  0.634719307178504  0.6212912762021077  1.0000
  Zn  Zn1       1.0  0.7663143075756919  0.5782988462488252  0.5716090890366119  1.0000
  Zn  Zn2       1.0  0.9186214058721607  0.5782947507404259  0.5716046928471031  1.0000
  C   C28       1.0  0.8424408274343457  0.5725518924987466  0.8087105140179294  1.0000
  C   C29       1.0  0.842496558324819  0.5840435240917032  0.33450339941632734  1.0000
  C   C30       1.0  0.8437881064215866  0.8416930479577038  0.5670379763762874  1.0000
  C   C31       1.0  0.8411492186792798  0.31490063595727824  0.5761760023003069  1.0000
  O   O2        1.0  0.9003047899630577  0.5859642086877486  0.3828759818950387  1.0000
  O   O3        1.0  0.9002301538024512  0.5706270115493554  0.7603342187151707  1.0000
  O   O4        1.0  0.9013173194550171  0.7879618983578156  0.5651819381587408  1.0000
  O   O5        1.0  0.8992175723901183  0.3686293321972496  0.5780281651342465  1.0000
  O   O6        1.0  0.7857180890828043  0.7879642647949692  0.5651856167441432  1.0000
  O   O7        1.0  0.784630932113606  0.5706311106649433  0.7603378320529108  1.0000
  O   O8        1.0  0.7847055680685147  0.5859682575478034  0.3828780342343978  1.0000
  O   O9        1.0  0.7836183504410188  0.3686333707423109  0.5780303147855035  1.0000
