data_image0
_chemical_formula_structural       NC9NC5H8C9H10C8H5Zn2C4O8
_chemical_formula_sum              "N2 C35 H23 Zn2 O8"
_cell_length_a       17.807436237873137
_cell_length_b       9.272676604525724
_cell_length_c       9.275144076552241
_cell_angle_alpha    86.20425915631827
_cell_angle_beta     89.86257050345318
_cell_angle_gamma    88.94495835625186

_space_group_name_H-M_alt    "P 1"
_space_group_IT_number       1

loop_
  _space_group_symop_operation_xyz
  'x, y, z'

loop_
  _atom_site_type_symbol
  _atom_site_label
  _atom_site_symmetry_multiplicity
  _atom_site_fract_x
  _atom_site_fract_y
  _atom_site_fract_z
  _atom_site_occupancy
  N   N1        1.0  0.7084344222990783  0.5298593078011822  0.4051987126170662  1.0000
  C   C1        1.0  0.6475982726951304  0.49070986531316674  0.39279636175585586  1.0000
  C   C2        1.0  0.5719247890201253  0.4420122700925797  0.37736918417615906  1.0000
  C   C3        1.0  0.5529423603094503  0.36194279977755617  0.2604903788963563  1.0000
  C   C4        1.0  0.4794663086200894  0.31453678679542185  0.24541934977572244  1.0000
  C   C5        1.0  0.4239217012083897  0.3467808753320383  0.34718931455620017  1.0000
  C   C6        1.0  0.3458366264692989  0.29652868533820964  0.33126435122946396  1.0000
  C   C7        1.0  0.2842394211000567  0.38748689495243704  0.3604417090113088  1.0000
  C   C8        1.0  0.21061999152771183  0.33985557551705314  0.3453848991506474  1.0000
  C   C9        1.0  0.14798946988914344  0.4338043942371399  0.37497893275583194  1.0000
  N   N2        1.0  0.09764748266949709  0.5093327529161189  0.3987717017010232  1.0000
  C   C10       1.0  0.1980126592314319  0.20097945252530924  0.3011213704932876  1.0000
  C   C11       1.0  0.25875237796788314  0.11000580157415318  0.27193463541029117  1.0000
  C   C12       1.0  0.33224921886792297  0.15719759350447937  0.2867647790617269  1.0000
  C   C13       1.0  0.4435993281625639  0.42740082218624775  0.46431378559153336  1.0000
  C   C14       1.0  0.5171264570190003  0.474594298137286  0.47921115787239804  1.0000
  H   H1        1.0  0.5948759689374397  0.3364434172772419  0.18079175368776257  1.0000
  H   H2        1.0  0.465865324266484  0.2543191795608861  0.15313337545380154  1.0000
  H   H3        1.0  0.2934177419475699  0.49590658242100805  0.3929546464688304  1.0000
  H   H4        1.0  0.1413074822438237  0.16311401790793845  0.28920068028286405  1.0000
  H   H5        1.0  0.2488746907361659  0.0024875875182546227  0.23809329637904786  1.0000
  H   H6        1.0  0.3784327946364607  0.08406621220627586  0.2653110932279792  1.0000
  H   H7        1.0  0.4023856354828088  0.452311451722468  0.5454465724406641  1.0000
  H   H8        1.0  0.5312577545229669  0.5361591789076092  0.5703468639636302  1.0000
  C   C15       1.0  0.9009088330179563  0.09620702205841478  0.40017905047138425  1.0000
  C   C16       1.0  0.8713454924095916  0.16271200982451628  0.5200459936716599  1.0000
  C   C17       1.0  0.8486682626518124  0.08064281030187105  0.643322107514918  1.0000
  C   C18       1.0  0.8548232897874505  0.9296232463669261  0.6508789151152679  1.0000
  C   C19       1.0  0.8831514989704096  0.8617258535585307  0.5299218012868967  1.0000
  C   C20       1.0  0.9051802671868266  0.9429736687038601  0.4038037265514187  1.0000
  C   C21       1.0  0.8295259339652782  0.8483237482556565  0.7897634602950792  1.0000
  C   C22       1.0  0.791508776791773  0.7041324488555077  0.776039348682654  1.0000
  C   C23       1.0  0.8710664670695099  0.7078128922294548  0.83571659239121  1.0000
  H   H9        1.0  0.9165983020452738  0.3925292412393613  0.16371485438822825  1.0000
  H   H10       1.0  0.8673821289874066  0.27944257537188966  0.5199728713307383  1.0000
  H   H11       1.0  0.8267985258643978  0.13588541025879453  0.7342521652922291  1.0000
  H   H12       1.0  0.8867399472336578  0.7451457637870865  0.5312010704939212  1.0000
  H   H13       1.0  0.92319144478817  0.8627034793464807  0.05056106274898563  1.0000
  H   H14       1.0  0.8086457087611794  0.9101919573599011  0.8808648677111344  1.0000
  H   H15       1.0  0.787563735198092  0.6643103888151397  0.6662168917706082  1.0000
  H   H16       1.0  0.7483310049380458  0.6782174862582574  0.8599104202659442  1.0000
  H   H17       1.0  0.9154259501731054  0.6700998182797558  0.7622303565025674  1.0000
  H   H18       1.0  0.874384485104798  0.6840431487942233  0.954485214437209  1.0000
  C   C24       1.0  0.901260649877208  0.5167333066720774  0.9787224617401797  1.0000
  C   C25       1.0  0.852768057934485  0.6133435985488838  0.045907258719069866  1.0000
  C   C26       1.0  0.8103377553168947  0.7167796202980534  0.9641142339725821  1.0000
  C   C27       1.0  0.8156337929785346  0.7257161486407031  0.813636509014904  1.0000
  C   C28       1.0  0.8625667031114383  0.6290823527743419  0.744721172486353  1.0000
  C   C29       1.0  0.9048284255102365  0.522447438695536  0.825260343599874  1.0000
  C   C30       1.0  0.772132688712412  0.8331730463639988  0.7295085472389136  1.0000
  C   C31       1.0  0.7357136876002669  0.9231396375571628  0.6590575412975558  1.0000
  H   H19       1.0  0.0564337170236544  0.3192342591859365  0.0939382371168469  1.0000
  H   H20       1.0  0.848999196096574  0.6111180409053825  0.162629039814437  1.0000
  H   H21       1.0  0.7739059747061477  0.7908095048812118  0.01846880097696557  1.0000
  H   H22       1.0  0.8647500391323549  0.6349598374206065  0.6276266528842326  1.0000
  H   H23       1.0  0.7037453620468878  0.0021111229244890136  0.5972147049563262  1.0000
  Zn  Zn1       1.0  0.8207529185903921  0.5239319966289138  0.40335233561336276  1.0000
  Zn  Zn2       1.0  0.9853289588373964  0.5152483914938473  0.4006298780201134  1.0000
  C   C32       1.0  0.904123388791905  0.5156236780326422  0.6652219618913279  1.0000
  C   C33       1.0  0.9019602955739159  0.5235584353861722  0.1387603712709522  1.0000
  C   C34       1.0  0.9043447814088439  0.7828781945986516  0.397374881818993  1.0000
  C   C35       1.0  0.9017388383845816  0.2563021900822673  0.4066075217030489  1.0000
  O   O1        1.0  0.9646508209104326  0.5225473380335097  0.1914373702804894  1.0000
  O   O2        1.0  0.9663422627371951  0.510043029541841  0.6104782609865076  1.0000
  O   O3        1.0  0.966520204458414  0.7258544861033502  0.3941898691104433  1.0000
  O   O4        1.0  0.9644728226271072  0.3067358940194751  0.40772565505672587  1.0000
  O   O5        1.0  0.8416089986389318  0.7324444970680926  0.39625655949821653  1.0000
  O   O6        1.0  0.8414310653283581  0.5166347722092848  0.6125448819359858  1.0000
  O   O7        1.0  0.8397396159945116  0.5291390187586422  0.19350225806638496  1.0000
  O   O8        1.0  0.839561618111543  0.3133275651619398  0.409790650863916  1.0000
