data_image0
_chemical_formula_structural       NC9NC3NH7C6NO2H5C9H10Zn2C4O8
_chemical_formula_sum              "N4 C31 H22 O10 Zn2"
_cell_length_a       16.053384444249904
_cell_length_b       9.273392599741053
_cell_length_c       9.27267997650553
_cell_angle_alpha    86.14793757912345
_cell_angle_beta     90.20084585415952
_cell_angle_gamma    88.5803697124526

_space_group_name_H-M_alt    "P 1"
_space_group_IT_number       1

loop_
  _space_group_symop_operation_xyz
  'x, y, z'

loop_
  _atom_site_type_symbol
  _atom_site_label
  _atom_site_symmetry_multiplicity
  _atom_site_fract_x
  _atom_site_fract_y
  _atom_site_fract_z
  _atom_site_occupancy
  N   N1        1.0  0.7688336708131014  0.5467366149584187  0.4098923524468163  1.0000
  C   C1        1.0  0.7178933429415518  0.5229590940233788  0.32675477672425535  1.0000
  C   C2        1.0  0.6545885671437781  0.49341544278425337  0.22347762729053786  1.0000
  C   C3        1.0  0.6677207017077187  0.47884593659245017  0.07832375489835419  1.0000
  C   C4        1.0  0.5910390391711812  0.45025299574966327  0.020256518503215082  1.0000
  C   C5        1.0  0.5343964454463072  0.44896873528860737  0.1331156836288332  1.0000
  C   C6        1.0  0.4438582129012359  0.42241921854095443  0.12168315145485287  1.0000
  C   C7        1.0  0.38808423796107383  0.47069065945632643  0.2260311695321113  1.0000
  C   C8        1.0  0.3026435938673896  0.44551006705602814  0.2150815070490153  1.0000
  C   C9        1.0  0.24608819743316981  0.49574051279872905  0.32206676721373007  1.0000
  N   N2        1.0  0.20063429815704392  0.5361186946052041  0.4080661637467342  1.0000
  C   C10       1.0  0.2722516993307625  0.3719337711600863  0.09979877440099005  1.0000
  C   C11       1.0  0.3270172419368353  0.323797057914442  0.9956860161590909  1.0000
  C   C12       1.0  0.4122513077178279  0.34879007207274987  0.006195037105878762  1.0000
  N   N3        1.0  0.5739147079689633  0.4754696444225969  0.25700656494968976  1.0000
  H   H1        1.0  0.726174440630755  0.4879813178036483  0.021046671967074323  1.0000
  H   H2        1.0  0.5784327061697121  0.43406107060364846  0.9079101395489205  1.0000
  H   H3        1.0  0.41039805833201926  0.5296626131121924  0.31474113279052607  1.0000
  H   H4        1.0  0.20631251920916172  0.3519032325672662  0.09039440930838794  1.0000
  H   H5        1.0  0.3034011489571872  0.2666465855021889  0.9067204377396098  1.0000
  H   H6        1.0  0.4532895604465805  0.30877438385903594  0.9247980248549461  1.0000
  H   H7        1.0  0.5481361993301909  0.4789186481094867  0.35998266920888944  1.0000
  C   C13       1.0  0.9872742883750222  0.11782924918654979  0.4080619223521291  1.0000
  C   C14       1.0  0.9761448378181804  0.2003779951380482  0.2764133166911822  1.0000
  C   C15       1.0  0.95768134446196  0.13470380402496063  0.14957438582409543  1.0000
  C   C16       1.0  0.9497386855663401  0.98449314785506  0.1508464476332192  1.0000
  C   C17       1.0  0.9621638364342073  0.900735994375708  0.28148424298658403  1.0000
  C   C18       1.0  0.9822017521853839  0.9650148711074019  0.4099089511854601  1.0000
  N   N4        1.0  0.9299620274894699  0.9173994332583091  0.019785706069252784  1.0000
  O   O1        1.0  0.9185249869538376  0.9997375946805394  0.8918423022028018  1.0000
  O   O2        1.0  0.9226258232858571  0.7836484504085509  0.02004689199927756  1.0000
  H   H8        1.0  0.9717014145477768  0.1975710921515108  0.7619663051256667  1.0000
  H   H9        1.0  0.9797704232073349  0.31709656592444424  0.2721385240147036  1.0000
  H   H10       1.0  0.9487773114948639  0.20203388260820998  0.05052601629463326  1.0000
  H   H11       1.0  0.9581434740858311  0.7842410539728891  0.282527476016456  1.0000
  H   H12       1.0  0.9745588125109684  0.6690633747183784  0.6490797530223842  1.0000
  C   C19       1.0  0.9830691626158595  0.5380573799635248  0.9856224984276478  1.0000
  C   C20       1.0  0.0402246206235084  0.44743670035034744  0.06545470996146485  1.0000
  C   C21       1.0  0.10141306726992916  0.36840436102847574  0.9964278223715315  1.0000
  C   C22       1.0  0.10751473693886027  0.3773922090987297  0.8455594601754908  1.0000
  C   C23       1.0  0.04937092296710822  0.46607975068838553  0.764342933257407  1.0000
  C   C24       1.0  0.9864068638004474  0.5447867959616997  0.8323484575388145  1.0000
  C   C25       1.0  0.17652877101150488  0.28881363648425484  0.7789320843606546  1.0000
  C   C26       1.0  0.15708509826156059  0.22328699540247632  0.6367721916590776  1.0000
  C   C27       1.0  0.21491441951476742  0.3510067050935909  0.6389874766823982  1.0000
  H   H13       1.0  0.8570348187915912  0.6386718055908989  0.25931659665700857  1.0000
  H   H14       1.0  0.03894920912694766  0.44019284439580764  0.18251902608838977  1.0000
  H   H15       1.0  0.14494415059595012  0.3006809238896633  0.06173246458043735  1.0000
  H   H16       1.0  0.05119730372680519  0.47226982476496326  0.6475697433189658  1.0000
  H   H17       1.0  0.7964394003613359  0.6851414981900759  0.7187415983280308  1.0000
  H   H18       1.0  0.22046303873926523  0.2228523319398446  0.8507927110239506  1.0000
  H   H19       1.0  0.0950507446990745  0.24942474514930052  0.5874059971215226  1.0000
  H   H20       1.0  0.1900688527965504  0.11864454525850034  0.622114912009724  1.0000
  H   H21       1.0  0.1880486559290777  0.45466012268728545  0.5908499367673423  1.0000
  H   H22       1.0  0.2817066690186003  0.3210011408689703  0.6256210433098373  1.0000
  Zn  Zn1       1.0  0.8934420580106365  0.5436687315631561  0.4093736633524825  1.0000
  Zn  Zn2       1.0  0.07602600431244455  0.5391749196647428  0.4085966102439329  1.0000
  C   C28       1.0  0.9858085242188876  0.5377682537075401  0.6722865574152244  1.0000
  C   C29       1.0  0.9836615215753224  0.5450771696386492  0.14568385316624322  1.0000
  C   C30       1.0  0.9831336327717438  0.8048332289510762  0.40381483610165225  1.0000
  C   C31       1.0  0.9863363613991393  0.2780104634625711  0.414155647829233  1.0000
  O   O3        1.0  0.05315001641082473  0.5457214038683871  0.19910700466956  1.0000
  O   O4        1.0  0.054897024801249465  0.5337122287199096  0.6182732231980592  1.0000
  O   O5        1.0  0.05273608798057226  0.7493706086299489  0.40148041600075146  1.0000
  O   O6        1.0  0.05531089044007631  0.33006303495161604  0.4158997040575436  1.0000
  O   O7        1.0  0.9141571095760251  0.752780617811311  0.4020705697964617  1.0000
  O   O8        1.0  0.9163180357130499  0.5371239703688415  0.6188633039019427  1.0000
  O   O9        1.0  0.9145710208463828  0.549133081472996  0.19969535193092525  1.0000
  O   O10       1.0  0.9167318953600808  0.33347470309798477  0.4164881593858236  1.0000
