data_image0
_chemical_formula_structural       NC9NC4H8C7F3H5C8H6Zn2C4O8
_chemical_formula_sum              "N2 C32 H19 F3 Zn2 O8"
_cell_length_a       16.32274767691083
_cell_length_b       9.272718291674593
_cell_length_c       9.275144076552241
_cell_angle_alpha    86.39339924805473
_cell_angle_beta     89.93057160658579
_cell_angle_gamma    89.10298441660798

_space_group_name_H-M_alt    "P 1"
_space_group_IT_number       1

loop_
  _space_group_symop_operation_xyz
  'x, y, z'

loop_
  _atom_site_type_symbol
  _atom_site_label
  _atom_site_symmetry_multiplicity
  _atom_site_fract_x
  _atom_site_fract_y
  _atom_site_fract_z
  _atom_site_occupancy
  N   N1        1.0  0.7576716616632259  0.5566505767320646  0.410198445070376  1.0000
  C   C1        1.0  0.7052920253469883  0.5035619705690516  0.3495388651620024  1.0000
  C   C2        1.0  0.6401836283275072  0.43762550830983865  0.27419918194785775  1.0000
  C   C3        1.0  0.6516614565767728  0.34743616132068655  0.17114313859557198  1.0000
  C   C4        1.0  0.5722592977027345  0.3034233089580247  0.12085518904786195  1.0000
  C   C5        1.0  0.5133797985791644  0.3678351613126641  0.19445876335210022  1.0000
  C   C6        1.0  0.4234281835963623  0.3508117148005284  0.1750099163823733  1.0000
  C   C7        1.0  0.3678946155313523  0.4258878318132038  0.26079142985284776  1.0000
  C   C8        1.0  0.2831740238616792  0.4113387742764224  0.24416921470375952  1.0000
  C   C9        1.0  0.2272304433700523  0.48872286330417075  0.33258695773956015  1.0000
  N   N2        1.0  0.1822707335982906  0.5509269341055248  0.4036598506936284  1.0000
  C   C10       1.0  0.2529338642516423  0.32159218339578644  0.14162744715342557  1.0000
  C   C11       1.0  0.3071455982368838  0.24661551280799454  0.055959936356319684  1.0000
  C   C12       1.0  0.3917070677769875  0.26077268477863624  0.07213425204256052  1.0000
  C   C13       1.0  0.5512118419533584  0.46175470728243084  0.30177428428394437  1.0000
  H   H1        1.0  0.7105398513469143  0.31236575986364806  0.13106699709963412  1.0000
  H   H2        1.0  0.5639028435522657  0.2297116666501624  0.03662740822795297  1.0000
  H   H3        1.0  0.3900651461065303  0.4959501765147166  0.3408426845775012  1.0000
  H   H4        1.0  0.1875321744932237  0.30960677577174  0.12793443891281076  1.0000
  H   H5        1.0  0.2835795488251662  0.17718815899616014  0.9766344874760007  1.0000
  H   H6        1.0  0.43143859068091367  0.20079617757020274  0.003606195493815361  1.0000
  H   H7        1.0  0.5351078093809686  0.4239585634328076  0.4141370754700806  1.0000
  H   H8        1.0  0.5338376700215948  0.5771249804395628  0.2780526505055756  1.0000
  C   C14       1.0  0.9717449310723637  0.1303598063983238  0.40371762813947165  1.0000
  C   C15       1.0  0.9213527698811622  0.21165299176676955  0.30487664767999045  1.0000
  C   C16       1.0  0.8652150482123141  0.14425909365006873  0.2174977670299869  1.0000
  C   C17       1.0  0.861627458541706  0.9930778933728208  0.22598032973984616  1.0000
  C   C18       1.0  0.912066735244416  0.9108031287643524  0.3217014054490004  1.0000
  C   C19       1.0  0.9682054040147977  0.9772065396857317  0.4101529797354675  1.0000
  C   C20       1.0  0.8132911141463627  0.23310593287124218  0.10950997492339433  1.0000
  F   F1        1.0  0.7924762817372917  0.3651732119510196  0.16221790332603692  1.0000
  F   F2        1.0  0.7416376333842462  0.16246016534432323  0.08049745963315469  1.0000
  F   F3        1.0  0.8569159604029406  0.25641435473233276  0.9825720733918537  1.0000
  H   H9        1.0  0.0704333679565301  0.20990466087253926  0.7132844229619719  1.0000
  H   H10       1.0  0.9245926441740847  0.3285310891623412  0.29811776903537734  1.0000
  H   H11       1.0  0.8203621442521027  0.9380553468017676  0.15729896908228036  1.0000
  H   H12       1.0  0.9087316549427699  0.7940926003955356  0.32369217434180353  1.0000
  H   H13       1.0  0.1448712048695624  0.8601282387713645  0.5809251776368953  1.0000
  C   C21       1.0  0.9680576699033516  0.5508585704221365  0.9836570765167867  1.0000
  C   C22       1.0  0.9142458085253785  0.645615409442398  0.05116802073263815  1.0000
  C   C23       1.0  0.8669782297608037  0.7474278487813903  0.9697231262481397  1.0000
  C   C24       1.0  0.8726665532129101  0.7565649035693724  0.8192744774125036  1.0000
  C   C25       1.0  0.9247779551738032  0.6617252518930223  0.7500330898574186  1.0000
  C   C26       1.0  0.9718926797212507  0.5567078206399521  0.8302135297583111  1.0000
  C   C27       1.0  0.8241924416365068  0.8623571078077463  0.7355081141537806  1.0000
  C   C28       1.0  0.7836100143690805  0.950930021949598  0.6653598506823886  1.0000
  H   H14       1.0  0.1391712474078215  0.35927959018008826  0.09819985318670588  1.0000
  H   H15       1.0  0.9101577620564024  0.6432467474891668  0.16788283438966523  1.0000
  H   H16       1.0  0.8265361421700788  0.8200651203040273  0.024327529969331522  1.0000
  H   H17       1.0  0.9271017819229799  0.6676851919337035  0.632957838602858  1.0000
  H   H18       1.0  0.08534653665500475  0.42316366349723444  0.5576574872033575  1.0000
  H   H19       1.0  0.7479870695779149  0.02867814812208147  0.6037827577054973  1.0000
  Zn  Zn1       1.0  0.8802018420708323  0.5549950446315881  0.40831984274163524  1.0000
  Zn  Zn2       1.0  0.0597406623111596  0.5525707154992789  0.4055501714450114  1.0000
  C   C29       1.0  0.9711899602954319  0.5498579127863179  0.670152573077192  1.0000
  C   C30       1.0  0.9687544976816159  0.5577096411863174  0.1437175661640897  1.0000
  C   C31       1.0  0.9688442236955608  0.8170948558725587  0.4031927082380904  1.0000
  C   C32       1.0  0.9711001806063015  0.29047096707478115  0.41067749563104816  1.0000
  O   O1        1.0  0.03712243234880641  0.5590826122503698  0.19638420503442358  1.0000
  O   O2        1.0  0.03908783861195064  0.5466438413660215  0.6153833945837925  1.0000
  O   O3        1.0  0.03719271495177767  0.7624410753385653  0.3998114405033457  1.0000
  O   O4        1.0  0.0390174942118342  0.3432853886731598  0.4119560520630168  1.0000
  O   O5        1.0  0.9009249489023292  0.764280372286529  0.4019139630612132  1.0000
  O   O6        1.0  0.9028200649698582  0.5484848701681031  0.6174858534513863  1.0000
  O   O7        1.0  0.9008546511205718  0.5609235788306881  0.19848493053363536  1.0000
  O   O8        1.0  0.9027497135129158  0.34512634568696643  0.41405688555166575  1.0000
