data_image0
_chemical_formula_structural       NC8NC6H8C13OH12C12ClH9Zn2C4O8
_chemical_formula_sum              "N2 C43 H29 O9 Cl1 Zn2"
_cell_length_a       17.457602349358154
_cell_length_b       10.299150109392551
_cell_length_c       10.299771906710085
_cell_angle_alpha    85.52403423523229
_cell_angle_beta     92.88560136090982
_cell_angle_gamma    91.67070309183428

_space_group_name_H-M_alt    "P 1"
_space_group_IT_number       1

loop_
  _space_group_symop_operation_xyz
  'x, y, z'

loop_
  _atom_site_type_symbol
  _atom_site_label
  _atom_site_symmetry_multiplicity
  _atom_site_fract_x
  _atom_site_fract_y
  _atom_site_fract_z
  _atom_site_occupancy
  N   N1        1.0  0.7220178322479939  0.4533090227027283  0.6259421256090675  1.0000
  C   C1        1.0  0.6609475918680696  0.4073836949633995  0.6153436875840467  1.0000
  C   C2        1.0  0.5849736296329474  0.3502582993743885  0.6021687705711946  1.0000
  C   C3        1.0  0.5264445612623304  0.39040209172851886  0.6770519806536655  1.0000
  C   C4        1.0  0.4519083389205121  0.33539492945292926  0.6644907056183738  1.0000
  C   C5        1.0  0.3897883725261331  0.37778079576464413  0.7437949135996698  1.0000
  C   C6        1.0  0.3152328625940033  0.39626585764195843  0.6880238591889685  1.0000
  C   C7        1.0  0.2567038366074411  0.43622568243346516  0.7630150936695846  1.0000
  C   C8        1.0  0.1807098441525919  0.45531725077285934  0.7050283269761697  1.0000
  N   N2        1.0  0.1196235919505993  0.47066049155525275  0.6584071200198336  1.0000
  C   C9        1.0  0.2722381604666788  0.4579434622258712  0.8942858131110634  1.0000
  C   C10       1.0  0.3460089297579325  0.43984730558296253  0.950444322164849  1.0000
  C   C11       1.0  0.40452636053887414  0.40006742037818666  0.8759107453341706  1.0000
  C   C12       1.0  0.437189821946998  0.2395669070070354  0.5756135431761513  1.0000
  C   C13       1.0  0.49570715764935813  0.19970170243770474  0.5011302348322451  1.0000
  C   C14       1.0  0.5694586457198073  0.25482109556432636  0.5142414225453062  1.0000
  H   H1        1.0  0.5387807254882969  0.4655829777810597  0.7436548755783353  1.0000
  H   H2        1.0  0.3028809240496749  0.38132282701783377  0.5860040400311475  1.0000
  H   H3        1.0  0.2273769696094236  0.4888119981739849  0.9531105357220626  1.0000
  H   H4        1.0  0.35784682609415924  0.4563482034226525  0.05209028724799614  1.0000
  H   H5        1.0  0.4610192363236368  0.3850618522141171  0.922023330499969  1.0000
  H   H6        1.0  0.3807127442984687  0.19423129657922988  0.5649787646082762  1.0000
  H   H7        1.0  0.4838844766477463  0.12563768380778256  0.4333285840583495  1.0000
  H   H8        1.0  0.6143200944063716  0.223082662413832  0.4559281592790561  1.0000
  C   C15       1.0  0.9208967018899147  0.08058837124166662  0.6423249536034419  1.0000
  C   C16       1.0  0.9194966083874815  0.06868332198244187  0.7790209941665458  1.0000
  C   C17       1.0  0.9187199506134034  0.945509771689502  0.8480596418028841  1.0000
  C   C18       1.0  0.9193486547293709  0.833421626194961  0.7786455195649744  1.0000
  C   C19       1.0  0.9207520576701798  0.8433713885754914  0.6420361479595249  1.0000
  C   C20       1.0  0.9215199899511549  0.9674146780995585  0.5746743718581253  1.0000
  C   C21       1.0  0.9172321125404205  0.9338970637198301  0.9925778844940277  1.0000
  C   C22       1.0  0.8700629110444317  0.838938595120118  0.056747689239148094  1.0000
  C   C23       1.0  0.868637439081567  0.828091348599182  0.19273713578282084  1.0000
  C   C24       1.0  0.9148586027332289  0.9110640524933935  0.26705625178930403  1.0000
  C   C25       1.0  0.9612938628023756  0.006943939833954363  0.20346908970416347  1.0000
  C   C26       1.0  0.9627371436983208  0.017967760648759164  0.06748080856896321  1.0000
  C   C27       1.0  0.9117136554863801  0.9016918882947844  0.41288533986158454  1.0000
  O   O1        1.0  0.8543752591359418  0.9823533633882123  0.44844413836811764  1.0000
  H   H9        1.0  0.9230410061327173  0.31033079383423917  0.3842640732433989  1.0000
  H   H10       1.0  0.9179433027297184  0.15537217631749908  0.8319025992808224  1.0000
  H   H11       1.0  0.9197914409059484  0.7383016659880852  0.8315150458137747  1.0000
  H   H12       1.0  0.9226003057111811  0.9758053413734551  0.46930329860422343  1.0000
  H   H13       1.0  0.9212402173131515  0.5197206946589374  0.5894871761514846  1.0000
  H   H14       1.0  0.8333675079399985  0.7743452010708479  0.0016429119875329737  1.0000
  H   H15       1.0  0.8313214917117302  0.7551171942570261  0.24006566910054006  1.0000
  H   H16       1.0  0.9965761510850152  0.07302839793966796  0.25920468815630326  1.0000
  H   H17       1.0  7.887372580106499e-05  0.09138821580056322  0.020961021523064893  1.0000
  H   H18       1.0  0.9681508774108201  0.9319711639929268  0.45766340500066466  1.0000
  H   H19       1.0  0.89924938635602  0.7991145872284988  0.44968009712486295  1.0000
  H   H20       1.0  0.8546686695811716  0.9726580912599495  0.545094515736742  1.0000
  C   C28       1.0  0.9207878433530029  0.46208463512765974  0.2608082497877646  1.0000
  C   C29       1.0  0.9903627639318986  0.5340095030577927  0.2601364175038552  1.0000
  C   C30       1.0  0.025654375024606983  0.570347883342031  0.1426687534656015  1.0000
  C   C31       1.0  0.9904368126625177  0.5337975545832081  0.024872765544222682  1.0000
  C   C32       1.0  0.9208609051732909  0.4618752036858378  0.023552860355313017  1.0000
  C   C33       1.0  0.8864263957634514  0.4264206939413193  0.1420203280609904  1.0000
  C   C34       1.0  0.09925934933232661  0.6464370224674841  0.14301180052321127  1.0000
  C   C35       1.0  0.11136527769181526  0.7499789553806113  0.22376495552761133  1.0000
  C   C36       1.0  0.18067859270498565  0.821496755533803  0.2239033304324518  1.0000
  C   C37       1.0  0.23867243459550846  0.7905540220764452  0.1436626877976861  1.0000
  C   C38       1.0  0.22729876899280632  0.6879035827441558  0.06309780595951975  1.0000
  C   C39       1.0  0.15805425892849279  0.6161884468542749  0.06258949058688203  1.0000
  Cl  Cl1       1.0  0.3255904427493608  0.8804044499153327  0.14406879119092822  1.0000
  H   H21       1.0  0.8942560627694056  0.4347340852492298  0.5885115154168623  1.0000
  H   H22       1.0  0.01780720428634397  0.5604087661719864  0.3513489422692213  1.0000
  H   H23       1.0  0.016870091251755207  0.56309451193869  0.9339112881051578  1.0000
  H   H24       1.0  0.8327520806913672  0.37093506878884147  0.14177037475494436  1.0000
  H   H25       1.0  0.894363913830754  0.43442419423041784  0.6956012510667531  1.0000
  H   H26       1.0  0.06688339073819209  0.7766932721656138  0.28549648611490297  1.0000
  H   H27       1.0  0.18914674100650442  0.9011468052294711  0.2861995910055979  1.0000
  H   H28       1.0  0.2721303651465824  0.6633518514846306  0.0010504746312327584  1.0000
  H   H29       1.0  0.15085961757794888  0.5360536502136743  0.0006169446714379167  1.0000
  Zn  Zn1       1.0  0.8367582671521505  0.4583127967873665  0.6353183215672413  1.0000
  Zn  Zn2       1.0  0.004883145834410737  0.4656460659599574  0.6490415607153066  1.0000
  C   C40       1.0  0.920846371713179  0.4567406376154208  0.8793795903519388  1.0000
  C   C41       1.0  0.9207968768932905  0.46721994391418264  0.40498056863502363  1.0000
  C   C42       1.0  0.9207749530921643  0.6991904491355021  0.6369151800780908  1.0000
  C   C43       1.0  0.920868238447567  0.22476856945721524  0.6474450440561846  1.0000
  O   O2        1.0  0.9846024249761424  0.4717206717363145  0.458574015753481  1.0000
  O   O3        1.0  0.9846437165552572  0.4578047117242219  0.8362013907343802  1.0000
  O   O4        1.0  0.9845851851565216  0.6535859628368751  0.6404095932449985  1.0000
  O   O5        1.0  0.9846608989941549  0.2759394274389493  0.6543657111810033  1.0000
  O   O6        1.0  0.8569804566196355  0.6480194328073061  0.6299941664116451  1.0000
  O   O7        1.0  0.8570389877123386  0.4522397421304691  0.8257858940638139  1.0000
  O   O8        1.0  0.8569976960432466  0.4661556573143361  0.4481569576897145  1.0000
  O   O9        1.0  0.8570561700692115  0.2703744037006144  0.6439487504891963  1.0000
