data_image0
_chemical_formula_structural       NC9NC5H8C6ClH5C9H8Zn2C4O8
_chemical_formula_sum              "N2 C33 H21 Cl1 Zn2 O8"
_cell_length_a       17.807436237873137
_cell_length_b       10.30297070629231
_cell_length_c       9.275155815604963
_cell_angle_alpha    86.05280978821669
_cell_angle_beta     89.76311116066847
_cell_angle_gamma    88.39001192287226

_space_group_name_H-M_alt    "P 1"
_space_group_IT_number       1

loop_
  _space_group_symop_operation_xyz
  'x, y, z'

loop_
  _atom_site_type_symbol
  _atom_site_label
  _atom_site_symmetry_multiplicity
  _atom_site_fract_x
  _atom_site_fract_y
  _atom_site_fract_z
  _atom_site_occupancy
  N   N1        1.0  0.7022043340683217  0.37515204983989986  0.3988311536478777  1.0000
  C   C1        1.0  0.6415770293199697  0.3398806907398038  0.38659776759042663  1.0000
  C   C2        1.0  0.5661633256643465  0.2960070041608329  0.37138076362191635  1.0000
  C   C3        1.0  0.5476930133084457  0.2237299486424364  0.2548578781601711  1.0000
  C   C4        1.0  0.47446990085613744  0.18101982154437476  0.23999145431548152  1.0000
  C   C5        1.0  0.4186682652137932  0.21020906770434997  0.3416119037570193  1.0000
  C   C6        1.0  0.3408512684850962  0.16493477405741563  0.32590382410521435  1.0000
  C   C7        1.0  0.2787685051518837  0.24688335450616636  0.3546885750257402  1.0000
  C   C8        1.0  0.20540313724046322  0.20397036960993195  0.33983733316022646  1.0000
  C   C9        1.0  0.1422715969218681  0.28861250707135944  0.3690259127721196  1.0000
  N   N2        1.0  0.09152682417795509  0.3566589389221484  0.3924927245853992  1.0000
  C   C10       1.0  0.1935368963743558  0.07885069328021065  0.29617320932138513  1.0000
  C   C11       1.0  0.25476225961284  0.9968881942693706  0.26737914825010356  1.0000
  C   C12       1.0  0.3280074647215686  0.03940505764821056  0.28200563074643314  1.0000
  C   C13       1.0  0.43783077307579576  0.28298217878060833  0.4583780711162202  1.0000
  C   C14       1.0  0.5111061952227025  0.325500660771896  0.47307176743186247  1.0000
  H   H1        1.0  0.589829158364324  0.200647598459809  0.17527740459818175  1.0000
  H   H2        1.0  0.4612581345963016  0.12665596471130258  0.14797365144650754  1.0000
  H   H3        1.0  0.287370158200736  0.34456036658631795  0.38673379209662384  1.0000
  H   H4        1.0  0.13703364508399013  0.04473626408485076  0.2844159338050454  1.0000
  H   H5        1.0  0.24545793000468635  0.9000209030154195  0.23400182145630222  1.0000
  H   H6        1.0  0.3745795722289042  0.9735205642382253  0.2608673783064343  1.0000
  H   H7        1.0  0.3964161797046686  0.3055365611549814  0.5393950640432333  1.0000
  H   H8        1.0  0.5248425520406559  0.38107593439640003  0.5639336657218972  1.0000
  C   C15       1.0  0.8968691747771902  0.984657939452315  0.39566812082119873  1.0000
  C   C16       1.0  0.9745307932247474  0.9780411818064165  0.4221637553973465  1.0000
  C   C17       1.0  0.013064415149488317  0.8578012785908798  0.43531008135526084  1.0000
  C   C18       1.0  0.9745307924045686  0.7429332126498042  0.42216368762886924  1.0000
  C   C19       1.0  0.896869183062665  0.7471428815112687  0.39566820318956974  1.0000
  C   C20       1.0  0.8584169390590103  0.8685806759275438  0.38254950851640274  1.0000
  Cl  Cl1       1.0  0.11008227961483082  0.8510388879952122  0.468409342310162  1.0000
  H   H9        1.0  0.8676154006783465  0.31445346836061344  0.3856868724769966  1.0000
  H   H10       1.0  0.005418705878120549  0.06593480005298467  0.4327015894603312  1.0000
  H   H11       1.0  0.005418675833081649  0.6507336078489966  0.4327014864015264  1.0000
  H   H12       1.0  0.7985219420149181  0.8727553927409231  0.36211523464231177  1.0000
  H   H13       1.0  0.8676153978997708  0.4214255039266878  0.3856871446314132  1.0000
  C   C21       1.0  0.8954927577121965  0.36268416657952984  0.9724593100235057  1.0000
  C   C22       1.0  0.83672461231626  0.42873570230525065  0.041230960116755755  1.0000
  C   C23       1.0  0.7829882364594287  0.5031765672531483  0.9608210503206251  1.0000
  C   C24       1.0  0.7870234647913964  0.5131185862546603  0.8101735574999775  1.0000
  C   C25       1.0  0.8442798738759163  0.44644132238734535  0.7397181544794877  1.0000
  C   C26       1.0  0.8982456004732841  0.3691165783340486  0.818876918022752  1.0000
  C   C27       1.0  0.7317685601950067  0.5906647089503039  0.7274757518866054  1.0000
  C   C28       1.0  0.6855025316391915  0.6555988823638383  0.6582009442792354  1.0000
  C   C29       1.0  0.6293670254604828  0.7343854990877097  0.5741361936197484  1.0000
  H   H14       1.0  0.069860688488256  0.24965507521933672  0.08257835053010741  1.0000
  H   H15       1.0  0.833349564923236  0.4252971892009531  0.1580774456917029  1.0000
  H   H16       1.0  0.7386568102829754  0.5540791780854586  0.016355821682394023  1.0000
  H   H17       1.0  0.8456678930589033  0.45248026526645235  0.6225492610983507  1.0000
  H   H18       1.0  0.014590701358123464  0.2884062711844747  0.5434003671578198  1.0000
  H   H19       1.0  0.6446326351315291  0.7373905452336873  0.4578886734869694  1.0000
  H   H20       1.0  0.5734167988237167  0.6908119184991637  0.5900733728389923  1.0000
  H   H21       1.0  0.627465823849736  0.83472340023041  0.6106718766771562  1.0000
  Zn  Zn1       1.0  0.814554420800051  0.36981193666117534  0.39701035473786206  1.0000
  Zn  Zn2       1.0  0.9791767577825227  0.361988559338537  0.3943253714360126  1.0000
  C   C30       1.0  0.8977235895556481  0.36272879520152407  0.6588859282821544  1.0000
  C   C31       1.0  0.8960093871578271  0.3690732545397774  0.13244991002262174  1.0000
  C   C32       1.0  0.896846649396982  0.6029735062322896  0.3899252693087122  1.0000
  C   C33       1.0  0.896886271392242  0.12882698695690253  0.4014106467469866  1.0000
  O   O1        1.0  0.9586560916673995  0.36824289596542736  0.18512527974413845  1.0000
  O   O2        1.0  0.9600214283648753  0.3576204088453952  0.6041723035001683  1.0000
  O   O3        1.0  0.9593124507998759  0.5516211027226614  0.3869846821738414  1.0000
  O   O4        1.0  0.9593650127065041  0.17424221322381553  0.40231279392904407  1.0000
  O   O5        1.0  0.8343661096985205  0.5575582854469869  0.3890229331535031  1.0000
  O   O6        1.0  0.8350750870102226  0.3635591507929202  0.6062104776375801  1.0000
  O   O7        1.0  0.8337097447273325  0.3741815795011574  0.1871617211790748  1.0000
  O   O8        1.0  0.8344186661147829  0.1801808882949809  0.404349343414075  1.0000
