data_image0
_chemical_formula_structural       NC5NC4H6C10H6C6FH3Zn2C4O8
_chemical_formula_sum              "N2 C29 H15 F1 Zn2 O8"
_cell_length_a       13.854160002989762
_cell_length_b       9.275150299802176
_cell_length_c       9.275646106892308
_cell_angle_alpha    84.62811981021342
_cell_angle_beta     90.02253834339291
_cell_angle_gamma    89.48388968248379

_space_group_name_H-M_alt    "P 1"
_space_group_IT_number       1

loop_
  _space_group_symop_operation_xyz
  'x, y, z'

loop_
  _atom_site_type_symbol
  _atom_site_label
  _atom_site_symmetry_multiplicity
  _atom_site_fract_x
  _atom_site_fract_y
  _atom_site_fract_z
  _atom_site_occupancy
  N   N1        1.0  0.8988616561329971  0.5961261329939269  0.39889622129007285  1.0000
  C   C1        1.0  0.8263574473055658  0.6219809640835483  0.3396312241114192  1.0000
  C   C2        1.0  0.7361611884241265  0.6541450822581747  0.2659032999816775  1.0000
  C   C3        1.0  0.6487914383659342  0.6238814648921744  0.33788558481833997  1.0000
  C   C4        1.0  0.5610187759587947  0.6541450968421834  0.26590327669812597  1.0000
  C   C5        1.0  0.4712493068603253  0.6219808157114375  0.3396313166865983  1.0000
  N   N2        1.0  0.3990880859183522  0.5961260694655681  0.3988962215636637  1.0000
  C   C6        1.0  0.5606448445893684  0.715278842062262  0.12195426138501818  1.0000
  C   C7        1.0  0.6479688517814217  0.7476947831793501  0.049856202326055366  1.0000
  C   C8        1.0  0.6475570484839015  0.8091923899847335  0.8944021248313185  1.0000
  C   C9        1.0  0.7357219336034195  0.7152788416996403  0.12195417099884165  1.0000
  H   H1        1.0  0.6491068303539186  0.5764537813618085  0.44930011076023035  1.0000
  H   H2        1.0  0.49262213685486145  0.7376702582043146  0.0661098597627372  1.0000
  H   H3        1.0  0.71199215812984  0.877641575384088  0.8701982351515148  1.0000
  H   H4        1.0  0.5822836804811904  0.877641576567366  0.8701983003089455  1.0000
  H   H5        1.0  0.6480799393577736  0.7193854814344127  0.823270185814489  1.0000
  H   H6        1.0  0.803445095229986  0.7376703716567996  0.06610977358875147  1.0000
  C   C10       1.0  0.1515270745101446  0.17239479982171413  0.4013127011298551  1.0000
  C   C11       1.0  0.20225126602281368  0.25561115855757555  0.29211009552112044  1.0000
  C   C12       1.0  0.24469576795204895  0.19068506461528736  0.17735795521045628  1.0000
  C   C13       1.0  0.2368466716011488  0.0415924797796563  0.17033036068622537  1.0000
  C   C14       1.0  0.1882295508409918  0.9569391966195009  0.27888424742879603  1.0000
  C   C15       1.0  0.14643195152209  0.01984612830911181  0.3964923280366488  1.0000
  C   C16       1.0  0.29543086167028876  0.27767018113317565  0.06565854309031446  1.0000
  C   C17       1.0  0.33790895861761094  0.35052219729385703  0.9721428538687679  1.0000
  C   C18       1.0  0.38764883887197166  0.4358368064574141  0.8626400602107456  1.0000
  C   C19       1.0  0.43011874545883866  0.5086831493420262  0.7691422972895003  1.0000
  H   H7        1.0  0.10583267081357435  0.43227476607174126  0.6305247892030568  1.0000
  H   H8        1.0  0.20688964529657317  0.3720357476196868  0.29433997374147003  1.0000
  H   H9        1.0  0.2691734941640114  0.9903940358402687  0.08153631419049923  1.0000
  H   H10       1.0  0.18527560694010553  0.8410055793110549  0.2726524649023143  1.0000
  H   H11       1.0  0.08382500428784852  0.8857188081581507  0.7394430702250784  1.0000
  H   H12       1.0  0.46741086623640693  0.5726484201528816  0.6870435390215519  1.0000
  C   C20       1.0  0.14884003902709342  0.6006367795147627  0.9750363797043206  1.0000
  C   C21       1.0  0.2371277958477249  0.6157177679042858  0.04701145763886516  1.0000
  C   C22       1.0  0.324300590212971  0.6172500100385574  0.9715569315324597  1.0000
  C   C23       1.0  0.324717447826274  0.603583347963335  0.8232584141699704  1.0000
  C   C24       1.0  0.23792775043306813  0.5909082728753823  0.7493376922917195  1.0000
  C   C25       1.0  0.14911897966474474  0.5916041963823628  0.8227686407936861  1.0000
  F   F1        1.0  0.40874965869749436  0.6302773731384563  0.04291805142116711  1.0000
  H   H13       1.0  0.9257279167609339  0.4834077047608525  0.08885607746202838  1.0000
  H   H14       1.0  0.39239981775712607  0.604186987526032  0.7649396237423808  1.0000
  H   H15       1.0  0.9980335481609452  0.5186142068597143  0.5483380478828179  1.0000
  Zn  Zn1       1.0  0.043216229809178275  0.5961221625598472  0.3989045876763191  1.0000
  Zn  Zn2       1.0  0.25473358830975945  0.5961181057783987  0.3988997766310855  1.0000
  C   C26       1.0  0.14909869008277393  0.5875631624231805  0.6625617910531356  1.0000
  C   C27       1.0  0.14885342689963263  0.6046789249980649  0.13524270451625447  1.0000
  C   C28       1.0  0.14738820142230533  0.8597210961458654  0.3916516185028538  1.0000
  C   C29       1.0  0.15056385383230197  0.3325192568364417  0.40615296388328676  1.0000
  O   O1        1.0  0.22912769305862898  0.6060276713305565  0.18900762066642462  1.0000
  O   O2        1.0  0.2293612112550949  0.5862102529649587  0.6087928141177678  1.0000
  O   O3        1.0  0.22797888844917308  0.8059812103819459  0.39003092453947275  1.0000
  O   O4        1.0  0.2305099435903292  0.3862567253902738  0.40776940196219413  1.0000
  O   O5        1.0  0.06743980234810376  0.8059835429510085  0.39003496233925095  1.0000
  O   O6        1.0  0.06882211470131927  0.5862143199759955  0.6087967650948365  1.0000
  O   O7        1.0  0.06858859630026765  0.6060317065492563  0.18900983653670295  1.0000
  O   O8        1.0  0.0699708469256839  0.386260749135305  0.407771726109039  1.0000
