data_image0
_chemical_formula_structural       NC8NC6H8C6NH7C9H8Zn2C4O8
_chemical_formula_sum              "N3 C33 H23 Zn2 O8"
_cell_length_a       17.457602349358154
_cell_length_b       9.274771166103582
_cell_length_c       9.275155815604961
_cell_angle_alpha    85.94411296578332
_cell_angle_beta     93.22066324705655
_cell_angle_gamma    92.29117059398062

_space_group_name_H-M_alt    "P 1"
_space_group_IT_number       1

loop_
  _space_group_symop_operation_xyz
  'x, y, z'

loop_
  _atom_site_type_symbol
  _atom_site_label
  _atom_site_symmetry_multiplicity
  _atom_site_fract_x
  _atom_site_fract_y
  _atom_site_fract_z
  _atom_site_occupancy
  N   N1        1.0  0.7262545464849652  0.6007248480874591  0.47313982652791187  1.0000
  C   C1        1.0  0.6648534076090163  0.5495982177612484  0.46142358890371904  1.0000
  C   C2        1.0  0.5884678787870331  0.486003131310185  0.44685917325812735  1.0000
  C   C3        1.0  0.5304673736376595  0.531352893988019  0.5299427772366193  1.0000
  C   C4        1.0  0.4555353020638653  0.47011719700451415  0.516057298877572  1.0000
  C   C5        1.0  0.3939742902503728  0.518002191471741  0.6040461764811401  1.0000
  C   C6        1.0  0.31933300482318117  0.5379774303480207  0.5421161957142755  1.0000
  C   C7        1.0  0.2613317653651799  0.5831239023912842  0.6253199111451668  1.0000
  C   C8        1.0  0.18524777589618974  0.6037506638580443  0.5609296679573934  1.0000
  N   N2        1.0  0.12408912605455046  0.6203274936649275  0.5091600895825303  1.0000
  C   C9        1.0  0.2774830519949842  0.6085702214880229  0.7710177471126332  1.0000
  C   C10       1.0  0.3513434846690333  0.5890309254395036  0.8333774195136036  1.0000
  C   C11       1.0  0.4093359431020565  0.5440889542088106  0.7506815490165437  1.0000
  C   C12       1.0  0.4398828389646387  0.36276515991608327  0.41749855118622303  1.0000
  C   C13       1.0  0.49787484272773774  0.3177289094875795  0.3348585735046745  1.0000
  C   C14       1.0  0.5720248998148711  0.37909481433153397  0.3493543792749946  1.0000
  H   H1        1.0  0.5435248592100185  0.6155434234654147  0.6037972870112371  1.0000
  H   H2        1.0  0.30651389647338434  0.5203513929484789  0.428881977877285  1.0000
  H   H3        1.0  0.2330328340214148  0.643454379358237  0.836285022210121  1.0000
  H   H4        1.0  0.3636571007582943  0.6083838970573159  0.9461949717404274  1.0000
  H   H5        1.0  0.46590151028344956  0.5278821456447376  0.8018861573794871  1.0000
  H   H6        1.0  0.38307848293080676  0.31229330279665213  0.405741345109609  1.0000
  H   H7        1.0  0.4853335755077209  0.23476710139463283  0.2596721607877799  1.0000
  H   H8        1.0  0.6164717054134242  0.3432493960759615  0.2846557904759064  1.0000
  C   C15       1.0  0.922821369077855  0.18682055658999364  0.491722706362388  1.0000
  C   C16       1.0  0.9047222131264643  0.2681271795007087  0.36120131694787055  1.0000
  C   C17       1.0  0.8937876045901435  0.2014216415503849  0.23051090668915597  1.0000
  C   C18       1.0  0.9009892297244849  0.05202574142545457  0.22940581090730183  1.0000
  C   C19       1.0  0.9176628927207889  0.9693141991022127  0.3580276638805068  1.0000
  C   C20       1.0  0.9275296311380669  0.034221159507527465  0.49059038761549023  1.0000
  N   N3        1.0  0.8761553160696842  0.2858385634328604  0.0986152925227295  1.0000
  H   H9        1.0  0.010277753466257701  0.27350743924736187  0.8150566399398449  1.0000
  H   H10       1.0  0.9008497352422413  0.38452430848311336  0.3602970855466712  1.0000
  H   H11       1.0  0.8929394793533467  0.9992821790222948  0.1288856215838186  1.0000
  H   H12       1.0  0.921032037149994  0.8532806334129768  0.3542051169931991  1.0000
  H   H13       1.0  0.9833308964868175  0.7417530873284995  0.7102369398034812  1.0000
  H   H14       1.0  0.870866109748858  0.3976514448040008  0.09808959291441144  1.0000
  H   H15       1.0  0.8681858240493612  0.23713658229924972  0.00047253335191333384  1.0000
  C   C21       1.0  0.9237487077225919  0.6068044654097353  0.06780282220446132  1.0000
  C   C22       1.0  0.8640862843956065  0.674150542057951  0.13008649517342447  1.0000
  C   C23       1.0  0.8096189231950548  0.7513392254060325  0.043723255270569764  1.0000
  C   C24       1.0  0.8138049511976337  0.7628046557742425  0.8934997492338158  1.0000
  C   C25       1.0  0.8719182786377739  0.6946072431317953  0.8293688809626376  1.0000
  C   C26       1.0  0.9266022648372405  0.6142371672362241  0.9145101949167893  1.0000
  C   C27       1.0  0.7578045894392871  0.8432877971457979  0.8046788916267591  1.0000
  C   C28       1.0  0.7109143949661285  0.9106815582623113  0.7302771261788426  1.0000
  C   C29       1.0  0.6540215798426879  0.9924525174055476  0.6399917330997349  1.0000
  H   H16       1.0  0.10128220164281854  0.4991721910511564  0.1970488153576555  1.0000
  H   H17       1.0  0.8606152232130218  0.6699809854255702  0.24657111718737884  1.0000
  H   H18       1.0  0.7646195536999222  0.803338308227129  0.09436225741624948  1.0000
  H   H19       1.0  0.8733743419344675  0.7014618870123446  0.7123419388630219  1.0000
  H   H20       1.0  0.045026870519369266  0.536538375430359  0.6518037552560374  1.0000
  H   H21       1.0  0.6696439879449756  0.9973667407269876  0.5253995855862774  1.0000
  H   H22       1.0  0.596562594324324  0.9382555010282083  0.649910135217985  1.0000
  H   H23       1.0  0.6526978239312156  0.10376865732225404  0.6761716837803728  1.0000
  Zn  Zn1       1.0  0.8410610190361562  0.6063779519041412  0.48354282550817707  1.0000
  Zn  Zn2       1.0  0.009282613304069109  0.614662663593879  0.49876890946943464  1.0000
  C   C30       1.0  0.9260292440655644  0.6070841549922359  0.7544719333692484  1.0000
  C   C31       1.0  0.9243162358411706  0.6139583727443991  0.2278401069432179  1.0000
  C   C32       1.0  0.9266163471572773  0.8739937502000628  0.48505913168946596  1.0000
  C   C33       1.0  0.9237290659746159  0.34704704186782553  0.49725298260492745  1.0000
  O   O1        1.0  0.9883458868185536  0.6194969995953299  0.2873283095834822  1.0000
  O   O2        1.0  0.9896758833084145  0.6078323404911219  0.7065395625998419  1.0000
  O   O3        1.0  0.9901491209487827  0.8233651849305155  0.4889867392041105  1.0000
  O   O4        1.0  0.9878725914685978  0.4039641617015836  0.5048810196751732  1.0000
  O   O5        1.0  0.8624709834658362  0.8170764509707752  0.47743071009893795  1.0000
  O   O6        1.0  0.8619977551945199  0.601545339374467  0.6949834543092412  1.0000
  O   O7        1.0  0.860667752634804  0.6132099329856464  0.2757704680698516  1.0000
  O   O8        1.0  0.8601944575886445  0.3976770857205913  0.49332328626208266  1.0000
