data_image0
_chemical_formula_structural       NC12NC2H8C12NCOCH13C15H11Zn2C4O8
_chemical_formula_sum              "N3 C47 H32 O9 Zn2"
_cell_length_a       17.80743265337812
_cell_length_b       10.299155265289647
_cell_length_c       10.299157797200024
_cell_angle_alpha    85.52785804654131
_cell_angle_beta     91.55653286904399
_cell_angle_gamma    89.4139958816946

_space_group_name_H-M_alt    "P 1"
_space_group_IT_number       1

loop_
  _space_group_symop_operation_xyz
  'x, y, z'

loop_
  _atom_site_type_symbol
  _atom_site_label
  _atom_site_symmetry_multiplicity
  _atom_site_fract_x
  _atom_site_fract_y
  _atom_site_fract_z
  _atom_site_occupancy
  N   N1        1.0  0.7067825157482146  0.4071539987001358  0.6008543403487037  1.0000
  C   C1        1.0  0.655939998342212  0.43673272814892417  0.5321433728931309  1.0000
  C   C2        1.0  0.5926868944162142  0.4735265195964083  0.4466755784722692  1.0000
  C   C3        1.0  0.6043718289222549  0.5275838992306267  0.32003341605030755  1.0000
  C   C4        1.0  0.5430269749179573  0.5628733676709923  0.23696216440775883  1.0000
  C   C5        1.0  0.46984266974415423  0.5443691107583246  0.27987306137265877  1.0000
  C   C6        1.0  0.4571810984864392  0.4901927990213409  0.4069834262768528  1.0000
  C   C7        1.0  0.5193832639753801  0.45490658896116587  0.49003816438129366  1.0000
  C   C8        1.0  0.3794295066382293  0.47057359495335005  0.45275509280811294  1.0000
  C   C9        1.0  0.3606677945325471  0.49772978745172125  0.5797989511719606  1.0000
  C   C10       1.0  0.2874535437892831  0.4792670968604731  0.6227504016136338  1.0000
  C   C11       1.0  0.23205829209732073  0.43339370846428454  0.5394960811576197  1.0000
  C   C12       1.0  0.1567078934047979  0.414377791653817  0.5838486939710563  1.0000
  N   N2        1.0  0.0961315088996694  0.399090273466316  0.6195051435178232  1.0000
  C   C13       1.0  0.2501286782894661  0.40606845189362306  0.41299527061029373  1.0000
  C   C14       1.0  0.32329000951520714  0.4245459941599192  0.3697879145334084  1.0000
  H   H1        1.0  0.6608259671032359  0.5424176018749951  0.28559029532643176  1.0000
  H   H2        1.0  0.5521922886038885  0.604998642116338  0.13916569991406025  1.0000
  H   H3        1.0  0.4231810297427095  0.5740236656881094  0.21427019368877276  1.0000
  H   H4        1.0  0.5109166163552871  0.4113959263660308  0.5877105677782228  1.0000
  H   H5        1.0  0.402351493273833  0.5348953930492217  0.6453652567778605  1.0000
  H   H6        1.0  0.2740286867467321  0.5010895207894511  0.7207586495356775  1.0000
  H   H7        1.0  0.2077279131863431  0.3701701251995335  0.3478415846621199  1.0000
  H   H8        1.0  0.3361868914458732  0.40118782272935777  0.2720834532265344  1.0000
  C   C15       1.0  0.9015445454794716  0.021722813455944845  0.6103026274693404  1.0000
  C   C16       1.0  0.8886803783853328  0.03173962769444438  0.4747537030294784  1.0000
  C   C17       1.0  0.8820851873331962  0.9196822316881833  0.40590632575559193  1.0000
  C   C18       1.0  0.8885006751970426  0.7964836946411347  0.4744372928572633  1.0000
  C   C19       1.0  0.9013767003941427  0.7845113705853006  0.6100683804380935  1.0000
  C   C20       1.0  0.9078227082761116  0.8976500496660741  0.6771662062103394  1.0000
  C   C21       1.0  0.8684773792907163  0.9312524617505937  0.2625119755683403  1.0000
  C   C22       1.0  0.9065592095666325  0.024605014983150278  0.18291405731330634  1.0000
  C   C23       1.0  0.89375954733219  0.03536235850082181  0.0479707153102349  1.0000
  C   C24       1.0  0.8430892250780925  0.9520902333263322  0.9897898184009977  1.0000
  C   C25       1.0  0.8040897022225274  0.8605729971531711  0.06927561370437885  1.0000
  C   C26       1.0  0.8169167185100821  0.849559081608118  0.2041829284885064  1.0000
  N   N3        1.0  0.8278711503769167  0.9626976775431799  0.8514921200946525  1.0000
  C   C27       1.0  0.882704451898979  0.9985351575607159  0.7558955715064268  1.0000
  O   O1        1.0  0.951631806965942  0.9996315530226934  0.7870573263358671  1.0000
  C   C28       1.0  0.8587056844740266  0.025530563834837563  0.6161983695125608  1.0000
  H   H9        1.0  0.9065159725530388  0.34534562430797  0.6624359642271949  1.0000
  H   H10       1.0  0.8827246144591312  0.12692737619212746  0.42265588501039497  1.0000
  H   H11       1.0  0.8844473223743169  0.7097881693674933  0.42161174827748416  1.0000
  H   H12       1.0  0.9177476381947286  0.8892089542017898  0.7817175999439053  1.0000
  H   H13       1.0  0.9261293541467613  0.5546216505081144  0.8659556857930183  1.0000
  H   H14       1.0  0.9466851344835616  0.08880740503935791  0.22493073832716307  1.0000
  H   H15       1.0  0.9225671653749944  0.1102435651366638  0.9897669187557887  1.0000
  H   H16       1.0  0.7638914810952876  0.7970764777459339  0.026388385320329062  1.0000
  H   H17       1.0  0.7856952415086964  0.7783439055849377  0.26310408913808114  1.0000
  H   H18       1.0  0.7749495026967491  0.9349367229605101  0.8178818714139844  1.0000
  H   H19       1.0  0.8044738029748837  0.08010107422139749  0.6091466429051802  1.0000
  H   H20       1.0  0.8517434305827387  0.932081973415638  0.570638274310113  1.0000
  H   H21       1.0  0.9014614367412336  0.08475697122757973  0.5628481006522015  1.0000
  C   C29       1.0  0.9013734819815223  0.4032251379034962  0.22878927892965462  1.0000
  C   C30       1.0  0.8231263475203036  0.38686498554553256  0.2252215438327072  1.0000
  C   C31       1.0  0.7836136257126262  0.37845758121676276  0.10627801401996219  1.0000
  C   C32       1.0  0.8233496121345227  0.3866516142262629  0.9899650060211314  1.0000
  C   C33       1.0  0.9015477114916498  0.4030089871359568  0.9915817101156605  1.0000
  C   C34       1.0  0.9401030209548407  0.41119447002803305  0.11150229338611206  1.0000
  C   C35       1.0  0.7008888803977034  0.3611665928783194  0.10355241584351016  1.0000
  C   C36       1.0  0.6671036413200547  0.2748808102561031  0.020852772376385168  1.0000
  C   C37       1.0  0.5892561696261209  0.2587023220055855  0.018320100841314302  1.0000
  C   C38       1.0  0.5438075428407672  0.3278291754870007  0.09895286561006444  1.0000
  C   C39       1.0  0.5771905356080637  0.41496889897001804  0.18065627443665044  1.0000
  C   C40       1.0  0.6550372488947779  0.43115160159656873  0.1833368591244342  1.0000
  C   C41       1.0  0.4599432859216462  0.3127496556432628  0.09387759239900029  1.0000
  C   C42       1.0  0.4261352527708637  0.40722425932068546  0.9948193931594922  1.0000
  C   C43       1.0  0.3983500798892656  0.4849103482403727  0.9133668502521357  1.0000
  H   H22       1.0  0.7929100752657816  0.37886528581623435  0.31531440232478736  1.0000
  H   H23       1.0  0.7930244820846181  0.38204124791161087  0.897881607388448  1.0000
  H   H24       1.0  0.00041958247697082313  0.42380762526598376  0.11346504115564282  1.0000
  H   H25       1.0  0.9316284155171195  0.4092590770145386  0.6647313448277936  1.0000
  H   H26       1.0  0.7009744156678632  0.21880960158809787  0.9591195903531768  1.0000
  H   H27       1.0  0.5643977795053903  0.19205646007586674  0.9535901071610589  1.0000
  H   H28       1.0  0.5428810986052266  0.47073999107147857  0.24202353586661807  1.0000
  H   H29       1.0  0.6792824121646932  0.4999175485013343  0.2463956119543047  1.0000
  H   H30       1.0  0.4449714679988603  0.21281207653586479  0.06974487821589981  1.0000
  H   H31       1.0  0.4360252828375067  0.3286910991952212  0.18994859923930218  1.0000
  H   H32       1.0  0.37397813055721985  0.5531156257572551  0.8418599517912844  1.0000
  Zn  Zn1       1.0  0.8191402305828439  0.4048235121063277  0.6062440477972577  1.0000
  Zn  Zn2       1.0  0.9837737963227668  0.4014101627566227  0.6141260331323264  1.0000
  C   C44       1.0  0.9015142616512596  0.3978758093029176  0.8473991425598015  1.0000
  C   C45       1.0  0.9014015627162427  0.40835946700018466  0.3729711514131815  1.0000
  C   C46       1.0  0.9014033565680869  0.64032961541131  0.6049369422573958  1.0000
  C   C47       1.0  0.9015124119807159  0.16590410161020608  0.6154334187487722  1.0000
  O   O2        1.0  0.9638885683175848  0.4087815802661763  0.42435107903361063  1.0000
  O   O3        1.0  0.9639803232153351  0.39486206316551753  0.8020010858600214  1.0000
  O   O4        1.0  0.9638899240389316  0.5906465949241961  0.606211102917825  1.0000
  O   O5        1.0  0.9639789112914134  0.2129970589907957  0.6201409619017235  1.0000
  O   O6        1.0  0.8389350594328392  0.5932366170383794  0.600229116331294  1.0000
  O   O7        1.0  0.8390254582465844  0.3974536457275115  0.7960190295437384  1.0000
  O   O8        1.0  0.8389337030520415  0.4113731180099996  0.4183674612210886  1.0000
  O   O9        1.0  0.8390240460470868  0.2155885874175456  0.6141574414667188  1.0000
