data_image0
_chemical_formula_structural       NC9NC5H8C6SCNH5C8NH7Zn2C4O8
_chemical_formula_sum              "N4 C33 H20 S1 Zn2 O8"
_cell_length_a       17.807436237873137
_cell_length_b       10.302215558581764
_cell_length_c       9.274266800404105
_cell_angle_alpha    85.99272178288915
_cell_angle_beta     88.95510806583813
_cell_angle_gamma    88.40943486361951

_space_group_name_H-M_alt    "P 1"
_space_group_IT_number       1

loop_
  _space_group_symop_operation_xyz
  'x, y, z'

loop_
  _atom_site_type_symbol
  _atom_site_label
  _atom_site_symmetry_multiplicity
  _atom_site_fract_x
  _atom_site_fract_y
  _atom_site_fract_z
  _atom_site_occupancy
  N   N1        1.0  0.7142182883945635  0.3763480976735649  0.39850050133085  1.0000
  C   C1        1.0  0.653673837178445  0.3410832904594616  0.3862592226424967  1.0000
  C   C2        1.0  0.5783631943314026  0.29721775371834336  0.37103240110449454  1.0000
  C   C3        1.0  0.560733535622407  0.225018001796184  0.25446524878117627  1.0000
  C   C4        1.0  0.48761113941289447  0.1823158454048943  0.23958925145928459  1.0000
  C   C5        1.0  0.4310697568077406  0.21143576249111914  0.3412443389486698  1.0000
  C   C6        1.0  0.3533591497950122  0.16616988255190046  0.3255261266888081  1.0000
  C   C7        1.0  0.2910812310974267  0.24810298766279357  0.35432932635250913  1.0000
  C   C8        1.0  0.2178164284594188  0.2051979514086628  0.3394684918933047  1.0000
  C   C9        1.0  0.1544872962787626  0.28982448364743285  0.36867596005304715  1.0000
  N   N2        1.0  0.10358366445030652  0.35785836913199054  0.39215795732576675  1.0000
  C   C10       1.0  0.2062460642017935  0.08010170412521878  0.2957762878188801  1.0000
  C   C11       1.0  0.2676666483829213  0.9981546861686936  0.2669637735128667  1.0000
  C   C12       1.0  0.340812859630411  0.040663735512372456  0.28159973312443154  1.0000
  C   C13       1.0  0.4493899232456918  0.28413142807274827  0.458054906052598  1.0000
  C   C14       1.0  0.5225658587948658  0.32664204917394035  0.47275810032031984  1.0000
  H   H1        1.0  0.6034489437482405  0.20198993158935874  0.17485762341519528  1.0000
  H   H2        1.0  0.4750637646736893  0.1280131882904063  0.1475368092207332  1.0000
  H   H3        1.0  0.2994668817797282  0.34576313567993044  0.38639583751223827  1.0000
  H   H4        1.0  0.1498223997450439  0.04599355963185103  0.28401140154787585  1.0000
  H   H5        1.0  0.2585882510102035  0.9013052351532026  0.2335648383457929  1.0000
  H   H6        1.0  0.3875271669257176  0.9747902841960575  0.2604472639593429  1.0000
  H   H7        1.0  0.4073854260324582  0.3066304972874465  0.539099430169871  1.0000
  H   H8        1.0  0.5356465398106022  0.3821569988766354  0.5636544249122829  1.0000
  C   C15       1.0  0.9088301017747112  0.9858341352678602  0.39529072087709866  1.0000
  C   C16       1.0  0.9839423041466808  0.9785017862929973  0.4394259441585817  1.0000
  C   C17       1.0  0.021319505219686397  0.8578153503080472  0.4618454055356583  1.0000
  C   C18       1.0  0.9841370882799271  0.7433181516728637  0.43954482857541494  1.0000
  C   C19       1.0  0.9089789490515547  0.748362088977755  0.3953800967443515  1.0000
  C   C20       1.0  0.8717295267408854  0.8701210516045923  0.37355152616248466  1.0000
  S   S1        1.0  0.11728571527230502  0.8499665300028733  0.5175908164553613  1.0000
  C   C21       1.0  0.09174493693432595  0.8395931063132384  0.7027267114972359  1.0000
  N   N3        1.0  0.07497783735205397  0.8327939216603624  0.8240995003994269  1.0000
  H   H9        1.0  0.8802494072606087  0.3159637253686647  0.3784241384537919  1.0000
  H   H10       1.0  0.013698826507687386  0.0661827669390409  0.4568280706495167  1.0000
  H   H11       1.0  0.014027126737476076  0.6507116042513088  0.4570285181469007  1.0000
  H   H12       1.0  0.8137998489047571  0.8749265344444508  0.3395329012004274  1.0000
  H   H13       1.0  0.7673386978924865  0.5506599204924257  0.31198598097170455  1.0000
  C   C22       1.0  0.9106319636667819  0.364177315070181  0.9719962209588459  1.0000
  C   C23       1.0  0.8669540989550303  0.2733065689672842  0.053845991156351136  1.0000
  C   C24       1.0  0.8187319081346529  0.1927492464109002  0.9867244980089431  1.0000
  C   C25       1.0  0.8125805300925192  0.20186606505331062  0.8361278999218209  1.0000
  C   C26       1.0  0.8572891967727795  0.2895838239970756  0.7529547136806864  1.0000
  C   C27       1.0  0.9071770897906732  0.37001893575593997  0.8186745971670755  1.0000
  C   C28       1.0  0.7613897391800245  0.11361347925854194  0.7638690429306365  1.0000
  C   C29       1.0  0.8020507987743917  0.9929834577190488  0.7319773183893026  1.0000
  N   N4        1.0  0.8341472773340154  0.8977782607643423  0.7068044827831775  1.0000
  H   H14       1.0  0.9934510096739819  0.6459957497069262  0.050116853419865943  1.0000
  H   H15       1.0  0.8688709493485383  0.26649128377247644  0.1708279801776864  1.0000
  H   H16       1.0  0.7855623475910809  0.12393725999578176  0.052500304937184605  1.0000
  H   H17       1.0  0.8543639142919689  0.2926851828552459  0.6361117254474999  1.0000
  H   H18       1.0  0.9656658435409909  0.5571069912394375  0.5214047360405241  1.0000
  H   H19       1.0  0.7399691015192115  0.16217120786862996  0.6614546591920019  1.0000
  H   H20       1.0  0.7121093443254551  0.08927680600290544  0.8348301408408432  1.0000
  Zn  Zn1       1.0  0.8265806892794539  0.3710089545618576  0.39667851709894864  1.0000
  Zn  Zn2       1.0  0.9912211949418384  0.36318701061321446  0.3939917919077578  1.0000
  C   C30       1.0  0.9078274656133216  0.36374250248464124  0.6586337046595399  1.0000
  C   C31       1.0  0.9099762162196396  0.3704550164414808  0.13203671669465147  1.0000
  C   C32       1.0  0.9089704075609788  0.6041886454555541  0.3896185877898797  1.0000
  C   C33       1.0  0.9088332174735212  0.13000731677621413  0.4010519111566503  1.0000
  O   O1        1.0  0.9722363541478618  0.3695878191483233  0.1847281701793173  1.0000
  O   O2        1.0  0.9705256634629913  0.3586720429792698  0.6039026738180773  1.0000
  O   O3        1.0  0.9714477551604253  0.5528353946423019  0.38667107752241364  1.0000
  O   O4        1.0  0.971314206712652  0.17542447869641029  0.40195965930195365  1.0000
  O   O5        1.0  0.8464876213249473  0.5587714891492688  0.3887106506140172  1.0000
  O   O6        1.0  0.8455655302422814  0.3646096968511978  0.6059421702266077  1.0000
  O   O7        1.0  0.8472762280407155  0.3755254158153847  0.1867659333462648  1.0000
  O   O8        1.0  0.8463540801595884  0.18136206682295988  0.40399753055119403  1.0000
