data_image0
_chemical_formula_structural       NC5NC4H6C7NH5C7NH4Zn2C4O8
_chemical_formula_sum              "N4 C27 H15 Zn2 O8"
_cell_length_a       13.854160002989762
_cell_length_b       9.275154477615127
_cell_length_c       9.275157849593905
_cell_angle_alpha    86.33461140486662
_cell_angle_beta     89.74088443434586
_cell_angle_gamma    89.43370676253429

_space_group_name_H-M_alt    "P 1"
_space_group_IT_number       1

loop_
  _space_group_symop_operation_xyz
  'x, y, z'

loop_
  _atom_site_type_symbol
  _atom_site_label
  _atom_site_symmetry_multiplicity
  _atom_site_fract_x
  _atom_site_fract_y
  _atom_site_fract_z
  _atom_site_occupancy
  N   N1        1.0  0.9033631596006646  0.5626393149905287  0.4165670315745744  1.0000
  C   C1        1.0  0.8310458814195876  0.5872763470018307  0.3576361426437742  1.0000
  C   C2        1.0  0.7410821715864148  0.6179254767103959  0.2843238592523349  1.0000
  C   C3        1.0  0.6534846823795109  0.5891402332822258  0.3559113129876572  1.0000
  C   C4        1.0  0.5659397591918176  0.6179254908130716  0.28432383614267315  1.0000
  C   C5        1.0  0.4759377407483501  0.5872762006025742  0.35763623365711683  1.0000
  N   N2        1.0  0.4035895894239115  0.5626392515092395  0.41656703123596994  1.0000
  C   C6        1.0  0.566020882223136  0.676102406887382  0.14117030162197786  1.0000
  C   C7        1.0  0.653571709139731  0.7070362212230255  0.06948796764325738  1.0000
  C   C8        1.0  0.6536540941727649  0.7653436316004312  0.9148493986201802  1.0000
  C   C9        1.0  0.7410979715465997  0.6761024046934834  0.1411702113621211  1.0000
  H   H1        1.0  0.6534479364743822  0.5440011667531452  0.4667090787570731  1.0000
  H   H2        1.0  0.49817552080008276  0.6973476000760965  0.08562174157773472  1.0000
  H   H3        1.0  0.7181301651174158  0.8332576261500748  0.891339462466799  1.0000
  H   H4        1.0  0.5884216872451533  0.8332576286528776  0.8913395275420467  1.0000
  H   H5        1.0  0.6544752003511677  0.6741540650774667  0.8429547441717138  1.0000
  H   H6        1.0  0.8089984794006502  0.6973477117082609  0.08562165662010313  1.0000
  C   C10       1.0  0.15627928890040144  0.13923392343305596  0.4148993454326892  1.0000
  C   C11       1.0  0.13017764284696853  0.22118934651860386  0.2878311691000164  1.0000
  C   C12       1.0  0.09620412424566127  0.15399208034111478  0.16749398280713335  1.0000
  C   C13       1.0  0.08777111902199496  0.003922728122052186  0.17280774153267386  1.0000
  C   C14       1.0  0.11477631453529602  0.9207317374082347  0.2969795000916011  1.0000
  C   C15       1.0  0.1506827429594912  0.986033682233439  0.41824721597355974  1.0000
  C   C16       1.0  0.06882306297954477  0.23951456755666015  0.03889430352326028  1.0000
  N   N3        1.0  0.046816293190207185  0.3082590584534537  0.9355331018906909  1.0000
  H   H7        1.0  0.17390160986938952  0.21931164390974175  0.7686551935326346  1.0000
  H   H8        1.0  0.13413276837578936  0.3381075670874094  0.28355502661745424  1.0000
  H   H9        1.0  0.06114602369581967  0.9509055102043841  0.08032105605178197  1.0000
  H   H10       1.0  0.1097082207872746  0.8042629206571832  0.29685266855028836  1.0000
  H   H11       1.0  0.16664794459970547  0.6895459973648884  0.6552736969858026  1.0000
  C   C17       1.0  0.1547887180050298  0.558558253960904  0.9933593760941511  1.0000
  C   C18       1.0  0.23767282154303676  0.6055618455224168  0.0632412432653302  1.0000
  C   C19       1.0  0.3155306423998255  0.663903079979681  0.9835937361461536  1.0000
  C   C20       1.0  0.31141037331366905  0.6761682279634826  0.8329832790627325  1.0000
  C   C21       1.0  0.23051844443548375  0.6279970839372293  0.7617552542553482  1.0000
  C   C22       1.0  0.15217333576481842  0.5667092904247404  0.8397871716293654  1.0000
  C   C23       1.0  0.3993475096855025  0.7129146147488568  0.05679113393892798  1.0000
  N   N4        1.0  0.466714813852791  0.7523066731431889  0.11562947404463553  1.0000
  H   H12       1.0  0.9202594149115962  0.509944027040949  0.10100477125909646  1.0000
  H   H13       1.0  0.371213679743395  0.721775593174979  0.7703407959073413  1.0000
  H   H14       1.0  0.23025481427288283  0.6355774524464806  0.6447207835047704  1.0000
  H   H15       1.0  0.9953175962022872  0.5279242310469681  0.5622273211840829  1.0000
  Zn  Zn1       1.0  0.04771770708391807  0.5626355166815658  0.4165753477082248  1.0000
  Zn  Zn2       1.0  0.2592350845214726  0.5626313650646715  0.4165705045042445  1.0000
  C   C24       1.0  0.1527034845151105  0.5594246513411603  0.6797714605606013  1.0000
  C   C25       1.0  0.15425160439293806  0.5658440509588045  0.15337454024380337  1.0000
  C   C26       1.0  0.15175338247259645  0.8259151779299866  0.4118713541814254  1.0000
  C   C27       1.0  0.15520164547072962  0.2993517928239571  0.421274716611731  1.0000
  O   O1        1.0  0.23434112813624253  0.5682813652215706  0.20707522824980226  1.0000
  O   O2        1.0  0.2331507645386157  0.556983094389405  0.6260666775089981  1.0000
  O   O3        1.0  0.2323824584186613  0.7721775792947929  0.40973545212198154  1.0000
  O   O4        1.0  0.23510936234537141  0.35308688959123447  0.423406345620334  1.0000
  O   O5        1.0  0.0718433570795318  0.7721799921579164  0.4097395065862134  1.0000
  O   O6        1.0  0.07261165198372097  0.5569872388014623  0.6260706619785574  1.0000
  O   O7        1.0  0.07380202133161598  0.5682854427032462  0.20707747979835697  1.0000
  O   O8        1.0  0.07457025527108319  0.353090957800772  0.4234087051794522  1.0000
