data_image0
_chemical_formula_structural       NC9NC4H8C7ONH7C9H10Zn2C4O8
_chemical_formula_sum              "N3 C33 H25 O9 Zn2"
_cell_length_a       16.32274767691083
_cell_length_b       10.297852080636378
_cell_length_c       9.272679976505533
_cell_angle_alpha    86.02025868142809
_cell_angle_beta     89.86705810092191
_cell_angle_gamma    89.50344002776104

_space_group_name_H-M_alt    "P 1"
_space_group_IT_number       1

loop_
  _space_group_symop_operation_xyz
  'x, y, z'

loop_
  _atom_site_type_symbol
  _atom_site_label
  _atom_site_symmetry_multiplicity
  _atom_site_fract_x
  _atom_site_fract_y
  _atom_site_fract_z
  _atom_site_occupancy
  N   N1        1.0  0.7648740355386108  0.4007194639920897  0.3980578838895921  1.0000
  C   C1        1.0  0.7123217295163916  0.35283684792519043  0.3377902905300332  1.0000
  C   C2        1.0  0.6469988753854978  0.2933662658924807  0.2629374576595225  1.0000
  C   C3        1.0  0.6581833674943248  0.21202108780926013  0.16054733802769916  1.0000
  C   C4        1.0  0.5786380566302751  0.17232423791687057  0.11058436333760426  1.0000
  C   C5        1.0  0.5199680520890415  0.23041972255239895  0.1837123455893641  1.0000
  C   C6        1.0  0.4299610671917271  0.21506563638225917  0.16438919387021333  1.0000
  C   C7        1.0  0.3746716835780043  0.2827796165269345  0.2496163729445915  1.0000
  C   C8        1.0  0.2899037702982341  0.26965727447803856  0.23310158295596595  1.0000
  C   C9        1.0  0.23421188145463612  0.3394529007651814  0.32094795021808165  1.0000
  N   N2        1.0  0.18945449060805353  0.39555709611199075  0.391561551013226  1.0000
  C   C10       1.0  0.2593717092825593  0.18871144299122314  0.13122247158827882  1.0000
  C   C11       1.0  0.31333958202651235  0.12108715769226543  0.0461085609836589  1.0000
  C   C12       1.0  0.39794709865687095  0.13385604324580602  0.0621783450225013  1.0000
  C   C13       1.0  0.5581055657123185  0.31512930515888327  0.2903343998812995  1.0000
  H   H1        1.0  0.7169476991944594  0.18038976586603028  0.12073014251529623  1.0000
  H   H2        1.0  0.5700418593423937  0.10584092377404276  0.026900841115888193  1.0000
  H   H3        1.0  0.39707009233778995  0.3459714849021485  0.3291503128229969  1.0000
  H   H4        1.0  0.1939310361666816  0.17790135343905655  0.11761795946067231  1.0000
  H   H5        1.0  0.289547719561888  0.058468011800518534  0.9672957384624161  1.0000
  H   H6        1.0  0.43748354799912503  0.07976097112302183  0.994093133053633  1.0000
  H   H7        1.0  0.5417798082253282  0.2811911130854041  0.40300613332032564  1.0000
  H   H8        1.0  0.5412054244618723  0.4190345341271351  0.2657310460939901  1.0000
  C   C14       1.0  0.9772555571760562  0.016700067392628536  0.3948169283250967  1.0000
  C   C15       1.0  0.9654526571836115  0.025290306314245996  0.2443904135229187  1.0000
  C   C16       1.0  0.9587447414514  0.9125628345914665  0.16824589861423433  1.0000
  C   C17       1.0  0.9652453460354646  0.7900402575762254  0.24434385028671857  1.0000
  C   C18       1.0  0.9770808399212397  0.7795664539236877  0.39481480815871284  1.0000
  C   C19       1.0  0.9828147669770602  0.8934120914106947  0.4691052908907096  1.0000
  C   C20       1.0  0.9464816405320249  0.9242338904511439  0.00934291634709728  1.0000
  O   O1        1.0  0.9680878358265688  0.02655610904737094  0.9372209544549337  1.0000
  N   N3        1.0  0.9095878857536048  0.8223340231423746  0.9354742099961655  1.0000
  H   H9        1.0  0.9998594399444921  0.20773381205038868  0.6790421011267984  1.0000
  H   H10       1.0  0.9607366007168759  0.12005373548233478  0.18634929240515175  1.0000
  H   H11       1.0  0.962701176893335  0.702452567059816  0.18656115483434976  1.0000
  H   H12       1.0  0.9919093650393451  0.8860379632286184  0.5850409062015858  1.0000
  H   H13       1.0  0.0007613368546277565  0.5524969983629746  0.6788921381924369  1.0000
  H   H14       1.0  0.9050185332974832  0.8306452448416167  0.8229027738742021  1.0000
  H   H15       1.0  0.8818269094714574  0.7429366660007358  0.9912947412121941  1.0000
  C   C21       1.0  0.9755079107478499  0.39508623877878174  0.9714786448746585  1.0000
  C   C22       1.0  0.03120074722748711  0.31406170756033425  0.05089322908302841  1.0000
  C   C23       1.0  0.09092554560093163  0.24351394084573447  0.9813788248656947  1.0000
  C   C24       1.0  0.09697711102461583  0.25166995449843865  0.830423930601595  1.0000
  C   C25       1.0  0.04030132263083285  0.3309435627247084  0.7496401203805787  1.0000
  C   C26       1.0  0.9788285053497248  0.4011803010701884  0.8181531946573801  1.0000
  C   C27       1.0  0.1643434964125705  0.17260522597681494  0.7632454260449415  1.0000
  C   C28       1.0  0.14484989986493635  0.11339826871570624  0.6214441882537938  1.0000
  C   C29       1.0  0.20244604482768414  0.22900318097827313  0.6227437436329675  1.0000
  H   H16       1.0  0.8521350740995152  0.4844086990272061  0.24631666989539336  1.0000
  H   H17       1.0  0.02990532382183297  0.30752538679179553  0.16798769230453203  1.0000
  H   H18       1.0  0.13335002014843447  0.18297030666227124  0.046362478977170836  1.0000
  H   H19       1.0  0.042132591887981574  0.33653653231940606  0.6328331625649652  1.0000
  H   H20       1.0  0.7928084485180356  0.525638791834192  0.7062959345874513  1.0000
  H   H21       1.0  0.20717448255164325  0.11365255693583844  0.8347767208541081  1.0000
  H   H22       1.0  0.08399267164565871  0.1363041294237617  0.5726936003383845  1.0000
  H   H23       1.0  0.17669215864222432  0.019500410107619045  0.6066635626604433  1.0000
  H   H24       1.0  0.17661471309482601  0.32207271604720655  0.5746652658097076  1.0000
  H   H25       1.0  0.2679602998601147  0.20266270342960602  0.60871867580956  1.0000
  Zn  Zn1       1.0  0.8873988230859635  0.3992262898471097  0.3961915078961866  1.0000
  Zn  Zn2       1.0  0.06692975799197498  0.39703969635398  0.39343973702061796  1.0000
  C   C30       1.0  0.9782002073746314  0.3948537808180723  0.6581135749185394  1.0000
  C   C31       1.0  0.9761303343551725  0.4014138214411178  0.13151778143826312  1.0000
  C   C32       1.0  0.9770871428695498  0.635327170559939  0.3890706334495042  1.0000
  C   C33       1.0  0.9772433382576813  0.16093887241259153  0.4005608007086201  1.0000
  O   O2        1.0  0.04447028086481741  0.40270194838014506  0.18418409495364085  1.0000
  O   O3        1.0  0.046120084992419035  0.39190509712471755  0.603358315996404  1.0000
  O   O4        1.0  0.045220358767675606  0.586090422517608  0.3861042513106827  1.0000
  O   O5        1.0  0.045369945401762195  0.2085166322473062  0.401438052487916  1.0000
  O   O6        1.0  0.908958574411049  0.5877493547013195  0.38819319336035063  1.0000
  O   O7        1.0  0.9098582999732382  0.39356558934262464  0.6054471811762119  1.0000
  O   O8        1.0  0.9082084891128754  0.40436238285808757  0.186271226905288  1.0000
  O   O9        1.0  0.9091081540724921  0.21017705821273358  0.4035252925224717  1.0000
