data_image0
_chemical_formula_structural       NC8NH4C10H6C6H6Zn2C4O8
_chemical_formula_sum              "N2 C28 H16 Zn2 O8"
_cell_length_a       11.048855714531884
_cell_length_b       9.275150299802176
_cell_length_c       10.681121600428288
_cell_angle_alpha    85.23622488855405
_cell_angle_beta     89.99986981468943
_cell_angle_gamma    89.4838956589931

_space_group_name_H-M_alt    "P 1"
_space_group_IT_number       1

loop_
  _space_group_symop_operation_xyz
  'x, y, z'

loop_
  _atom_site_type_symbol
  _atom_site_label
  _atom_site_symmetry_multiplicity
  _atom_site_fract_x
  _atom_site_fract_y
  _atom_site_fract_z
  _atom_site_occupancy
  N   N1        1.0  0.12774340013975508  0.5790664103911134  0.6108862267271897  1.0000
  C   C1        1.0  0.07367065399354523  0.5210873101507083  0.5373343927056604  1.0000
  C   C2        1.0  0.006204540592974045  0.44874592234115207  0.4455624634285138  1.0000
  C   C3        1.0  0.8784877866478892  0.44874573166431997  0.44556255274444023  1.0000
  C   C4        1.0  0.816258353176233  0.37723304125126794  0.35484215980971806  1.0000
  C   C5        1.0  0.880220669865135  0.3062860166806407  0.2648392953418579  1.0000
  C   C6        1.0  0.006626883117832882  0.306285906497044  0.2648393155749947  1.0000
  C   C7        1.0  0.0695158912481475  0.3772331397400268  0.3548421352448741  1.0000
  C   C8        1.0  0.809927232348433  0.52108738512415  0.5373343809269183  1.0000
  N   N2        1.0  0.7549772859559415  0.5790664530854313  0.6108862515308711  1.0000
  H   H1        1.0  0.7182028863255832  0.3763375363789647  0.3537055647063132  1.0000
  H   H2        1.0  0.8317390799039592  0.25125784769190257  0.19503151330497004  1.0000
  H   H3        1.0  0.05594112030315391  0.2512579571734319  0.19503151223692328  1.0000
  H   H4        1.0  0.1675848984584647  0.3763374873061265  0.3537058039716876  1.0000
  C   C9        1.0  0.44455956658729967  0.15536086488216713  0.6129827530689465  1.0000
  C   C10       1.0  0.5082076980127352  0.2374136707862129  0.5182388363016303  1.0000
  C   C11       1.0  0.561476217138263  0.1712648920520081  0.4186801568809549  1.0000
  C   C12       1.0  0.5516371356892535  0.022097426501035855  0.4125830331028797  1.0000
  C   C13       1.0  0.4906313279741565  0.938600784363963  0.5067641229086086  1.0000
  C   C14       1.0  0.4381727813570637  0.0027608311767628457  0.6088006091859661  1.0000
  C   C15       1.0  0.6251390492859314  0.25705985210450044  0.32177001684313655  1.0000
  C   C16       1.0  0.678440928794745  0.3289154592421546  0.2406360308517761  1.0000
  C   C17       1.0  0.7408549562397613  0.4130633168952697  0.1456316716835864  1.0000
  C   C18       1.0  0.7941465584574501  0.48491344176145357  0.06451323850705015  1.0000
  H   H5        1.0  0.3871687573925051  0.41768309357709565  0.8118466054799165  1.0000
  H   H6        1.0  0.514022841420096  0.35386202007810463  0.5201734731296266  1.0000
  H   H7        1.0  0.5922083837726069  0.9699528813444644  0.33554553311148627  1.0000
  H   H8        1.0  0.4869299496614161  0.8226007665419156  0.5013574435780788  1.0000
  H   H9        1.0  0.35952839349510746  0.8722876635347948  0.9063438422775909  1.0000
  H   H10       1.0  0.8409410307013813  0.5480039508697698  0.9932845542224338  1.0000
  C   C19       1.0  0.4413662196074984  0.5790608423010448  0.24314645111257033  1.0000
  C   C20       1.0  0.3553430365252506  0.49881467514263256  0.1821199926937729  1.0000
  C   C21       1.0  0.35534296026317613  0.4988147676596098  0.051237852284280024  1.0000
  C   C22       1.0  0.4413661239292237  0.5790609130295188  0.9786368864398459  1.0000
  C   C23       1.0  0.5273183079761589  0.6592405801471171  0.03966309270193657  1.0000
  C   C24       1.0  0.5273182926600143  0.6592405577736729  0.1705553914754001  1.0000
  H   H11       1.0  0.5283584551065247  0.6602117664661551  0.5360036991654036  1.0000
  H   H12       1.0  0.28791400462305594  0.4359139367202358  0.23546725419900993  1.0000
  H   H13       1.0  0.2879139788342318  0.43591400463776164  0.0069632246382851405  1.0000
  H   H14       1.0  0.594756144695086  0.722149607267421  0.9863601256581549  1.0000
  H   H15       1.0  0.5947560840968624  0.7221495566873513  0.21478449339218364  1.0000
  H   H16       1.0  0.528358836632884  0.6602112637703186  0.674074675932927  1.0000
  Zn  Zn1       1.0  0.3087495941284766  0.5790625519052872  0.610893482125244  1.0000
  Zn  Zn2       1.0  0.573971208287954  0.5790584772754914  0.6108893032997356  1.0000
  C   C25       1.0  0.44140679634688507  0.5733128530956995  0.839641829563731  1.0000
  C   C26       1.0  0.44131688856023643  0.584809996567047  0.38214106974377665  1.0000
  C   C27       1.0  0.4393738208799768  0.8425842210905631  0.6046008213198906  1.0000
  C   C28       1.0  0.44334978659082847  0.31553689505827265  0.6171821533096202  1.0000
  O   O1        1.0  0.5419506004120211  0.586731624248908  0.42878737871151773  1.0000
  O   O2        1.0  0.5420701610355231  0.5713870443803677  0.7929919938449935  1.0000
  O   O3        1.0  0.540427150822302  0.7888270794583672  0.6031947093511443  1.0000
  O   O4        1.0  0.5435935200452855  0.3692915994938448  0.6185845692597122  1.0000
  O   O5        1.0  0.33912719186401313  0.788829429689895  0.6031982161600984  1.0000
  O   O6        1.0  0.3407701890064183  0.5713911281287674  0.7929954253267748  1.0000
  O   O7        1.0  0.34065062884247493  0.5867356577172953  0.42878930481885935  1.0000
  O   O8        1.0  0.3422935485485639  0.369295622642257  0.61858658930754  1.0000
