data_image0
_chemical_formula_structural       NC8NH4C7NH5C6OCH7Zn2C4O8
_chemical_formula_sum              "N3 C26 H16 O9 Zn2"
_cell_length_a       14.927258825633057
_cell_length_b       9.275154477615127
_cell_length_c       9.27389158865715
_cell_angle_alpha    86.29931945807607
_cell_angle_beta     89.68012686031724
_cell_angle_gamma    89.43370909507247

_space_group_name_H-M_alt    "P 1"
_space_group_IT_number       1

loop_
  _space_group_symop_operation_xyz
  'x, y, z'

loop_
  _atom_site_type_symbol
  _atom_site_label
  _atom_site_symmetry_multiplicity
  _atom_site_fract_x
  _atom_site_fract_y
  _atom_site_fract_z
  _atom_site_occupancy
  N   N1        1.0  0.8394592649559608  0.5636007228765391  0.41628050592447563  1.0000
  C   C1        1.0  0.7619328407371722  0.5636006965173194  0.4162805154719027  1.0000
  C   C2        1.0  0.6655001987990862  0.5636006967245388  0.4162805705528772  1.0000
  C   C3        1.0  0.6193075766261558  0.4744941835414147  0.32619065024230753  1.0000
  C   C4        1.0  0.5255962657233227  0.47449409347106136  0.3261906214214376  1.0000
  C   C5        1.0  0.4776842013733756  0.5636007489647308  0.4162804829442104  1.0000
  C   C6        1.0  0.5238768238673573  0.6527072714855695  0.50637029522468  1.0000
  C   C7        1.0  0.6175882017617237  0.6527073615530112  0.506370324051463  1.0000
  C   C8        1.0  0.3812515604241328  0.5636006508688076  0.41628042761866163  1.0000
  N   N2        1.0  0.30372513553755237  0.563600732150445  0.41628043954251215  1.0000
  H   H1        1.0  0.6556725982792483  0.40516409183991553  0.2560956541532968  1.0000
  H   H2        1.0  0.49056894219946573  0.4051640690477245  0.25609575129131157  1.0000
  H   H3        1.0  0.48751180221426493  0.7220373631870686  0.5764652913136905  1.0000
  H   H4        1.0  0.652615457972996  0.7220373766415451  0.5764653022057764  1.0000
  C   C9        1.0  0.07419471610741124  0.1401963614110777  0.41461248380208326  1.0000
  C   C10       1.0  0.050052742130719086  0.2222289292122639  0.2875213275918873  1.0000
  C   C11       1.0  0.018600382460693295  0.155104720636432  0.16716237995620475  1.0000
  C   C12       1.0  0.010770131756737465  0.005032141703867231  0.17247710095133173  1.0000
  C   C13       1.0  0.03575259825422927  0.921765764830948  0.29667131537634234  1.0000
  C   C14       1.0  0.06899830394452655  0.9869940872392454  0.41796096064795224  1.0000
  C   C15       1.0  0.9932719720961597  0.24070528229553223  0.03853944395834086  1.0000
  N   N3        1.0  0.972914965444797  0.3095125250463968  0.9351595498847957  1.0000
  H   H5        1.0  0.09031839157790779  0.2200593083569593  0.7684323150008501  1.0000
  H   H6        1.0  0.05372634145702748  0.33914974621813454  0.2832444111262491  1.0000
  H   H7        1.0  0.9861196785899984  0.9520710731056995  0.07997369058159887  1.0000
  H   H8        1.0  0.031048925466972795  0.8052970247301889  0.2965444615825008  1.0000
  H   H9        1.0  0.08366047623651052  0.6903624982849427  0.6550303115919471  1.0000
  C   C16       1.0  0.07308751909985922  0.5597766201678787  0.9929962687403067  1.0000
  C   C17       1.0  0.1460771981482054  0.6206762570181185  0.06181077660338974  1.0000
  C   C18       1.0  0.21391935922938773  0.6923423551218044  0.9822844118205167  1.0000
  C   C19       1.0  0.2090137927579292  0.7034701039933471  0.8308878009260594  1.0000
  C   C20       1.0  0.1379115449026773  0.6416974389871981  0.760727642928083  1.0000
  C   C21       1.0  0.07010547658334776  0.5674137516141469  0.8395771085391948  1.0000
  O   O1        1.0  0.2844734294146356  0.7514667682965424  0.057724807898418266  1.0000
  C   C22       1.0  0.3577780236093613  0.827347531456034  0.9909484832053229  1.0000
  H   H10       1.0  0.8605480640687175  0.4712202372049503  0.10366334579783398  1.0000
  H   H11       1.0  0.26028105580912136  0.7585276714326885  0.7661833728688747  1.0000
  H   H12       1.0  0.13714310692595788  0.6491284370891979  0.6436758506800526  1.0000
  H   H13       1.0  0.9284084132200461  0.5020767490706635  0.5638761096891978  1.0000
  H   H14       1.0  0.3331322061879709  0.9249174911642652  0.9269387201542023  1.0000
  H   H15       1.0  0.3955699737734293  0.7557896509697679  0.9202528574494356  1.0000
  H   H16       1.0  0.40342381812915473  0.8618110295173199  0.07592830258093364  1.0000
  Zn  Zn1       1.0  0.9734363695339161  0.5635969295609218  0.41628880396339385  1.0000
  Zn  Zn2       1.0  0.16974807499661915  0.5635927955990718  0.4162839311658415  1.0000
  C   C23       1.0  0.0707024105666969  0.5602262780353626  0.6795325080862005  1.0000
  C   C24       1.0  0.07248416601939932  0.5669652675883039  0.15304037566153417  1.0000
  C   C25       1.0  0.06999615460462949  0.8268794539686561  0.4115839454782162  1.0000
  C   C26       1.0  0.07319036535354861  0.30031036006649314  0.42098900827093777  1.0000
  O   O2        1.0  0.14678098295028216  0.5693699842804956  0.20675076589095998  1.0000
  O   O3        1.0  0.1454016438747301  0.5578173323084389  0.6258180002745171  1.0000
  O   O4        1.0  0.14483032368826354  0.7731431577065662  0.40944764614112655  1.0000
  O   O5        1.0  0.14735223646626694  0.3540441682229957  0.42312101198833796  1.0000
  O   O6        1.0  0.9958321410727348  0.7731455569399104  0.40945172313498457  1.0000
  O   O7        1.0  0.9964034508955865  0.5578214631332123  0.6258220072610434  1.0000
  O   O8        1.0  0.9977827964435445  0.5693740492269905  0.20675303964303948  1.0000
  O   O9        1.0  0.998354049638478  0.35404822383177587  0.4231233937705172  1.0000
