data_image0
_chemical_formula_structural       NC12NC2H8C6NH7C6OCH6Zn2C4O8
_chemical_formula_sum              "N3 C31 H21 O9 Zn2"
_cell_length_a       19.240039667572717
_cell_length_b       9.274771166103584
_cell_length_c       9.273891588657152
_cell_angle_alpha    85.97469330815719
_cell_angle_beta     89.6801242657702
_cell_angle_gamma    90.59704977044065

_space_group_name_H-M_alt    "P 1"
_space_group_IT_number       1

loop_
  _space_group_symop_operation_xyz
  'x, y, z'

loop_
  _atom_site_type_symbol
  _atom_site_label
  _atom_site_symmetry_multiplicity
  _atom_site_fract_x
  _atom_site_fract_y
  _atom_site_fract_z
  _atom_site_occupancy
  N   N1        1.0  0.6666209358448546  0.564284326962202  0.40721930269698214  1.0000
  C   C1        1.0  0.6064725677371768  0.5642844194208787  0.4072192115899802  1.0000
  C   C2        1.0  0.5316545316541903  0.5642845483169974  0.4072190589656104  1.0000
  C   C3        1.0  0.4945171460143113  0.49371726209488176  0.5221213961161018  1.0000
  C   C4        1.0  0.42184552456111907  0.4935949714278711  0.522217668113194  1.0000
  C   C5        1.0  0.3853222979023603  0.5642846488515054  0.4072188060844723  1.0000
  C   C6        1.0  0.42317475010382566  0.63497453590897  0.2922201595956877  1.0000
  C   C7        1.0  0.49584456353946743  0.6348519848967291  0.2923165680228579  1.0000
  C   C8        1.0  0.3081172073036136  0.5642845605271767  0.40721870034335295  1.0000
  C   C9        1.0  0.2701739292856107  0.4389039235582885  0.45391586787120125  1.0000
  C   C10       1.0  0.19750410606634777  0.43902174461489474  0.45381429535936935  1.0000
  C   C11       1.0  0.161784919480177  0.5642844176633701  0.40721876820364955  1.0000
  C   C12       1.0  0.086966880959851  0.5642842938164615  0.40721904441085255  1.0000
  N   N2        1.0  0.0268185632677704  0.5642842505589123  0.40721927580977435  1.0000
  C   C13       1.0  0.19901324432939596  0.6895471744049173  0.3606231821948192  1.0000
  C   C14       1.0  0.2716848071954971  0.6896651938962748  0.36052142886505845  1.0000
  H   H1        1.0  0.5217161939545512  0.43908931162557874  0.6118330331302007  1.0000
  H   H2        1.0  0.39423758125233277  0.43986462174361196  0.6131657726163  1.0000
  H   H3        1.0  0.3965961629248713  0.6887049151317763  0.20127199860363562  1.0000
  H   H4        1.0  0.5240752856925415  0.6894798267633164  0.2026052373047904  1.0000
  H   H5        1.0  0.2966777833481178  0.3401902243131243  0.48868584114739655  1.0000
  H   H6        1.0  0.16920183139509767  0.3413171072087047  0.4897289258200315  1.0000
  H   H7        1.0  0.17188569537310117  0.7872517847034268  0.3247085679321998  1.0000
  H   H8        1.0  0.2993674325238389  0.7883789806355235  0.32575140574031125  1.0000
  C   C15       1.0  0.8445871876272002  0.140694842966117  0.4080049130327379  1.0000
  C   C16       1.0  0.8289345503492634  0.22284022722833383  0.2791089077204043  1.0000
  C   C17       1.0  0.8197733209953256  0.15662009246223252  0.14939511191292137  1.0000
  C   C18       1.0  0.8263036509634514  0.006868620572700429  0.1476377922569334  1.0000
  C   C19       1.0  0.8406757398166068  0.9233878270919511  0.27476314351320563  1.0000
  C   C20       1.0  0.8488589067184201  0.987862812307308  0.4064461424574075  1.0000
  N   N3        1.0  0.8045514533350122  0.2418521885481757  0.019082464702948387  1.0000
  H   H9        1.0  0.9219728538670634  0.22320227108244908  0.7234530858834973  1.0000
  H   H10       1.0  0.8254315800879951  0.33942793850850794  0.2785552369591826  1.0000
  H   H11       1.0  0.8195839645404499  0.9544806245558837  0.04783611318027693  1.0000
  H   H12       1.0  0.8437496635246235  0.8071865533622646  0.2706351240826821  1.0000
  H   H13       1.0  0.8981585583886186  0.6927335448588743  0.6210625906053648  1.0000
  H   H14       1.0  0.7997628961337219  0.35392566783558377  0.01903565012266496  1.0000
  H   H15       1.0  0.79789092939746  0.19350279471239548  0.9216511942688382  1.0000
  C   C21       1.0  0.8478423900279483  0.5604585468899717  0.9839572097289437  1.0000
  C   C22       1.0  0.9050681089650464  0.6213848080422972  0.05241879598777557  1.0000
  C   C23       1.0  0.9584057308259026  0.6930822377838004  0.972477117792776  1.0000
  C   C24       1.0  0.9547088928564649  0.70421485194441  0.8210160213936145  1.0000
  C   C25       1.0  0.8989389645364181  0.6424151808947707  0.7512138441066745  1.0000
  C   C26       1.0  0.8456036781139457  0.5680990174440128  0.8304937921864282  1.0000
  O   O1        1.0  0.013724391531329427  0.7522324991696906  0.0475748799488538  1.0000
  C   C27       1.0  0.0713413334615185  0.8281464365384876  0.9803588172622459  1.0000
  H   H16       1.0  0.682076701390211  0.4718634510284241  0.09513749054436674  1.0000
  H   H17       1.0  0.9950241328550556  0.759296489972581  0.7559925283608313  1.0000
  H   H18       1.0  0.7350282740299681  0.5027334521279403  0.5551714345899832  1.0000
  H   H19       1.0  0.053176764177951696  0.9257590554870694  0.915783633232235  1.0000
  H   H20       1.0  0.09996030644197583  0.7565572692761481  0.9100778702647526  1.0000
  H   H21       1.0  0.1070932577838548  0.8626250013636255  0.0651389157119373  1.0000
  Zn  Zn1       1.0  0.7705661581961817  0.56428052887795  0.4072276131713879  1.0000
  Zn  Zn2       1.0  0.922873269249407  0.5642763885514905  0.4072227503415342  1.0000
  C   C28       1.0  0.845996328327232  0.5609084014082293  0.6704908434552472  1.0000
  C   C29       1.0  0.8474447711103485  0.567650337280762  0.1439596581263456  1.0000
  C   C30       1.0  0.8480630645139641  0.8276781610830335  0.4009970125741053  1.0000
  C   C31       1.0  0.8453779740100443  0.3008788452603721  0.4134535690435519  1.0000
  O   O2        1.0  0.9051110497274606  0.5700561036170216  0.19765610760952473  1.0000
  O   O3        1.0  0.9039276184631264  0.55849840072945  0.6167902902800892  1.0000
  O   O4        1.0  0.9055957509395417  0.7739183689791935  0.3991721123951324  1.0000
  O   O5        1.0  0.9034428656167787  0.35463614471199056  0.4152741774043438  1.0000
  O   O6        1.0  0.7899965098538962  0.773920772720365  0.3991761861026528  1.0000
  O   O7        1.0  0.7883283863161392  0.5585025368191212  0.6167942839456206  1.0000
  O   O8        1.0  0.7895118219560745  0.5700601737996125  0.19765836842237738  1.0000
  O   O9        1.0  0.7878436375047453  0.354640205552783  0.4152765463014093  1.0000
