data_image0
_chemical_formula_structural       NC9NC5H8C7OC3OC4H12C7OC3OC4H12Zn2C4O8
_chemical_formula_sum              "N2 C46 H32 O12 Zn2"
_cell_length_a       17.807436237873137
_cell_length_b       10.299371110280156
_cell_length_c       10.299374482448636
_cell_angle_alpha    85.56563777426874
_cell_angle_beta     89.37372472773511
_cell_angle_gamma    88.40331171880233

_space_group_name_H-M_alt    "P 1"
_space_group_IT_number       1

loop_
  _space_group_symop_operation_xyz
  'x, y, z'

loop_
  _atom_site_type_symbol
  _atom_site_label
  _atom_site_symmetry_multiplicity
  _atom_site_fract_x
  _atom_site_fract_y
  _atom_site_fract_z
  _atom_site_occupancy
  N   N1        1.0  0.7078594488073122  0.3880810727153928  0.5575084776600265  1.0000
  C   C1        1.0  0.6472692732327013  0.3528939030041736  0.546473062989683  1.0000
  C   C2        1.0  0.5719017542449941  0.3091249389011237  0.5327462053694616  1.0000
  C   C3        1.0  0.5538201035960953  0.23773383707978835  0.427716749354828  1.0000
  C   C4        1.0  0.48064213205797873  0.19512606848236747  0.4143061887602104  1.0000
  C   C5        1.0  0.4244970485654814  0.2235318799872732  0.5058925125918448  1.0000
  C   C6        1.0  0.3467277289799651  0.17836569323379448  0.49172267335057496  1.0000
  C   C7        1.0  0.2845574633647562  0.2601158461434787  0.5176883097923327  1.0000
  C   C8        1.0  0.2112371575462922  0.21730503665125742  0.5042913670491209  1.0000
  C   C9        1.0  0.1480170923203192  0.3017464549047866  0.5306217666843369  1.0000
  N   N2        1.0  0.0972011475301149  0.3696315129378658  0.551790679638561  1.0000
  C   C10       1.0  0.19950354293571335  0.09248610043967574  0.46490335602689126  1.0000
  C   C11       1.0  0.2608164384290149  0.010722097159548754  0.4389293252005595  1.0000
  C   C12       1.0  0.3340172970482589  0.05313841221086513  0.4521235975162661  1.0000
  C   C13       1.0  0.4432701290771886  0.2954172976508096  0.6111413623224095  1.0000
  C   C14       1.0  0.5165009752230209  0.3378347074969654  0.6243962061321808  1.0000
  H   H1        1.0  0.596225178017028  0.21526493479219377  0.35599407737883465  1.0000
  H   H2        1.0  0.46773765107966453  0.14146271168335509  0.3313655671703662  1.0000
  H   H3        1.0  0.2930625584803129  0.3575740094057346  0.5465971128443265  1.0000
  H   H4        1.0  0.1430359471415921  0.058452515284614925  0.45429736037649904  1.0000
  H   H5        1.0  0.2516133271991496  0.9140843045868178  0.40882032079509  1.0000
  H   H6        1.0  0.3806529049654697  0.9873978167101667  0.43305378782108295  1.0000
  H   H7        1.0  0.4015816264457092  0.317346857580201  0.6841584147822478  1.0000
  H   H8        1.0  0.5299341582919022  0.3927188844216005  0.7062955430007272  1.0000
  C   C15       1.0  0.9024832579528697  0.9974871643601193  0.5545354851383322  1.0000
  C   C16       1.0  0.8938522416162166  0.0072174668137730035  0.4186742455578649  1.0000
  C   C17       1.0  0.8886503606211529  0.8949784151570929  0.35033025120553  1.0000
  C   C18       1.0  0.8938894744470441  0.7719477441367789  0.41898479134460664  1.0000
  C   C19       1.0  0.9025845177888159  0.7602151269644856  0.5547748554339462  1.0000
  C   C20       1.0  0.906634397734483  0.8735938609511323  0.621805036484793  1.0000
  C   C21       1.0  0.8803201068568388  0.9050878161370796  0.20670251457992972  1.0000
  O   O1        1.0  0.9111276297326001  0.818605192131884  0.14222578358814886  1.0000
  C   C22       1.0  0.8370319112334573  0.01322597413915982  0.13622588614600664  1.0000
  C   C23       1.0  0.8580541363329145  0.05742162542318585  0.008771906725447476  1.0000
  C   C24       1.0  0.8174318179365678  0.1583772008344171  0.9399862034864533  1.0000
  O   O2        1.0  0.8414403801315807  0.19907843604418393  0.8135331003353952  1.0000
  C   C25       1.0  0.8056449659451569  0.30028011805504407  0.7326220654184828  1.0000
  C   C26       1.0  0.7544009828428103  0.21520818446581555  0.9994011858354074  1.0000
  C   C27       1.0  0.7326077462120723  0.17075960983226016  0.12534939696699632  1.0000
  C   C28       1.0  0.7733635219056998  0.07007919918116999  0.1933809467295371  1.0000
  H   H9        1.0  0.9199173543876343  0.18641024681832907  0.8106778558927233  1.0000
  H   H10       1.0  0.8920017591787808  0.10225286567482005  0.36567057953916593  1.0000
  H   H11       1.0  0.8904450294056746  0.6852638153132757  0.366311808613087  1.0000
  H   H12       1.0  0.9132887624517804  0.8652886865801999  0.7265440902363163  1.0000
  H   H13       1.0  0.9065496766843307  0.42823110435017525  0.6068045949135212  1.0000
  H   H14       1.0  0.9066361707741758  0.014234821663871028  0.9626846406908411  1.0000
  H   H15       1.0  0.836308251330089  0.3119417645155811  0.6382988765201425  1.0000
  H   H16       1.0  0.8067431495419244  0.39367300089755464  0.7796259947039008  1.0000
  H   H17       1.0  0.7467735436187668  0.2748414474546088  0.7137219953074987  1.0000
  H   H18       1.0  0.7217782700257186  0.2932660339160187  0.948990725071206  1.0000
  H   H19       1.0  0.683742003156029  0.21412156818376252  0.17021907135483597  1.0000
  H   H20       1.0  0.7546049941927276  0.03579571100848899  0.2900371504214221  1.0000
  C   C29       1.0  0.9026034904715668  0.37893533277102365  0.17327163058705788  1.0000
  C   C30       1.0  0.981077020883232  0.38988114944396957  0.16975244836521536  1.0000
  C   C31       1.0  0.020562194188940227  0.3968777993642576  0.05069153792889991  1.0000
  C   C32       1.0  0.9808974400674129  0.3898257880270089  0.9345162147178528  1.0000
  C   C33       1.0  0.9024642674208722  0.3787669360668744  0.9360386473307406  1.0000
  C   C34       1.0  0.8637499117772722  0.3737277343730479  0.05591634215556396  1.0000
  C   C35       1.0  0.10351281161076063  0.4070731332286746  0.04693879739497887  1.0000
  O   O3        1.0  0.1403631852972398  0.3517846205359644  0.9605335861592712  1.0000
  C   C36       1.0  0.14465536015274272  0.48000529110720525  0.14112605760881425  1.0000
  C   C37       1.0  0.21794632589779625  0.4398142661842055  0.17820241638813572  1.0000
  C   C38       1.0  0.2580835524166415  0.5081767110189501  0.2658384982903259  1.0000
  O   O4        1.0  0.33076367320210287  0.46284024998525486  0.30005114929917603  1.0000
  C   C39       1.0  0.377841638086327  0.5224803902837554  0.38777163910346824  1.0000
  C   C40       1.0  0.22451458470697716  0.6191545763573485  0.31628067748838595  1.0000
  C   C41       1.0  0.15210093126801905  0.6606372480219034  0.2786813014649534  1.0000
  C   C42       1.0  0.1123972787348948  0.5920212472850859  0.19127981119959106  1.0000
  H   H21       1.0  0.7546424440944127  0.3562856195261781  0.38738617686227417  1.0000
  H   H22       1.0  0.011675027944576316  0.39152321789585254  0.2598953518126517  1.0000
  H   H23       1.0  0.011322511864558125  0.3942396591347092  0.8426776378870593  1.0000
  H   H24       1.0  0.8032525530875931  0.3652884580057669  0.05782565882588232  1.0000
  H   H25       1.0  0.8724044420793591  0.37343176856401206  0.6092491830897515  1.0000
  H   H26       1.0  0.24398874607101104  0.3542677098041418  0.1399148333997593  1.0000
  H   H27       1.0  0.4319117710218574  0.46656073912747403  0.3969194191815353  1.0000
  H   H28       1.0  0.35071334050484926  0.5219649587765385  0.4854041734139838  1.0000
  H   H29       1.0  0.38940507137897207  0.6239386731351504  0.3499724905495203  1.0000
  H   H30       1.0  0.25396163146917905  0.674197182269886  0.3840569987639457  1.0000
  H   H31       1.0  0.1267641364545249  0.7466394193700059  0.3169876072927651  1.0000
  H   H32       1.0  0.05684780095980768  0.627380475353466  0.16188175851367204  1.0000
  Zn  Zn1       1.0  0.820215049791313  0.3827534613513459  0.5558659546550231  1.0000
  Zn  Zn2       1.0  0.984845524994947  0.37494853576940734  0.5534438763426381  1.0000
  C   C43       1.0  0.90248822782211  0.37362517639941606  0.7918577854339086  1.0000
  C   C44       1.0  0.902574144918082  0.38407837408346235  0.31745214710028585  1.0000
  C   C45       1.0  0.9025624488420557  0.6160446233956676  0.5495542815725525  1.0000
  C   C46       1.0  0.9024998675014947  0.14165736943240592  0.5597557205397716  1.0000
  O   O5        1.0  0.9650407028909777  0.38283683140534636  0.3649212776726538  1.0000
  O   O6        1.0  0.9649723911770542  0.36894198151441926  0.7425499792977078  1.0000
  O   O7        1.0  0.9650314831309902  0.5646987904063349  0.5468881984069075  1.0000
  O   O8        1.0  0.9649815547788181  0.18708003448844288  0.5605829620144609  1.0000
  O   O9        1.0  0.8400789638271421  0.570621965297164  0.5487268698029061  1.0000
  O   O10       1.0  0.8400198720895474  0.3748667167249053  0.7443885819352827  1.0000
  O   O11       1.0  0.8400881841324119  0.3887615217021927  0.36675831883476473  1.0000
  O   O12       1.0  0.8400290359981759  0.19300471547512998  0.5624201005452709  1.0000
