data_image0
_chemical_formula_structural       NC5N2C2NH4C10H6C8H10Zn2C4O8
_chemical_formula_sum              "N4 C29 H20 Zn2 O8"
_cell_length_a       13.87973921873968
_cell_length_b       9.275150299802176
_cell_length_c       9.275657083861812
_cell_angle_alpha    85.52524859498646
_cell_angle_beta     89.50283704034044
_cell_angle_gamma    89.48389152441209

_space_group_name_H-M_alt    "P 1"
_space_group_IT_number       1

loop_
  _space_group_symop_operation_xyz
  'x, y, z'

loop_
  _atom_site_type_symbol
  _atom_site_label
  _atom_site_symmetry_multiplicity
  _atom_site_fract_x
  _atom_site_fract_y
  _atom_site_fract_z
  _atom_site_occupancy
  N   N1        1.0  0.9070502888822203  0.5708505558153365  0.4010062424496952  1.0000
  C   C1        1.0  0.8341243725206092  0.5951069735762624  0.34422837858392064  1.0000
  C   C2        1.0  0.7435530787832216  0.6252358129938076  0.2737041374940199  1.0000
  C   C3        1.0  0.6568705015787308  0.594901063716208  0.3470768331181522  1.0000
  C   C4        1.0  0.5706736777848279  0.6252357485400035  0.2737041777637946  1.0000
  C   C5        1.0  0.47964725225231647  0.5951068282772933  0.3442282761776513  1.0000
  N   N2        1.0  0.40635485794658155  0.5708505311240694  0.40100623159595394  1.0000
  N   N3        1.0  0.5727696339013114  0.6831915036405802  0.13461470410605347  1.0000
  C   C6        1.0  0.6577907971167335  0.7134727852607379  0.06528573276149287  1.0000
  C   C7        1.0  0.6583247653377192  0.7732278888349869  0.911192446275043  1.0000
  N   N4        1.0  0.7423725327796131  0.6831914570102375  0.13461471512176493  1.0000
  H   H1        1.0  0.6565060404183918  0.548527235053966  0.4580734594698421  1.0000
  H   H2        1.0  0.723050736550325  0.8410165895617676  0.8884113392387087  1.0000
  H   H3        1.0  0.6592853527172465  0.6828718339600257  0.8394817584314531  1.0000
  H   H4        1.0  0.5930459330525192  0.8410145209313362  0.8884105849269353  1.0000
  C   C8        1.0  0.1592352068327247  0.14715738352819985  0.40341952102498035  1.0000
  C   C9        1.0  0.21053740285942912  0.2286498316573227  0.29436082921200124  1.0000
  C   C10       1.0  0.2536092920850159  0.16191221963141533  0.1797599169230817  1.0000
  C   C11       1.0  0.24581787353402063  0.012708694134898387  0.1727415845182572  1.0000
  C   C12       1.0  0.19662285406375624  0.9297690807740553  0.28115241226732435  1.0000
  C   C13       1.0  0.15417911413066343  0.9945326155266789  0.39860550099293146  1.0000
  C   C14       1.0  0.3049377230473844  0.24713401001881088  0.06820770911677855  1.0000
  C   C15       1.0  0.3479125627915675  0.31850975468197706  0.9748152605872581  1.0000
  C   C16       1.0  0.39823410741580084  0.40209571430531527  0.8654567764048147  1.0000
  C   C17       1.0  0.4412006616651632  0.4734660686832797  0.7720822305512245  1.0000
  H   H5        1.0  0.1122155928143651  0.4106557753672453  0.6323295355563887  1.0000
  H   H6        1.0  0.21515352249834335  0.34510962266012224  0.2965877683910627  1.0000
  H   H7        1.0  0.2786311135523334  0.9601085157820362  0.08406455677139468  1.0000
  H   H8        1.0  0.19371267316563046  0.8137370860516403  0.2749288427450354  1.0000
  H   H9        1.0  0.08957874789411141  0.8658192411319143  0.7411042756039519  1.0000
  H   H10       1.0  0.4789288800463767  0.5361352996764184  0.6900916670457554  1.0000
  C   C18       1.0  0.15917428938729272  0.5686700051393785  0.9777049854985349  1.0000
  C   C19       1.0  0.2084256736998351  0.6786549361732235  0.04202052870371852  1.0000
  C   C20       1.0  0.24913300709124275  0.7948151226269958  0.9576220232578239  1.0000
  C   C21       1.0  0.24202473855110473  0.8000060403578789  0.806953646534844  1.0000
  C   C22       1.0  0.19485041717114315  0.6906670935691168  0.7411818295816045  1.0000
  C   C23       1.0  0.1542400570527518  0.5730200052008565  0.8243200591485342  1.0000
  C   C24       1.0  0.3028046067473375  0.9105157627784132  0.028164612909187932  1.0000
  C   C25       1.0  0.40887655783892346  0.8693448780372146  0.04624312309979817  1.0000
  H   H11       1.0  0.11730111811499122  0.3384976446323391  0.27683967432861833  1.0000
  H   H12       1.0  0.21342307623687007  0.6759800071771205  0.15876075119782418  1.0000
  H   H13       1.0  0.27397919662321324  0.888190042249843  0.7400664314757465  1.0000
  H   H14       1.0  0.19233756347857375  0.6962898158125619  0.6241755659315724  1.0000
  H   H15       1.0  0.04147693174705602  0.40673487653977736  0.5574303497291493  1.0000
  H   H16       1.0  0.2969032677335639  0.015259526959782829  0.9617292426502742  1.0000
  H   H17       1.0  0.2706624515583025  0.9268563426255098  0.1359482748865073  1.0000
  H   H18       1.0  0.4163476781054766  0.7667051915942054  0.11557441646436706  1.0000
  H   H19       1.0  0.44286078244178917  0.8560659956633637  0.9391437489614339  1.0000
  H   H20       1.0  0.4471046190606729  0.9559552139722831  0.09831768789869288  1.0000
  Zn  Zn1       1.0  0.05113877753737728  0.5708467251277869  0.40101458832164716  1.0000
  Zn  Zn2       1.0  0.2622663565703465  0.5708426036383076  0.4010097697139824  1.0000
  C   C26       1.0  0.15520488138292743  0.5664499221487753  0.6643243132866015  1.0000
  C   C27       1.0  0.1582025465445209  0.5752412277725922  0.13770017583787375  1.0000
  C   C28       1.0  0.1551633671840533  0.8343311661574286  0.39377117092375397  1.0000
  C   C29       1.0  0.15824399859552019  0.3073582506955188  0.4082534049030606  1.0000
  O   O1        1.0  0.2379982742696456  0.577438731508904  0.1913942304132073  1.0000
  O   O2        1.0  0.23565010989713642  0.5642481997132642  0.610626192725789  1.0000
  O   O3        1.0  0.23561549784037505  0.7805656997934896  0.392152607561181  1.0000
  O   O4        1.0  0.23803281485120809  0.361121241195991  0.40986770743799905  1.0000
  O   O5        1.0  0.07537224720906965  0.7805680875730424  0.3921566505916832  1.0000
  O   O6        1.0  0.0754068493662596  0.5642523205641747  0.6106301490480048  1.0000
  O   O7        1.0  0.0777550242037026  0.5774427931764309  0.19139645391531523  1.0000
  O   O8        1.0  0.07778956421301819  0.36112529309914376  0.4098700390739772  1.0000
