data_image0
_chemical_formula_structural       NC11NC3H8C12OCH12C12SCH12Zn2C4O8
_chemical_formula_sum              "N2 C44 H32 O9 S1 Zn2"
_cell_length_a       17.807433833752565
_cell_length_b       10.299790755002418
_cell_length_c       10.299780138516091
_cell_angle_alpha    85.57237843546017
_cell_angle_beta     88.51639907153644
_cell_angle_gamma    90.6669456681986

_space_group_name_H-M_alt    "P 1"
_space_group_IT_number       1

loop_
  _space_group_symop_operation_xyz
  'x, y, z'

loop_
  _atom_site_type_symbol
  _atom_site_label
  _atom_site_symmetry_multiplicity
  _atom_site_fract_x
  _atom_site_fract_y
  _atom_site_fract_z
  _atom_site_occupancy
  N   N1        1.0  0.7072725920579574  0.43804081416220364  0.5346293175894171  1.0000
  C   C1        1.0  0.6564540782730313  0.4033335762046606  0.6011908069297733  1.0000
  C   C2        1.0  0.5932307216546864  0.3601606321861657  0.6839848055942693  1.0000
  C   C3        1.0  0.6049595304171308  0.29664634232228426  0.806701607779764  1.0000
  C   C4        1.0  0.5436434476612527  0.25515249978423515  0.8872116749571741  1.0000
  C   C5        1.0  0.4704442140514617  0.27685986594981077  0.8456457259420849  1.0000
  C   C6        1.0  0.4577386204554607  0.34052857336900644  0.72246873824772  1.0000
  C   C7        1.0  0.3799711489684207  0.363565245945142  0.6781221825100703  1.0000
  C   C8        1.0  0.36120064537953184  0.3466559099687592  0.5485490338732517  1.0000
  C   C9        1.0  0.2879714795268096  0.36832453586158787  0.5069390179476034  1.0000
  C   C10       1.0  0.23256975104382452  0.4072207860356594  0.5940818943835915  1.0000
  C   C11       1.0  0.15720385341267076  0.4295474786828133  0.5511106052710266  1.0000
  N   N2        1.0  0.0966150452092912  0.4474964808622098  0.5165648162686414  1.0000
  C   C12       1.0  0.25064869528933464  0.42434054403359595  0.7231239202244722  1.0000
  C   C13       1.0  0.3238250857016178  0.4026370619937519  0.7649893557065621  1.0000
  C   C14       1.0  0.5199120146248651  0.38201785574559843  0.6419750864229791  1.0000
  H   H1        1.0  0.6614257998705955  0.27924164762006126  0.8400667137759075  1.0000
  H   H2        1.0  0.5528429050372714  0.2057279996894581  0.9819465835495166  1.0000
  H   H3        1.0  0.4238061167715322  0.24232245498006025  0.9090840675109009  1.0000
  H   H4        1.0  0.4028899423535222  0.3149946621168631  0.4798378323878534  1.0000
  H   H5        1.0  0.2745402423365754  0.3544151844790009  0.4069101215982709  1.0000
  H   H6        1.0  0.2082428711281726  0.45477863106740424  0.7913204575205722  1.0000
  H   H7        1.0  0.336727631504628  0.41809175228314466  0.8648354052108819  1.0000
  H   H8        1.0  0.511410775634248  0.4328047601966261  0.5474743936813506  1.0000
  C   C15       1.0  0.9020149184324535  0.06140262687355569  0.5256326934077254  1.0000
  C   C16       1.0  0.8802578139791923  0.04974433074898555  0.658074628051212  1.0000
  C   C17       1.0  0.8691737093180504  0.9266992412165254  0.7251535796638466  1.0000
  C   C18       1.0  0.8801228499723194  0.8144587416498974  0.6580151077761615  1.0000
  C   C19       1.0  0.9018799211502285  0.8241248219411232  0.5255722422016244  1.0000
  C   C20       1.0  0.9127058767441271  0.9480351972876407  0.46012321571758186  1.0000
  C   C21       1.0  0.8461605021230825  0.9154196393022292  0.8652707533750671  1.0000
  C   C22       1.0  0.7913414570090971  0.8232344717542386  0.9128778568590386  1.0000
  C   C23       1.0  0.769749700412471  0.812893689070881  0.04461312752046343  1.0000
  C   C24       1.0  0.8024908506877592  0.8940581832061875  0.13043845805617973  1.0000
  C   C25       1.0  0.8575097485868781  0.9868578045027339  0.08469370771246454  1.0000
  C   C26       1.0  0.8788686487950429  0.9968315994220721  0.9524425638221596  1.0000
  O   O1        1.0  0.8922290286408185  0.07042400420831643  0.16694766492849888  1.0000
  C   C27       1.0  0.8761120017277861  0.07104682962956255  0.3030257794131357  1.0000
  H   H9        1.0  0.9103381832882809  0.3932972196317317  0.47518639691808257  1.0000
  H   H10       1.0  0.8708852037375323  0.13655668431735246  0.7089361023396252  1.0000
  H   H11       1.0  0.8726294810691452  0.7193905241870747  0.709728462849258  1.0000
  H   H12       1.0  0.9294911417737612  0.9562606977557054  0.3579498319618095  1.0000
  H   H13       1.0  0.910132978523272  0.5003556637440382  0.47509156968022476  1.0000
  H   H14       1.0  0.7644759875493669  0.7603351066661169  0.8479176496029279  1.0000
  H   H15       1.0  0.7273178366118919  0.7419022323546944  0.08025922365073491  1.0000
  H   H16       1.0  0.7846792016616085  0.8839032992759908  0.23192716477239878  1.0000
  H   H17       1.0  0.9219065519288384  0.06741197307561508  0.9182811419125294  1.0000
  H   H18       1.0  0.8890854212349002  0.974846529489575  0.35304426185599735  1.0000
  H   H19       1.0  0.9115599030039558  0.14655813910161242  0.343593593125022  1.0000
  H   H20       1.0  0.8161380281457137  0.0945048468281804  0.32024329657959283  1.0000
  C   C28       1.0  0.9019776243457939  0.44265316912511365  0.14424898061708147  1.0000
  C   C29       1.0  0.8305568507533161  0.38290727410547687  0.15106222039108141  1.0000
  C   C30       1.0  0.7943376355962007  0.3527470972801517  0.03736899645336478  1.0000
  C   C31       1.0  0.8304953058232851  0.38313121763203045  0.9157611597296567  1.0000
  C   C32       1.0  0.9019172000630146  0.442874316394583  0.9069560299100449  1.0000
  C   C33       1.0  0.9372583833300241  0.47230152652393675  0.021741525954403606  1.0000
  C   C34       1.0  0.7187794136670101  0.28955595080012325  0.04563968862871338  1.0000
  C   C35       1.0  0.663133103529439  0.3298653529627809  0.9572614270238479  1.0000
  C   C36       1.0  0.59203417826734  0.2703601472887652  0.9652815490867113  1.0000
  C   C37       1.0  0.5755444956584187  0.17015020006762338  0.061618083608509844  1.0000
  C   C38       1.0  0.6305223359196332  0.12902563307055592  0.14962177997555215  1.0000
  C   C39       1.0  0.7016677696336558  0.18835853898656432  0.14196192311114508  1.0000
  S   S1        1.0  0.4843456394874902  0.09366438831330327  0.07145736607505482  1.0000
  C   C40       1.0  0.4457994051462336  0.20694311669232104  0.18196479412859357  1.0000
  H   H21       1.0  0.9292031723387758  0.4653718346684148  0.46910932926721904  1.0000
  H   H22       1.0  0.8024844142850694  0.3613032525962907  0.24491588900924643  1.0000
  H   H23       1.0  0.8032567550848697  0.3584683737710743  0.8279548513635976  1.0000
  H   H24       1.0  0.9923566447799728  0.5183921619914311  0.015717021380498245  1.0000
  H   H25       1.0  0.9291155593327598  0.4656971696410178  0.5761437969335057  1.0000
  H   H26       1.0  0.6742904602008322  0.40850387562738  0.8830586477748322  1.0000
  H   H27       1.0  0.5496989735702373  0.3026651494853551  0.8969115830741373  1.0000
  H   H28       1.0  0.618216624423177  0.05105519362363652  0.22400264385155144  1.0000
  H   H29       1.0  0.7435991379526438  0.15399274759410253  0.21024999030152983  1.0000
  H   H30       1.0  0.477568218677293  0.20168457669179313  0.27350543517921194  1.0000
  H   H31       1.0  0.3861854567995259  0.1803666502319992  0.20550528108947774  1.0000
  H   H32       1.0  0.4486855204650963  0.30773488265592364  0.13523078872533434  1.0000
  Zn  Zn1       1.0  0.8196284135984168  0.4407660428749563  0.529423777214664  1.0000
  Zn  Zn2       1.0  0.9842592099494257  0.44476063570504404  0.5217809430703833  1.0000
  C   C41       1.0  0.9019278539769936  0.437658827519255  0.7627885314422684  1.0000
  C   C42       1.0  0.9019615670338537  0.44786953332603496  0.28841623271480143  1.0000
  C   C43       1.0  0.9019019629678128  0.6799525207816968  0.520408924380394  1.0000
  C   C44       1.0  0.9019874021367745  0.2055742784295147  0.5307959117440408  1.0000
  O   O2        1.0  0.9644327082908486  0.451130454265311  0.3338996642248099  1.0000
  O   O3        1.0  0.9644076780561428  0.43742873028576046  0.7115039919065486  1.0000
  O   O4        1.0  0.9643859284183033  0.6330839317732442  0.5157807833207703  1.0000
  O   O5        1.0  0.9644544017574199  0.25547526067666526  0.5296227780470996  1.0000
  O   O6        1.0  0.839433165610012  0.6300514165415882  0.5215819448392416  1.0000
  O   O7        1.0  0.8394549149737014  0.4343977753264364  0.7173050840589483  1.0000
  O   O8        1.0  0.8394799453900949  0.4480994535988727  0.3396991950408532  1.0000
  O   O9        1.0  0.8395016388475237  0.25244425074964205  0.5354224062279251  1.0000
