data_image0
_chemical_formula_structural       NC12NC2H8C6N2CH8C10IC2H9Zn2C4O8
_chemical_formula_sum              "N4 C37 H25 I1 Zn2 O8"
_cell_length_a       17.80743265337812
_cell_length_b       10.299967256147015
_cell_length_c       10.299773630820606
_cell_angle_alpha    85.53998836645671
_cell_angle_beta     91.53904260144846
_cell_angle_gamma    89.43509675075555

_space_group_name_H-M_alt    "P 1"
_space_group_IT_number       1

loop_
  _space_group_symop_operation_xyz
  'x, y, z'

loop_
  _atom_site_type_symbol
  _atom_site_label
  _atom_site_symmetry_multiplicity
  _atom_site_fract_x
  _atom_site_fract_y
  _atom_site_fract_z
  _atom_site_occupancy
  N   N1        1.0  0.7073348122333933  0.4070484104593173  0.6013040579784708  1.0000
  C   C1        1.0  0.6565108378849206  0.4366260016403105  0.5326051332517927  1.0000
  C   C2        1.0  0.5932807995303011  0.47341837706464285  0.4471523188700233  1.0000
  C   C3        1.0  0.6049998112448851  0.527473705800325  0.32053223579955925  1.0000
  C   C4        1.0  0.5436772734561399  0.5627618463150541  0.2374754240705537  1.0000
  C   C5        1.0  0.47048138096439707  0.5442583035373145  0.2803787920751315  1.0000
  C   C6        1.0  0.45778562407843126  0.4900840419955193  0.40746701655952  1.0000
  C   C7        1.0  0.5199654769725348  0.4547991599816632  0.49050731666639186  1.0000
  C   C8        1.0  0.3800216981764851  0.47046558751943235  0.4532306823483374  1.0000
  C   C9        1.0  0.3612434670088182  0.49761550426069945  0.5802730694594773  1.0000
  C   C10       1.0  0.2880176308157169  0.4791535224326353  0.6232169988298024  1.0000
  C   C11       1.0  0.2326271096299785  0.43328712155882876  0.5399565086686273  1.0000
  C   C12       1.0  0.1572647581972896  0.4142719316090948  0.5843013675243067  1.0000
  N   N2        1.0  0.09667876450498772  0.3989849977706146  0.6199515834150273  1.0000
  C   C13       1.0  0.25071388237759284  0.40596814311590834  0.4134570906366499  1.0000
  C   C14       1.0  0.323886847425454  0.4244449821387151  0.37025727626645627  1.0000
  H   H1        1.0  0.661463246040509  0.5423068371819939  0.28609515347989634  1.0000
  H   H2        1.0  0.5528689851166902  0.6048854980190677  0.13969610657510656  1.0000
  H   H3        1.0  0.4238377521299957  0.5739116269264593  0.21478778159010983  1.0000
  H   H4        1.0  0.5114721525394691  0.4112902653933803  0.5881622292431781  1.0000
  H   H5        1.0  0.4029236656743768  0.5347755005678082  0.6458444977959711  1.0000
  H   H6        1.0  0.2745802195503667  0.5009710155561078  0.7212243334904278  1.0000
  H   H7        1.0  0.20831681964133614  0.3700752846013895  0.34829857675744136  1.0000
  H   H8        1.0  0.3367958966185852  0.4010918904039502  0.2725533180048467  1.0000
  C   C15       1.0  0.9020115095588078  0.021656430272361187  0.6106537930294554  1.0000
  C   C16       1.0  0.8943193842092653  0.03136139913653113  0.47409633913789495  1.0000
  C   C17       1.0  0.8904544732545294  0.9195691604389479  0.40548218880572984  1.0000
  C   C18       1.0  0.8943149148056917  0.7961518113239573  0.4740156466826029  1.0000
  C   C19       1.0  0.9020092456541768  0.7843668846920919  0.6106133400841713  1.0000
  C   C20       1.0  0.9058097968145232  0.8976970712528104  0.6780834930256423  1.0000
  N   N3        1.0  0.8826110233883523  0.9342292798654198  0.2662376306344083  1.0000
  N   N4        1.0  0.8787400033421308  0.8370082417623005  0.19751637146581216  1.0000
  C   C21       1.0  0.8708026685479913  0.8562261883281053  0.05660356559675917  1.0000
  H   H9        1.0  0.9165370520868519  0.21063712157474512  0.8685130342487303  1.0000
  H   H10       1.0  0.8912843249336803  0.12597463803198838  0.4202157053653579  1.0000
  H   H11       1.0  0.8913293217000768  0.7095125473710042  0.42101292945334295  1.0000
  H   H12       1.0  0.9117379451293975  0.8894074891383689  0.7833258435666075  1.0000
  H   H13       1.0  0.916540289341553  0.5548877223706178  0.8685830576336208  1.0000
  H   H14       1.0  0.8181669104930107  0.9115018405507278  0.02908558623629465  1.0000
  H   H15       1.0  0.8684698516020989  0.7600491037230661  0.015187259793417066  1.0000
  H   H16       1.0  0.9196427614777608  0.9107325090038846  0.016740067500014003  1.0000
  C   C22       1.0  0.9019905676160722  0.4031301880676552  0.22926251403822318  1.0000
  C   C23       1.0  0.9777343099893927  0.43975253980199325  0.22893583781204407  1.0000
  C   C24       1.0  0.01613423109001966  0.45818881977252834  0.11164203630152181  1.0000
  C   C25       1.0  0.9777743111271594  0.43951292667377834  0.9936699239252764  1.0000
  C   C26       1.0  0.9020301916884682  0.402893135307004  0.9920046277378223  1.0000
  C   C27       1.0  0.8645625481215935  0.38490615831899616  0.1103026288067226  1.0000
  C   C28       1.0  0.09626394102518909  0.4969308527226499  0.1123500082188116  1.0000
  C   C29       1.0  0.1475261100552998  0.4398564193663761  0.03136043314736359  1.0000
  C   C30       1.0  0.22292402900236089  0.4764476398632143  0.03222709898910293  1.0000
  C   C31       1.0  0.2480254575043237  0.57030796875815  0.11368908791949896  1.0000
  I   I1        1.0  0.36179329369803614  0.6253155126413443  0.11469248393308919  1.0000
  C   C32       1.0  0.1976329579104592  0.6276664263253862  0.1944851379280286  1.0000
  C   C33       1.0  0.12219285377518972  0.5913272369312369  0.19402079298015273  1.0000
  H   H17       1.0  0.8731190709894647  0.3892325186257915  0.5568354135882967  1.0000
  H   H18       1.0  0.007336196505601799  0.4522911511158707  0.32026604094268407  1.0000
  H   H19       1.0  0.0068274017285130375  0.4553331475943625  0.9028581653909784  1.0000
  H   H20       1.0  0.8061295397619429  0.3566547256324668  0.10978622989660392  1.0000
  H   H21       1.0  0.8731775642160086  0.3888835162039786  0.6639213082246105  1.0000
  H   H22       1.0  0.12951963504413988  0.3657707784636756  0.96866375843539  1.0000
  H   H23       1.0  0.26183558571871757  0.43155695016668244  0.9697846111329604  1.0000
  H   H24       1.0  0.2168297991817718  0.7006527726250955  0.25744023668947325  1.0000
  H   H25       1.0  0.08395325484507254  0.6382179320500094  0.25622128312510767  1.0000
  Zn  Zn1       1.0  0.8196910703046489  0.40471801420852316  0.6066928181692155  1.0000
  Zn  Zn2       1.0  0.9843225045215055  0.4013047975114419  0.6145734168965495  1.0000
  C   C34       1.0  0.9020210471843328  0.39776438821963406  0.8478302577396897  1.0000
  C   C35       1.0  0.9019943254137512  0.40826002477064766  0.37343619076232715  1.0000
  C   C36       1.0  0.9020055481669648  0.6402000395788827  0.6054456356317794  1.0000
  C   C37       1.0  0.9020097682621206  0.16582281428762616  0.6158208795028273  1.0000
  O   O1        1.0  0.9644723578830678  0.40868068126937973  0.4248128401608471  1.0000
  O   O2        1.0  0.964494463956992  0.3947521996403558  0.802434426634328  1.0000
  O   O3        1.0  0.9644811061578619  0.5905220711717096  0.6067070889833088  1.0000
  O   O4        1.0  0.9644856594995543  0.21291082022300367  0.6205400777470408  1.0000
  O   O5        1.0  0.8395278591459707  0.593111992663141  0.6007261546226317  1.0000
  O   O6        1.0  0.839541216933471  0.3973436814217397  0.7964534229449688  1.0000
  O   O7        1.0  0.8395191108285139  0.41127211828014065  0.4188302750667501  1.0000
  O   O8        1.0  0.839532412447015  0.2155022479149669  0.614557610021677  1.0000
