data_image0
_chemical_formula_structural       NC5NC4H6C6NCH9C9H10Zn2C4O8
_chemical_formula_sum              "N3 C29 H25 Zn2 O8"
_cell_length_a       13.854160002989762
_cell_length_b       9.273386996610926
_cell_length_c       10.297187173949778
_cell_angle_alpha    85.47297527559209
_cell_angle_beta     89.97408711938004
_cell_angle_gamma    89.39858485477477

_space_group_name_H-M_alt    "P 1"
_space_group_IT_number       1

loop_
  _space_group_symop_operation_xyz
  'x, y, z'

loop_
  _atom_site_type_symbol
  _atom_site_label
  _atom_site_symmetry_multiplicity
  _atom_site_fract_x
  _atom_site_fract_y
  _atom_site_fract_z
  _atom_site_occupancy
  N   N1        1.0  0.898299604030563  0.5786779825482793  0.5648321514189903  1.0000
  C   C1        1.0  0.8258076753879501  0.6038909955760268  0.5115888107441283  1.0000
  C   C2        1.0  0.7356266938060799  0.635256667558034  0.4453520566911928  1.0000
  C   C3        1.0  0.6482408940516883  0.6057724537215183  0.5100246680223742  1.0000
  C   C4        1.0  0.5604842813411648  0.6352566818893535  0.44535203578943117  1.0000
  C   C5        1.0  0.4706995350310534  0.6038908482195573  0.5115888935215958  1.0000
  N   N2        1.0  0.398526033879001  0.5786779190305678  0.5648321514348631  1.0000
  C   C6        1.0  0.5601418354535792  0.6948317141710068  0.31602301087724105  1.0000
  C   C7        1.0  0.6474798234548685  0.7264667432402556  0.2512540097805976  1.0000
  C   C8        1.0  0.6471065250937462  0.7862816057202473  0.11157202152850232  1.0000
  C   C9        1.0  0.7352189245259843  0.6948317128343591  0.31602292953051375  1.0000
  H   H1        1.0  0.648532027263739  0.5595512056748542  0.6101231231775834  1.0000
  H   H2        1.0  0.4921326618973671  0.7166185949301633  0.26584556668074893  1.0000
  H   H3        1.0  0.711489006169768  0.8544616560308465  0.0900372911443166  1.0000
  H   H4        1.0  0.5817805284781343  0.8544616579161667  0.09003734978874722  1.0000
  H   H5        1.0  0.6477644798831804  0.6957190093659326  0.04722932780833311  1.0000
  H   H6        1.0  0.8029556202148124  0.7166187074402224  0.265845489537585  1.0000
  C   C10       1.0  0.15138540097575423  0.15502404463134928  0.5654704841725899  1.0000
  C   C11       1.0  0.1683728744545442  0.23848358968384709  0.4480201346130908  1.0000
  C   C12       1.0  0.1762721835705285  0.17396464649540247  0.3305625241743982  1.0000
  C   C13       1.0  0.16730392533964086  0.02366357182639267  0.3275521450489298  1.0000
  C   C14       1.0  0.15201757620503242  0.9392410563802204  0.44459449851824223  1.0000
  C   C15       1.0  0.1454495340581814  0.002320729052961648  0.5642051263995955  1.0000
  N   N3        1.0  0.17438808572290537  0.9541078726768919  0.20766950599572456  1.0000
  C   C16       1.0  0.190510145037887  0.031987043080923025  0.08090912895585237  1.0000
  H   H7        1.0  0.17103368911346095  0.4171979077483061  0.7787322122279734  1.0000
  H   H8        1.0  0.17329654652685003  0.35512926450440574  0.44642647620486375  1.0000
  H   H9        1.0  0.1884742481820351  0.24255470426520648  0.2423279983391456  1.0000
  H   H10       1.0  0.1474623292959374  0.8228397074191481  0.4425453009539826  1.0000
  H   H11       1.0  0.18088244118227506  0.8710020125475276  0.880587075802197  1.0000
  H   H12       1.0  0.1675631577869076  0.8417411192313873  0.21036313642222626  1.0000
  H   H13       1.0  0.13068056503584624  0.11055752907222804  0.05833975759077271  1.0000
  H   H14       1.0  0.26037337201212396  0.0895388097743277  0.08111874468788849  1.0000
  H   H15       1.0  0.19296918454686995  0.9545399387892892  0.004008475626181782  1.0000
  C   C17       1.0  0.1485454483804655  0.5786202467904111  0.18338471703530335  1.0000
  C   C18       1.0  0.05045035134858811  0.6182462699361333  0.17984362222319522  1.0000
  C   C19       1.0  0.0001933435641736606  0.6385476075979134  0.06141301156951396  1.0000
  C   C20       1.0  0.050070090424680455  0.6183993264600423  0.9446206685372204  1.0000
  C   C21       1.0  0.14828951585552486  0.5787245729226235  0.9462908709060553  1.0000
  C   C22       1.0  0.19688579563720715  0.5590927024964125  0.06606148499516995  1.0000
  C   C23       1.0  0.8940964281874619  0.6814056885903865  0.0670152348753359  1.0000
  C   C24       1.0  0.8269278622776218  0.6233784861888076  0.9668300459044472  1.0000
  C   C25       1.0  0.8545150895925594  0.7825390926671746  0.9554928512101306  1.0000
  H   H16       1.0  0.18634714192632162  0.563364161630113  0.5122866053091342  1.0000
  H   H17       1.0  0.012580333588980697  0.6335444504138612  0.2698989230129712  1.0000
  H   H18       1.0  0.013250944383327516  0.6332692998761644  0.8519913587721639  1.0000
  H   H19       1.0  0.27256803907183746  0.5285196755815529  0.06806616785703912  1.0000
  H   H20       1.0  0.3337948221359133  0.5037716744606626  0.7422302918758661  1.0000
  H   H21       1.0  0.8599952832052339  0.6951822203840368  0.1630719407374026  1.0000
  H   H22       1.0  0.8600723069478972  0.5582624085741439  0.8924023124121404  1.0000
  H   H23       1.0  0.7520460258114491  0.6038578038847406  0.001977772991345491  1.0000
  H   H24       1.0  0.9044177410318508  0.8141042000736408  0.8741793205296426  1.0000
  H   H25       1.0  0.7957559088303071  0.8560412116416184  0.9840120694331163  1.0000
  Zn  Zn1       1.0  0.042654176292329586  0.5786741027579233  0.5648396665711755  1.0000
  Zn  Zn2       1.0  0.25417154191925384  0.5786699946206519  0.5648353220349254  1.0000
  C   C26       1.0  0.14837599393581757  0.5729575102138545  0.8020938524496165  1.0000
  C   C27       1.0  0.14845202124366927  0.5843884074418386  0.3275812608851133  1.0000
  C   C28       1.0  0.14656832376170653  0.8421629263927225  0.5592679712768815  1.0000
  C   C29       1.0  0.15025963136134024  0.3151812579698373  0.5704072139018193  1.0000
  O   O1        1.0  0.22869044825951534  0.586316401891636  0.3759732989235388  1.0000
  O   O2        1.0  0.2286743610021491  0.571025309380764  0.7536981447055504  1.0000
  O   O3        1.0  0.22721356194785436  0.788412087718028  0.557614525407125  1.0000
  O   O4        1.0  0.2301511750976363  0.36892963386275135  0.5720568208118777  1.0000
  O   O5        1.0  0.06667447093344259  0.7884144635187962  0.5576181677888706  1.0000
  O   O6        1.0  0.06813525786367332  0.5710294184776361  0.7537017152379724  1.0000
  O   O7        1.0  0.06815134606137338  0.5863204605011951  0.375975307785784  1.0000
  O   O8        1.0  0.0696120729351637  0.3689336821669027  0.5720589270788577  1.0000
