data_image0
_chemical_formula_structural       NC12NC2H8C12H10C6NCOCH9Zn2C4O8
_chemical_formula_sum              "N3 C38 H27 O9 Zn2"
_cell_length_a       17.80743265337812
_cell_length_b       10.299137764757564
_cell_length_c       10.300272075376752
_cell_angle_alpha    85.52058377212019
_cell_angle_beta     91.53227337963533
_cell_angle_gamma    89.45463381285008

_space_group_name_H-M_alt    "P 1"
_space_group_IT_number       1

loop_
  _space_group_symop_operation_xyz
  'x, y, z'

loop_
  _atom_site_type_symbol
  _atom_site_label
  _atom_site_symmetry_multiplicity
  _atom_site_fract_x
  _atom_site_fract_y
  _atom_site_fract_z
  _atom_site_occupancy
  N   N1        1.0  0.7077010379981051  0.4072379473056344  0.6009580876676919  1.0000
  C   C1        1.0  0.6568874392540708  0.4368208841025294  0.5322538096737095  1.0000
  C   C2        1.0  0.5936703071486009  0.4736199089580766  0.446794336037472  1.0000
  C   C3        1.0  0.6054083538056013  0.5276850442003357  0.32016452159817965  1.0000
  C   C4        1.0  0.544098269383143  0.5629796003151544  0.23710137648879726  1.0000
  C   C5        1.0  0.4708958910390895  0.5444727159270925  0.28000809708658947  1.0000
  C   C6        1.0  0.4581810444164438  0.4902886197357925  0.40710606509255043  1.0000
  C   C7        1.0  0.5203484456965894  0.4549973230205813  0.4901526984268536  1.0000
  C   C8        1.0  0.3804102231154634  0.4706666127704114  0.45287327203998445  1.0000
  C   C9        1.0  0.36162856489196055  0.4978148506660991  0.5799014600772401  1.0000
  C   C10       1.0  0.2883962480861011  0.479349529989785  0.6228487278225634  1.0000
  C   C11       1.0  0.23300256724928378  0.43348141456524797  0.5396058091162308  1.0000
  C   C12       1.0  0.15763353323902493  0.4144627817659344  0.5839541008060873  1.0000
  N   N2        1.0  0.09704216720844361  0.39917308011030506  0.6196070764679389  1.0000
  C   C13       1.0  0.2510926975080337  0.40616407920640724  0.41312061341586315  1.0000
  C   C14       1.0  0.3242721634620934  0.4246442674317601  0.36991746879437026  1.0000
  H   H1        1.0  0.6618769909098725  0.5425208558708265  0.2857247538704  1.0000
  H   H2        1.0  0.553304753631606  0.6051108630326101  0.13931443207877892  1.0000
  H   H3        1.0  0.42426244066021684  0.5741312848585505  0.21441155923588973  1.0000
  H   H4        1.0  0.5118400904123718  0.4114806828330113  0.5878156518610693  1.0000
  H   H5        1.0  0.4033114518234923  0.5349763013499094  0.6454587444329583  1.0000
  H   H6        1.0  0.27495636102821286  0.5011658154539306  0.7208448516319015  1.0000
  H   H7        1.0  0.2086931623718745  0.3702698790640633  0.34797585025737626  1.0000
  H   H8        1.0  0.33718337208914656  0.4012922188750257  0.2722251587030258  1.0000
  C   C15       1.0  0.902302888347414  0.021807000718297314  0.6104208396469374  1.0000
  C   C16       1.0  0.9022718062795555  0.031707626768252783  0.47367904768013297  1.0000
  C   C17       1.0  0.9023303084739954  0.9195944162189247  0.40420902767054345  1.0000
  C   C18       1.0  0.9024202677363499  0.7964494840874302  0.4733290518121041  1.0000
  C   C19       1.0  0.9024474989748288  0.7845939024371961  0.6101558774062683  1.0000
  C   C20       1.0  0.902389901117969  0.8977904404799275  0.6778594683462948  1.0000
  C   C21       1.0  0.9022965370071665  0.9311132323939135  0.25954967906096504  1.0000
  C   C22       1.0  0.9476070303455207  0.8478839801288248  0.1918591605529283  1.0000
  C   C23       1.0  0.9474818719543338  0.8589788805605177  0.055687932986349775  1.0000
  C   C24       1.0  0.9022347096049147  0.952926781081464  0.9856769258196358  1.0000
  C   C25       1.0  0.8570183213999357  0.03604032519740109  0.05169491192068599  1.0000
  C   C26       1.0  0.8569545815147812  0.025444234151232866  0.18785796901181673  1.0000
  H   H9        1.0  0.9022765044022403  0.3454752964526626  0.6630189387892653  1.0000
  H   H10       1.0  0.9032416511932138  0.12683230699780057  0.42092760069916585  1.0000
  H   H11       1.0  0.9014306095919767  0.7097192784315678  0.42023728349751327  1.0000
  H   H12       1.0  0.9024118187570691  0.889438373518423  0.7833314517588464  1.0000
  H   H13       1.0  0.902021195799963  0.5549354429743176  0.8683864522763713  1.0000
  H   H14       1.0  0.9838161622295118  0.7754523047216233  0.24421208051915655  1.0000
  H   H15       1.0  0.98265616648094  0.794859647341768  0.004422431332844699  1.0000
  H   H16       1.0  0.9022109988706057  0.9613220268993022  0.8802745787457127  1.0000
  H   H17       1.0  0.8218202747928305  0.10857353611751108  0.9973218805499484  1.0000
  H   H18       1.0  0.8207686192644055  0.08979261081275625  0.2370077036398153  1.0000
  C   C27       1.0  0.9023813848317382  0.40333222063309077  0.22893586904153063  1.0000
  C   C28       1.0  0.82550019257589  0.43564884382239205  0.2218033411837972  1.0000
  C   C29       1.0  0.7869866834268031  0.4536831541451832  0.1008049092665635  1.0000
  C   C30       1.0  0.8255077299412612  0.43535257380823933  0.9866698488337012  1.0000
  C   C31       1.0  0.9023690318749765  0.40306863948015376  0.9916408654688977  1.0000
  C   C32       1.0  0.9404640143515621  0.38771163787698004  0.1132610044776412  1.0000
  N   N3        1.0  0.7080093573746915  0.48477302919602555  0.0920298385886209  1.0000
  C   C33       1.0  0.6707310182860752  0.5663958467045065  0.17766736569386432  1.0000
  O   O1        1.0  0.708034131597172  0.6350889446090171  0.2516921603662692  1.0000
  C   C34       1.0  0.5869874638859203  0.577683234350187  0.17254031962607086  1.0000
  H   H19       1.0  0.9313644692775718  0.3891808163883524  0.5592061640590498  1.0000
  H   H20       1.0  0.7952589011612461  0.4442508122505666  0.31049511774230676  1.0000
  H   H21       1.0  0.7952120037216012  0.4475184633884049  0.8938453567739968  1.0000
  H   H22       1.0  0.9997647156620192  0.36282187675882605  0.11795071377368017  1.0000
  H   H23       1.0  0.931244078410498  0.38893910228494133  0.6662528798421126  1.0000
  H   H24       1.0  0.6766148725554073  0.45303364246063693  0.01358084112231705  1.0000
  H   H25       1.0  0.5620229552434725  0.4811390250572882  0.15900337979631396  1.0000
  H   H26       1.0  0.5664098424968749  0.6128016597100749  0.26458740119381763  1.0000
  H   H27       1.0  0.5689505123623264  0.6474702237046988  0.08978917585685965  1.0000
  Zn  Zn1       1.0  0.8200564802167065  0.40490713070838785  0.6063472708094484  1.0000
  Zn  Zn2       1.0  0.9846867203154702  0.4014932987680986  0.6142284896010248  1.0000
  C   C35       1.0  0.9023686902466898  0.3979444537969927  0.8474749798947288  1.0000
  C   C36       1.0  0.9023763083512121  0.40845757710297237  0.3731009934700982  1.0000
  C   C37       1.0  0.9024163868107046  0.6404128106059578  0.6050308146041392  1.0000
  C   C38       1.0  0.9023285553134383  0.16598766101159557  0.6155452258490861  1.0000
  O   O2        1.0  0.964850921703493  0.40887649594486364  0.42447500961940876  1.0000
  O   O3        1.0  0.9648446196652221  0.3949335358339243  0.8020822529596725  1.0000
  O   O4        1.0  0.9648822930113066  0.5907298173858652  0.6063068333666075  1.0000
  O   O5        1.0  0.964813192183601  0.21308022488241865  0.6202503291494477  1.0000
  O   O6        1.0  0.8399299521683549  0.593320205760457  0.6003254285647208  1.0000
  O   O7        1.0  0.8398922791158084  0.39752548465731774  0.7961007783730827  1.0000
  O   O8        1.0  0.839898581220799  0.4114684000472373  0.4184919737175272  1.0000
  O   O9        1.0  0.8398608516944938  0.21567211966168578  0.6142673906142879  1.0000
