data_image0
_chemical_formula_structural       NC6NC2H4C9H6C6BrH4Zn2C4O8
_chemical_formula_sum              "N2 C27 H14 Br1 Zn2 O8"
_cell_length_a       14.927258858638513
_cell_length_b       9.275152443626249
_cell_length_c       9.276567756262422
_cell_angle_alpha    85.92079402595407
_cell_angle_beta     90.18620734994761
_cell_angle_gamma    90.5735452640029

_space_group_name_H-M_alt    "P 1"
_space_group_IT_number       1

loop_
  _space_group_symop_operation_xyz
  'x, y, z'

loop_
  _atom_site_type_symbol
  _atom_site_label
  _atom_site_symmetry_multiplicity
  _atom_site_fract_x
  _atom_site_fract_y
  _atom_site_fract_z
  _atom_site_occupancy
  N   N1        1.0  0.8500703096756577  0.5631682856902667  0.4052506472329165  1.0000
  C   C1        1.0  0.7725438183528265  0.5631682572752454  0.40525065791465087  1.0000
  C   C2        1.0  0.6761113114201698  0.5631683719216825  0.40525060768254817  1.0000
  C   C3        1.0  0.6286482476578208  0.5382294381803114  0.27870926251457107  1.0000
  C   C4        1.0  0.5349369361960667  0.5382294625173538  0.27870912903432066  1.0000
  C   C5        1.0  0.48829524636376526  0.5631681944977789  0.40525062691458946  1.0000
  C   C6        1.0  0.39186267243957906  0.5631683091471228  0.40525057667655506  1.0000
  N   N2        1.0  0.3143361811167476  0.5631682807321013  0.40525058735828945  1.0000
  C   C7        1.0  0.5357582431345843  0.5881071282420571  0.5317919720766349  1.0000
  C   C8        1.0  0.6294695545963387  0.5881071039050147  0.5317921055568853  1.0000
  H   H1        1.0  0.6640249048877448  0.5188255403954554  0.18025283333437447  1.0000
  H   H2        1.0  0.4989212505940505  0.5188257379473662  0.18025282772068274  1.0000
  H   H3        1.0  0.5003816530531473  0.6075110167645776  0.630248509323869  1.0000
  H   H4        1.0  0.6654852410298436  0.6075109269122179  0.6302485165093388  1.0000
  C   C9        1.0  0.07956791967267068  0.13955039295113725  0.4067216396278348  1.0000
  C   C10       1.0  0.04699636265959686  0.22109045053794896  0.2843131623002333  1.0000
  C   C11       1.0  0.022747258984477728  0.15442730717329795  0.15961289216980412  1.0000
  C   C12       1.0  0.03068789199491451  0.00503872162040486  0.15485207081367447  1.0000
  C   C13       1.0  0.06150549542017239  0.9218003812852219  0.27622603804389123  1.0000
  C   C14       1.0  0.08484712324402846  0.9867752078498431  0.4037920790252527  1.0000
  C   C15       1.0  0.006148144430150326  0.9366239644552948  0.02571709845028303  1.0000
  C   C16       1.0  0.9856018195384258  0.8793091631703774  0.917586806023742  1.0000
  C   C17       1.0  0.9606729105503343  0.8097557882364087  0.7863896600793696  1.0000
  H   H5        1.0  0.208891419474536  0.22402124725122238  0.6944790002465699  1.0000
  H   H6        1.0  0.998601414401029  0.21975275730108046  0.06629522858972958  1.0000
  H   H7        1.0  0.16905139232596855  0.693404187892576  0.6006084528282216  1.0000
  H   H8        1.0  0.9770778286899354  0.6931658453367081  0.7998504304304968  1.0000
  H   H9        1.0  0.8877184557286998  0.822145090861128  0.7666643446244366  1.0000
  H   H10       1.0  0.9983106737988974  0.8611905196058389  0.6931246044777502  1.0000
  C   C18       1.0  0.08132658448339214  0.5590171871346223  0.9821444600292044  1.0000
  C   C19       1.0  0.0019353951671781107  0.5937449730865454  0.052635220988983544  1.0000
  C   C20       1.0  0.9265991126374429  0.6403553583581421  0.9737730665302312  1.0000
  C   C21       1.0  0.9292394022771573  0.6531820173531371  0.8232328707539551  1.0000
  C   C22       1.0  0.006864622895089492  0.6168959195855173  0.7510204358655854  1.0000
  C   C23       1.0  0.08308848143094472  0.5673084269341404  0.8283693133678831  1.0000
  Br  Br1       1.0  0.8261352277835522  0.7181357692016839  0.7157580537590702  1.0000
  H   H11       1.0  0.20374967258557108  0.42799096329332026  0.2734317021833892  1.0000
  H   H12       1.0  0.9987551218677866  0.588157233660002  0.16955194537766838  1.0000
  H   H13       1.0  0.8663747119174456  0.6678592569671054  0.02999535488364869  1.0000
  H   H14       1.0  0.23039595162917414  0.5524125177833655  0.5490260788798165  1.0000
  Zn  Zn1       1.0  0.984047412706298  0.5631645003935608  0.40525896881573864  1.0000
  Zn  Zn2       1.0  0.1803590399492525  0.5631603658151296  0.40525412598292787  1.0000
  C   C24       1.0  0.08271761147688683  0.5599943345379994  0.668434552197047  1.0000
  C   C25       1.0  0.08169099653162015  0.5663323531611755  0.14207867767358962  1.0000
  C   C26       1.0  0.08383267029316221  0.8265753999088483  0.398604227136643  1.0000
  C   C27       1.0  0.08057586008825851  0.2997495553875089  0.41190908554582073  1.0000
  O   O1        1.0  0.15631249678076034  0.5687795272469027  0.1957522460636245  1.0000
  O   O2        1.0  0.15709208631862295  0.5575429300804339  0.6147568972058275  1.0000
  O   O3        1.0  0.15799150924850425  0.772810526445308  0.3968669954634936  1.0000
  O   O4        1.0  0.1554130067023918  0.3535119401443636  0.4136420397389202  1.0000
  O   O5        1.0  0.008993378961628773  0.7728129260672343  0.39687105505381504  1.0000
  O   O6        1.0  0.00809396666730322  0.5575470621080849  0.6147608739783901  1.0000
  O   O7        1.0  0.007314373269065478  0.5687835920321156  0.1957544907030655  1.0000
  O   O8        1.0  0.006414883347654053  0.35351599567014813  0.41364439243946727  1.0000
