data_image0
_chemical_formula_structural       NC9NC3NH7C6SCNH4C8NH11Zn2C4O8
_chemical_formula_sum              "N5 C31 H22 S1 Zn2 O8"
_cell_length_a       16.053384444249904
_cell_length_b       10.302215558581763
_cell_length_c       9.275652972338536
_cell_angle_alpha    85.94620534348942
_cell_angle_beta     90.23845156290304
_cell_angle_gamma    89.19414689339631

_space_group_name_H-M_alt    "P 1"
_space_group_IT_number       1

loop_
  _space_group_symop_operation_xyz
  'x, y, z'

loop_
  _atom_site_type_symbol
  _atom_site_label
  _atom_site_symmetry_multiplicity
  _atom_site_fract_x
  _atom_site_fract_y
  _atom_site_fract_z
  _atom_site_occupancy
  N   N1        1.0  0.7777748445290139  0.39420910276244925  0.4070353778161315  1.0000
  C   C1        1.0  0.7266550185752975  0.3729133201303191  0.323965275462367  1.0000
  C   C2        1.0  0.6631272242272175  0.3464532097684807  0.22077195719733633  1.0000
  C   C3        1.0  0.6761125501345062  0.3335243261175551  0.07568005537337008  1.0000
  C   C4        1.0  0.5992314169723676  0.307862366400923  0.017684781854621738  1.0000
  C   C5        1.0  0.5426249940551253  0.3065627333815941  0.13052189882654663  1.0000
  C   C6        1.0  0.4519181513622767  0.28268063839632407  0.11914688499652093  1.0000
  C   C7        1.0  0.396483397644083  0.32599586768426003  0.22337203014784593  1.0000
  C   C8        1.0  0.3108827954740463  0.30334529737395344  0.21247694363527012  1.0000
  C   C9        1.0  0.2546797625230841  0.34842042708963517  0.3193346940712387  1.0000
  N   N2        1.0  0.20950911306538758  0.38465446524003827  0.4052315911555049  1.0000
  C   C10       1.0  0.2799909592309309  0.23726763265606032  0.09737191410510637  1.0000
  C   C11       1.0  0.3344182055164384  0.1940733693142096  0.9933816981017625  1.0000
  C   C12       1.0  0.4198108974520266  0.21655566551199798  0.003836628247406934  1.0000
  N   N3        1.0  0.5823555202703559  0.3302578903503932  0.25433074091251573  1.0000
  H   H1        1.0  0.7346003817375873  0.3418198150187002  0.018396582548306336  1.0000
  H   H2        1.0  0.5864810674722013  0.2934314061270738  0.9053965525405197  1.0000
  H   H3        1.0  0.4191964828148455  0.37896231044301976  0.3119403709137214  1.0000
  H   H4        1.0  0.213924265096773  0.21925054793617282  0.08801111483103252  1.0000
  H   H5        1.0  0.3104140090959845  0.1427467282748376  0.9045540237070059  1.0000
  H   H6        1.0  0.46056994030079246  0.18064204010554816  0.92254035664886  1.0000
  H   H7        1.0  0.5566385829657965  0.33323115060692166  0.3572771526512055  1.0000
  C   C13       1.0  0.9935630368295532  0.00816109904017837  0.406094120600468  1.0000
  C   C14       1.0  0.07725261243591164  0.0025104391359496167  0.45109892211759206  1.0000
  C   C15       1.0  0.11890214111267494  0.8826604194151508  0.47395104126046134  1.0000
  C   C16       1.0  0.0774696792441587  0.7673311614424326  0.45122006097751766  1.0000
  C   C17       1.0  0.9937288986467696  0.7706923835239167  0.406185219428815  1.0000
  C   C18       1.0  0.9522263347447427  0.8916173134078377  0.38392540241457873  1.0000
  S   S1        1.0  0.2258213986566282  0.876960784525849  0.5308075432332964  1.0000
  C   C19       1.0  0.19914673486435297  0.8658303184550136  0.715621378182788  1.0000
  N   N4        1.0  0.18163378073385017  0.8585343014640229  0.836782761805023  1.0000
  H   H8        1.0  0.11040642015257407  0.09085771571040313  0.46884555243354264  1.0000
  H   H9        1.0  0.1107722775169131  0.6753938963664803  0.4690497996876122  1.0000
  H   H10       1.0  0.8876816081525652  0.8951257883767225  0.34923611960387047  1.0000
  H   H11       1.0  0.835912667861022  0.569819182865692  0.3211513485084579  1.0000
  C   C20       1.0  0.9917908523674306  0.3869373098744098  0.9828763982909021  1.0000
  C   C21       1.0  0.9377744668421759  0.473061790320546  0.0492594358036409  1.0000
  C   C22       1.0  0.8903375070202181  0.5666169744446843  0.9667687234079706  1.0000
  C   C23       1.0  0.8957913678904754  0.5728217569231677  0.8159613224410661  1.0000
  C   C24       1.0  0.9479735249227035  0.48679566417321896  0.7481778779862638  1.0000
  C   C25       1.0  0.995501135974929  0.3919162100368189  0.8294029700025858  1.0000
  C   C26       1.0  0.8318869806366527  0.6567360955204702  0.03956735416700276  1.0000
  C   C27       1.0  0.7462169521906052  0.5951946089990867  0.060705004968026006  1.0000
  N   N5        1.0  0.689734060088302  0.6841867757161244  0.1291594500276323  1.0000
  H   H12       1.0  0.05281082963731598  0.19268440088955519  0.27920546438238136  1.0000
  H   H13       1.0  0.9338110274497646  0.46953721843853974  0.16610309085283226  1.0000
  H   H14       1.0  0.8588668235989151  0.6435728379952526  0.7505408163346511  1.0000
  H   H15       1.0  0.9494787914851721  0.4923385282365371  0.6311523868444852  1.0000
  H   H16       1.0  0.10972042541829641  0.2704715970182072  0.55843130052935  1.0000
  H   H17       1.0  0.8579811755772647  0.678972257324757  0.14617538119663312  1.0000
  H   H18       1.0  0.8252380130491458  0.7506205258405397  0.9732969248113031  1.0000
  H   H19       1.0  0.7201668294887498  0.5740006663192176  0.9536797650731543  1.0000
  H   H20       1.0  0.7520774249641055  0.502074606272318  0.1288619942137188  1.0000
  H   H21       1.0  0.6308841681201358  0.6418888507523912  0.13380290382829796  1.0000
  H   H22       1.0  0.7092430746504446  0.6902535587155991  0.2361986517587893  1.0000
  Zn  Zn1       1.0  0.902364061880287  0.3914484270408924  0.40652315948196954  1.0000
  Zn  Zn2       1.0  0.08491992158501116  0.3874046325732019  0.4057555884765067  1.0000
  C   C28       1.0  0.9947968073581601  0.3858027800285095  0.66939071827062  1.0000
  C   C29       1.0  0.9924891705878874  0.3930518744568894  0.14288816297077345  1.0000
  C   C30       1.0  0.9936681074365143  0.6265240757214992  0.40042437012609067  1.0000
  C   C31       1.0  0.9936178082134247  0.1523290206951966  0.41185458803546005  1.0000
  O   O1        1.0  0.06200252868970346  0.393563714980415  0.19629828304953345  1.0000
  O   O2        1.0  0.06383912068555264  0.38222081116064777  0.6153976145280314  1.0000
  O   O3        1.0  0.06292675387922819  0.5766063312709773  0.3982053895079116  1.0000
  O   O4        1.0  0.06291483273043075  0.19917820490215818  0.4134904002611526  1.0000
  O   O5        1.0  0.9243690884374789  0.5796748560932539  0.3987883479516763  1.0000
  O   O6        1.0  0.9252814552425236  0.38529089543294437  0.6159804963059916  1.0000
  O   O7        1.0  0.9234448556969678  0.3966337438148905  0.1968794318972067  1.0000
  O   O8        1.0  0.9243571602059036  0.20224822508587834  0.4140716571716794  1.0000
