data_image0
_chemical_formula_structural       NC12NC2H8C10IC2H9C9N2CH8Zn2C4O8
_chemical_formula_sum              "N4 C40 H25 I1 Zn2 O8"
_cell_length_a       17.80743265337812
_cell_length_b       10.299770258652044
_cell_length_c       10.299047444628409
_cell_angle_alpha    85.54383262812712
_cell_angle_beta     91.55529169482972
_cell_angle_gamma    89.45364399786216

_space_group_name_H-M_alt    "P 1"
_space_group_IT_number       1

loop_
  _space_group_symop_operation_xyz
  'x, y, z'

loop_
  _atom_site_type_symbol
  _atom_site_label
  _atom_site_symmetry_multiplicity
  _atom_site_fract_x
  _atom_site_fract_y
  _atom_site_fract_z
  _atom_site_occupancy
  N   N1        1.0  0.7073705703082164  0.4070779461241254  0.6013126577197537  1.0000
  C   C1        1.0  0.6565408961467413  0.4366566172388757  0.5326108060939152  1.0000
  C   C2        1.0  0.5933037682393707  0.4734503359796316  0.44715435115150126  1.0000
  C   C3        1.0  0.6050121878516078  0.5275076508480054  0.320528834527148  1.0000
  C   C4        1.0  0.5436826701521595  0.5627970925815442  0.23746844427260358  1.0000
  C   C5        1.0  0.47049033124051504  0.5442928750715039  0.2803736374563133  1.0000
  C   C6        1.0  0.45780522088085684  0.4901166208127925  0.4074673224395983  1.0000
  C   C7        1.0  0.5199920515894959  0.45483043780357507  0.49051120004231213  1.0000
  C   C8        1.0  0.38004510785663814  0.47049744773424423  0.453232945145156  1.0000
  C   C9        1.0  0.3612928543885275  0.49764613500356963  0.5802876792693303  1.0000
  C   C10       1.0  0.2880705862734829  0.47918347835915465  0.6232334405476808  1.0000
  C   C11       1.0  0.2326577450356  0.43331761996497237  0.5399624799870235  1.0000
  C   C12       1.0  0.1572990873339217  0.4143017336449845  0.5843092346686934  1.0000
  N   N2        1.0  0.09671606314173391  0.3990142399724518  0.6199609746706133  1.0000
  C   C13       1.0  0.2507185973373862  0.4059998630654962  0.4134507435573953  1.0000
  C   C14       1.0  0.3238879551000742  0.42447738003322644  0.37024907830206955  1.0000
  H   H1        1.0  0.6614727667181691  0.5423413236359326  0.28609028558507327  1.0000
  H   H2        1.0  0.5528662741248844  0.6049222815994747  0.1396849631021695  1.0000
  H   H3        1.0  0.4238415271121026  0.5739472427982157  0.21477995226826538  1.0000
  H   H4        1.0  0.5115065531472165  0.41131999436298233  0.5881701490920899  1.0000
  H   H5        1.0  0.4029908269127876  0.5348057138193778  0.6458674414760776  1.0000
  H   H6        1.0  0.2746533801836913  0.5010000311854677  0.7212503742879666  1.0000
  H   H7        1.0  0.20830406752887554  0.3701074291026567  0.3482840358194339  1.0000
  H   H8        1.0  0.3367765592918052  0.40112521064978374  0.2725354148497718  1.0000
  C   C15       1.0  0.9019761131362404  0.021682242264774883  0.6106304800762972  1.0000
  C   C16       1.0  0.9075221646456241  0.031171759861648114  0.47449010783051854  1.0000
  C   C17       1.0  0.9104043886888825  0.9188393955972415  0.4055192853311386  1.0000
  C   C18       1.0  0.9076652963637292  0.7958809951269475  0.4745145808328576  1.0000
  C   C19       1.0  0.9021177024680404  0.7843997966213583  0.6106547111824389  1.0000
  C   C20       1.0  0.8993045890346817  0.8978569883512589  0.6779503737590259  1.0000
  C   C21       1.0  0.9162720932993568  0.9299318385240648  0.2614959718416842  1.0000
  C   C22       1.0  0.9643316070842857  0.846120729687056  0.1998463625124054  1.0000
  C   C23       1.0  0.969778704621424  0.856774530025883  0.06427678330116281  1.0000
  C   C24       1.0  0.9273844188323106  0.9509387266408981  0.9887227736983948  1.0000
  I   I1        1.0  0.9357144515870971  0.9666862049103951  0.7842383688635483  1.0000
  C   C25       1.0  0.8794624759643437  0.034653182397792026  0.04886008177142198  1.0000
  C   C26       1.0  0.8738648315793538  0.024427853172700683  0.18440391925110333  1.0000
  H   H9        1.0  0.8998286876874478  0.34552073076765866  0.6625004965001703  1.0000
  H   H10       1.0  0.9106498707805614  0.12613318791644446  0.4219448958296792  1.0000
  H   H11       1.0  0.9088330219643063  0.7090393473545077  0.421634870135946  1.0000
  H   H12       1.0  0.8950253817758287  0.8897680428684935  0.7829763201723253  1.0000
  H   H13       1.0  0.9000371650701192  0.45257032135499436  0.6625359979875548  1.0000
  H   H14       1.0  0.9983992095856555  0.7735310993188518  0.2565608875045926  1.0000
  H   H15       1.0  0.007107411507757398  0.7920091269419927  0.018064109270437893  1.0000
  H   H16       1.0  0.8463885245411346  0.10746192970016953  0.9906298681041282  1.0000
  H   H17       1.0  0.83567870358972  0.0892319996668509  0.22878501293909267  1.0000
  C   C27       1.0  0.9019645075634593  0.4031640331503237  0.22924136005747295  1.0000
  C   C28       1.0  0.980716058293513  0.4096190565612745  0.23165795902897512  1.0000
  C   C29       1.0  0.020746124426933802  0.41276574784070985  0.11575395637620799  1.0000
  C   C30       1.0  0.9809296990133717  0.40936442210612856  0.9964055085434751  1.0000
  C   C31       1.0  0.9021293077005289  0.40291806579236156  0.9920438217432868  1.0000
  C   C32       1.0  0.8631333291736167  0.3998553368821156  0.10893218001099013  1.0000
  C   C33       1.0  0.10407015491065641  0.4195741877685197  0.11934372802159454  1.0000
  C   C34       1.0  0.14717293347464655  0.34656068574163346  0.03859498120243109  1.0000
  C   C35       1.0  0.22522809411337438  0.35501508645101754  0.04435176565386301  1.0000
  N   N3        1.0  0.25856841920588214  0.433873833100173  0.12788220216058166  1.0000
  N   N4        1.0  0.21813282841105375  0.503860433393934  0.20499598432544497  1.0000
  C   C36       1.0  0.14189116002719637  0.4992195182384899  0.20361561748838009  1.0000
  H   H18       1.0  0.8716570521299173  0.40073002464718455  0.5557868849089062  1.0000
  H   H19       1.0  0.01115398467845874  0.4103662794363032  0.3240695662894612  1.0000
  H   H20       1.0  0.011393845641093359  0.41358458413536264  0.906592343400429  1.0000
  H   H21       1.0  0.8023913173992653  0.3948820923934582  0.10635473695950792  1.0000
  H   H22       1.0  0.7533647012396071  0.3915847802263148  0.7764563708595474  1.0000
  H   H23       1.0  0.12086552051633025  0.28228873035898183  0.9729985514852053  1.0000
  H   H24       1.0  0.25922532007366406  0.2989315411729381  0.9829964485159749  1.0000
  H   H25       1.0  0.11119902075923882  0.558717312142119  0.26669428174518095  1.0000
  Zn  Zn1       1.0  0.8197272735271589  0.40474746506625364  0.6067016466225739  1.0000
  Zn  Zn2       1.0  0.9843593577511311  0.40133412429722193  0.6145825793800457  1.0000
  C   C37       1.0  0.9020955270813048  0.39779095690978433  0.8478575666590411  1.0000
  C   C38       1.0  0.901992902305974  0.40829223373653156  0.37342687293237525  1.0000
  C   C39       1.0  0.9020859613213583  0.6402317135052751  0.6054743165197101  1.0000
  C   C40       1.0  0.9020024116137916  0.16584991800186688  0.6158101895774699  1.0000
  O   O1        1.0  0.9644794487647994  0.4087122940017271  0.4248076209339331  1.0000
  O   O2        1.0  0.9645609229586872  0.3947792703914829  0.8024578903592323  1.0000
  O   O3        1.0  0.9645523565582541  0.590553264450522  0.6067316606952387  1.0000
  O   O4        1.0  0.9644879589681388  0.2129383104289326  0.6205337505260755  1.0000
  O   O5        1.0  0.8395986161292996  0.593143280100764  0.6007504727803368  1.0000
  O   O6        1.0  0.8396071828010098  0.39737084634712033  0.7964766332423597  1.0000
  O   O7        1.0  0.8395257083113046  0.4113038252045622  0.4188248022850505  1.0000
  O   O8        1.0  0.8395342185308861  0.21552983231174494  0.6145510292528371  1.0000
