data_image0
_chemical_formula_structural       NC12NC2H8C10H6C6NCSNH7Zn2C4O8
_chemical_formula_sum              "N4 C35 H21 S1 Zn2 O8"
_cell_length_a       17.80743265337812
_cell_length_b       10.30283237001006
_cell_length_c       9.275081717742442
_cell_angle_alpha    86.13105290307756
_cell_angle_beta     91.71745222805816
_cell_angle_gamma    89.43531271068052

_space_group_name_H-M_alt    "P 1"
_space_group_IT_number       1

loop_
  _space_group_symop_operation_xyz
  'x, y, z'

loop_
  _atom_site_type_symbol
  _atom_site_label
  _atom_site_symmetry_multiplicity
  _atom_site_fract_x
  _atom_site_fract_y
  _atom_site_fract_z
  _atom_site_occupancy
  N   N1        1.0  0.7049188358727898  0.3923179881560838  0.4478856275570204  1.0000
  C   C1        1.0  0.6539760741331853  0.4211832106221432  0.3716490144452387  1.0000
  C   C2        1.0  0.5905982792221404  0.4570894885959173  0.27682026466658116  1.0000
  C   C3        1.0  0.6020983505693792  0.5098319686774591  0.13630732096065046  1.0000
  C   C4        1.0  0.540632197680917  0.5442589900815415  0.04413743691593308  1.0000
  C   C5        1.0  0.467510489353325  0.5262003397920714  0.09174818703498655  1.0000
  C   C6        1.0  0.4550344825562732  0.473343757988511  0.23278064178015634  1.0000
  C   C7        1.0  0.5173579219878189  0.4389198249539146  0.32493220231085207  1.0000
  C   C8        1.0  0.3773496869262842  0.4541998228225381  0.283565530177529  1.0000
  C   C9        1.0  0.35879138018746715  0.48264403906097497  0.42455190151190236  1.0000
  C   C10       1.0  0.2856397984773249  0.46462735369124775  0.4722076668872521  1.0000
  C   C11       1.0  0.23010505660790362  0.41792060908526424  0.37980697707981736  1.0000
  C   C12       1.0  0.1548193821627767  0.39936522836356775  0.429017385726026  1.0000
  N   N2        1.0  0.0942950314935204  0.38444794952087147  0.46857916892937834  1.0000
  C   C13       1.0  0.24797284397696906  0.389312943195846  0.23942315353366572  1.0000
  C   C14       1.0  0.32107111179353204  0.40734185922957145  0.1914834216911494  1.0000
  H   H1        1.0  0.6585022401862914  0.5243080052699207  0.0980917811217874  1.0000
  H   H2        1.0  0.549654839089665  0.5853687186930734  0.9356297139262422  1.0000
  H   H3        1.0  0.42075345143577564  0.5551731234702102  0.018960573608736816  1.0000
  H   H4        1.0  0.5090334482100789  0.3964239687871361  0.43330178595039975  1.0000
  H   H5        1.0  0.4005851624483633  0.5204655518767929  0.49732171446009027  1.0000
  H   H6        1.0  0.2723720514741049  0.48744309328089724  0.5809721927589604  1.0000
  H   H7        1.0  0.20546291612308892  0.35276244280197044  0.16711164527817468  1.0000
  H   H8        1.0  0.3338110169107245  0.38299406267825087  0.08305547620668796  1.0000
  C   C15       1.0  0.8996105103123186  0.007130397257013583  0.45823878491398723  1.0000
  C   C16       1.0  0.935553555422968  0.013496036196430918  0.3252363603137156  1.0000
  C   C17       1.0  0.953435899849267  0.899559589748219  0.25906558561819193  1.0000
  C   C18       1.0  0.9355536578433513  0.7781934447790356  0.3252366674989271  1.0000
  C   C19       1.0  0.8996105639080861  0.7696255502780917  0.4582388172251221  1.0000
  C   C20       1.0  0.8818262964441975  0.8846834449811466  0.5240468827944991  1.0000
  C   C21       1.0  0.9902809352168226  0.9072138131539984  0.12272534123696177  1.0000
  C   C22       1.0  0.021128145739829796  0.9136221117507078  0.00857858653564558  1.0000
  C   C23       1.0  0.0572499200261114  0.9211260918470562  0.8749139357809179  1.0000
  C   C24       1.0  0.08809238259530351  0.9275334220846752  0.7607845454223425  1.0000
  H   H9        1.0  0.8859995713118599  0.332042179922563  0.5086044595985123  1.0000
  H   H10       1.0  0.9497323490782822  0.10685982714995901  0.2727695453942755  1.0000
  H   H11       1.0  0.9497325851615344  0.6907207172031382  0.27276963414117733  1.0000
  H   H12       1.0  0.8541073268284889  0.8789252582828124  0.6266166659368853  1.0000
  H   H13       1.0  0.8859993586796808  0.43905857089375655  0.5086042382192537  1.0000
  H   H14       1.0  0.11517460852994409  0.9331597139193711  0.6605694322223354  1.0000
  C   C25       1.0  0.8989307819509098  0.3845881359134802  0.035013801923364125  1.0000
  C   C26       1.0  0.8317736053435484  0.41424161105845303  0.10214785900524447  1.0000
  C   C27       1.0  0.7679149250305324  0.4556302084300992  0.0204150634633935  1.0000
  C   C28       1.0  0.7699148011819689  0.4698460170955119  0.8692703813568219  1.0000
  C   C29       1.0  0.8357004477191288  0.4361487382935098  0.8009558317274572  1.0000
  C   C30       1.0  0.9002903053943786  0.3921678335157291  0.8814638287264892  1.0000
  N   N3        1.0  0.7044170942439951  0.5106262431451574  0.7830037242481733  1.0000
  C   C31       1.0  0.6483173486769687  0.5991328180698476  0.827885434333103  1.0000
  S   S1        1.0  0.5638157877942129  0.5985017833150215  0.7534274551755122  1.0000
  N   N4        1.0  0.6673078601798904  0.6975279783860233  0.9238877195677152  1.0000
  H   H15       1.0  0.003564383123535688  0.26761237679666117  0.3310296877784038  1.0000
  H   H16       1.0  0.7168523557359501  0.47620934174988117  0.07548976530223638  1.0000
  H   H17       1.0  0.8358990844526877  0.4424593250570767  0.6838555698025179  1.0000
  H   H18       1.0  0.02422945147305611  0.38009659282440955  0.6085770119130993  1.0000
  H   H19       1.0  0.6974669380349484  0.4745022454989068  0.6808479354052448  1.0000
  H   H20       1.0  0.7229036044911885  0.7113743001859805  0.9576926422501314  1.0000
  H   H21       1.0  0.6261630539413819  0.7613259069559025  0.9564326870538798  1.0000
  Zn  Zn1       1.0  0.8172844116233985  0.39004347318689225  0.45386564523163203  1.0000
  Zn  Zn2       1.0  0.9819294721293905  0.38671197953075787  0.46261090691620826  1.0000
  C   C32       1.0  0.9000316416661284  0.38556301630760786  0.7214665321228497  1.0000
  C   C33       1.0  0.8991840402329248  0.3911940394165765  0.19501025697921048  1.0000
  C   C34       1.0  0.8995974658001076  0.6254463777069157  0.45249544324192786  1.0000
  C   C35       1.0  0.8996181600403873  0.15130912001558877  0.4639814197136533  1.0000
  O   O1        1.0  0.9617509784325607  0.39214109248477796  0.252025310114399  1.0000
  O   O2        1.0  0.9624264940967425  0.3820864535012465  0.6710885153781744  1.0000
  O   O3        1.0  0.9620750517144954  0.5757953320328466  0.45389241335239333  1.0000
  O   O4        1.0  0.9621023644590398  0.19843222340972308  0.46922130109426224  1.0000
  O   O5        1.0  0.8371114631084583  0.5783232304461476  0.4472552480616687  1.0000
  O   O6        1.0  0.8374629053639725  0.38461591105444737  0.66445127324202  1.0000
  O   O7        1.0  0.8367873869666946  0.39467048927847515  0.24538633521303277  1.0000
  O   O8        1.0  0.8371387731636507  0.2009616118850961  0.46258243424690487  1.0000
