data_image0
_chemical_formula_structural       NC6NC3H6C6ClH5C8H10Zn2C4O8
_chemical_formula_sum              "N2 C27 H21 Cl1 Zn2 O8"
_cell_length_a       14.934028789175542
_cell_length_b       9.276545438789551
_cell_length_c       9.275657083861812
_cell_angle_alpha    85.88220868425292
_cell_angle_beta     89.47814586950791
_cell_angle_gamma    89.37211250715544

_space_group_name_H-M_alt    "P 1"
_space_group_IT_number       1

loop_
  _space_group_symop_operation_xyz
  'x, y, z'

loop_
  _atom_site_type_symbol
  _atom_site_label
  _atom_site_symmetry_multiplicity
  _atom_site_fract_x
  _atom_site_fract_y
  _atom_site_fract_z
  _atom_site_occupancy
  N   N1        1.0  0.841711043218387  0.5690492102673972  0.41031143871835507  1.0000
  C   C1        1.0  0.7642356834720284  0.5679477065747929  0.40963192390028724  1.0000
  C   C2        1.0  0.6678524787357683  0.566572372436704  0.40878367586335296  1.0000
  C   C3        1.0  0.6190521639938973  0.6736837640976164  0.4747387898981041  1.0000
  C   C4        1.0  0.5255511384863027  0.6725794719629219  0.4740586795224841  1.0000
  C   C5        1.0  0.4799373479942878  0.5644184511035069  0.4074573143712339  1.0000
  C   C6        1.0  0.3832690893146476  0.5667391616758006  0.40888760850487516  1.0000
  N   N2        1.0  0.3057711186515303  0.568580939788562  0.410023055586317  1.0000
  C   C7        1.0  0.5287464520899169  0.45582519391663895  0.340589170824797  1.0000
  C   C8        1.0  0.48156950676721555  0.33823168749981725  0.26818087358208714  1.0000
  C   C9        1.0  0.6228676288688223  0.4580563101783853  0.3419630594426837  1.0000
  H   H1        1.0  0.653278784421913  0.7580776081300091  0.5267058911978935  1.0000
  H   H2        1.0  0.48870411160928307  0.7563233602687398  0.5256254190903425  1.0000
  H   H3        1.0  0.4389860936352951  0.3868402713803625  0.179599135334151  1.0000
  H   H4        1.0  0.43879282307302747  0.27580559339178445  0.3482609633227891  1.0000
  H   H5        1.0  0.5297663260567737  0.26206464208362346  0.22127367146184124  1.0000
  H   H6        1.0  0.6611969206545051  0.3754264666881888  0.2910825965555194  1.0000
  C   C10       1.0  0.07644916866986584  0.14537596949839648  0.4099279218063643  1.0000
  C   C11       1.0  0.07750098080937491  0.22834317736779355  0.27687280524296143  1.0000
  C   C12       1.0  0.0703906526375408  0.16260263171594597  0.14671871522544477  1.0000
  C   C13       1.0  0.06205435655470026  0.013024489300107248  0.14761739328265944  1.0000
  C   C14       1.0  0.06239713720002133  0.9285049186792865  0.27822942681339247  1.0000
  C   C15       1.0  0.07104162192083845  0.9922431584043899  0.4104190223751907  1.0000
  Cl  Cl1       1.0  0.07057859607765081  0.26837880994114727  0.9821452148327205  1.0000
  H   H7        1.0  0.12103148967335081  0.40945373425786113  0.6365396314977179  1.0000
  H   H8        1.0  0.08171206575252277  0.3450448386322049  0.2740161187508836  1.0000
  H   H9        1.0  0.05616177466768876  0.9617917771090149  0.04692266091552222  1.0000
  H   H10       1.0  0.0580336190515118  0.8122352454366374  0.27558136812868445  1.0000
  H   H11       1.0  0.039775362652498376  0.6947360571588979  0.6435401465296492  1.0000
  C   C16       1.0  0.07604017040855093  0.5666335384303158  0.9868509081225348  1.0000
  C   C17       1.0  0.12172309704102541  0.6765057161262265  0.05182620035973895  1.0000
  C   C18       1.0  0.15945990987401015  0.7925574244025227  0.9681310188580348  1.0000
  C   C19       1.0  0.15284905367158885  0.797751866568244  0.8174992285311575  1.0000
  C   C20       1.0  0.10909603613347006  0.6885233342905093  0.751070504861548  1.0000
  C   C21       1.0  0.07145059455038044  0.5709855330681928  0.8334960506363078  1.0000
  C   C22       1.0  0.20924626348729497  0.9081377066678927  0.03936656868419841  1.0000
  C   C23       1.0  0.30786532409343126  0.8668922657054153  0.05712619633067128  1.0000
  H   H12       1.0  0.037315125945759114  0.3366397523912028  0.2845695500067438  1.0000
  H   H13       1.0  0.12636998375723985  0.6738277195187472  0.16854679874853404  1.0000
  H   H14       1.0  0.18247421891067472  0.885852530569445  0.7511453407291255  1.0000
  H   H15       1.0  0.10675585689222017  0.6941450100683296  0.6341008751319734  1.0000
  H   H16       1.0  0.9667861015404616  0.4049067930674606  0.5656309959309982  1.0000
  H   H17       1.0  0.20367391789020026  0.012823611598820941  0.9735900092561436  1.0000
  H   H18       1.0  0.17935926850203998  0.9244985395792895  0.14727104250748835  1.0000
  H   H19       1.0  0.31489488568288704  0.7643076929386314  0.12581093776661612  1.0000
  H   H20       1.0  0.33946180264513404  0.8535895497672747  0.9499241039854128  1.0000
  H   H21       1.0  0.3433225727443341  0.9534143328110088  0.10972061795177467  1.0000
  Zn  Zn1       1.0  0.9756287498332105  0.5689102562871933  0.4102365335718592  1.0000
  Zn  Zn2       1.0  0.17185345363480042  0.5687081426889693  0.4101097396319442  1.0000
  C   C24       1.0  0.07235280728223503  0.5644185215835757  0.6734586371909124  1.0000
  C   C25       1.0  0.07513152656900222  0.5732016952945163  0.14688777717212465  1.0000
  C   C26       1.0  0.07209027711340799  0.8321376762055901  0.40458170397987636  1.0000
  C   C27       1.0  0.07539400042562083  0.30548080871126043  0.4157647862772509  1.0000
  O   O1        1.0  0.14929287002377759  0.5753230369316966  0.20054949109268883  1.0000
  O   O2        1.0  0.14712148287781535  0.5621426904695747  0.6197002740008641  1.0000
  O   O3        1.0  0.14690847448008215  0.7783293023366018  0.4025802496021349  1.0000
  O   O4        1.0  0.14950581198337198  0.3591364348930995  0.4176694074540026  1.0000
  O   O5        1.0  0.997976324522809  0.7784819641535654  0.4026768657854871  1.0000
  O   O6        1.0  0.9981893222709205  0.5622970843182827  0.6197968143258135  1.0000
  O   O7        1.0  0.000360719192605163  0.5754773716230259  0.20064429822116356  1.0000
  O   O8        1.0  0.0005736606285084965  0.35929075982650094  0.4177643226555803  1.0000
