data_image0
_chemical_formula_structural       NC12NC2H8C7OC3NC3H11C7OC3FC3H9Zn2C4O8
_chemical_formula_sum              "N3 C44 H28 O10 F1 Zn2"
_cell_length_a       19.240039667572717
_cell_length_b       10.298746005989749
_cell_length_c       10.29938172300155
_cell_angle_alpha    85.57926667056456
_cell_angle_beta     89.98344622294186
_cell_angle_gamma    90.00762981599719

_space_group_name_H-M_alt    "P 1"
_space_group_IT_number       1

loop_
  _space_group_symop_operation_xyz
  'x, y, z'

loop_
  _atom_site_type_symbol
  _atom_site_label
  _atom_site_symmetry_multiplicity
  _atom_site_fract_x
  _atom_site_fract_y
  _atom_site_fract_z
  _atom_site_occupancy
  N   N1        1.0  0.6547999478409869  0.42102986342177706  0.5675956330151344  1.0000
  C   C1        1.0  0.5946515790423621  0.42102994738930083  0.5675955510867567  1.0000
  C   C2        1.0  0.5198335419307906  0.4210300646499734  0.5675954137941219  1.0000
  C   C3        1.0  0.48333924225377883  0.3565856506715823  0.6710006557267691  1.0000
  C   C4        1.0  0.4106684728680786  0.3564747819701309  0.6710871866599575  1.0000
  C   C5        1.0  0.3735013070352645  0.4210301571649109  0.5675951861224486  1.0000
  C   C6        1.0  0.4107098195729082  0.48558571941188644  0.4641033801434012  1.0000
  C   C7        1.0  0.48338048671520273  0.48547461522197527  0.46419003355331356  1.0000
  C   C8        1.0  0.2962962166047857  0.4210300784725766  0.5675950906994232  1.0000
  C   C9        1.0  0.259093860538964  0.3077702249447673  0.6094542359797703  1.0000
  C   C10       1.0  0.18642319389606535  0.3078771110602677  0.6093629216776626  1.0000
  C   C11       1.0  0.14996392966296315  0.4210299493041183  0.5675951515964426  1.0000
  C   C12       1.0  0.075145892461452  0.4210298356149318  0.5675954002447992  1.0000
  N   N2        1.0  0.014997575574213997  0.4210297948410628  0.5675956086592158  1.0000
  C   C13       1.0  0.18645217630005706  0.5341828633686196  0.5258273286323227  1.0000
  C   C14       1.0  0.259122894297154  0.5342899295790915  0.5257358517544477  1.0000
  H   H1        1.0  0.5110380654951185  0.30669155647165425  0.7517365736582526  1.0000
  H   H2        1.0  0.3835590077659701  0.30737912613449137  0.7529386876206887  1.0000
  H   H3        1.0  0.3836327538966796  0.5346814022893138  0.38225182833716964  1.0000
  H   H4        1.0  0.5111114348871514  0.5353686092211134  0.38345439140605775  1.0000
  H   H5        1.0  0.2861759613502803  0.2186151037663799  0.6406127246934512  1.0000
  H   H6        1.0  0.1586970819005891  0.21962151087564788  0.6415544638981272  1.0000
  H   H7        1.0  0.15874846484374466  0.6224384390179798  0.4936358009597579  1.0000
  H   H8        1.0  0.286227272315614  0.6234451299295003  0.49457731827740314  1.0000
  C   C15       1.0  0.8348688889637802  0.0396277541806862  0.5675784343908548  1.0000
  C   C16       1.0  0.8674006209854183  0.04810331654059707  0.44507555612987226  1.0000
  C   C17       1.0  0.8831194888331807  0.9352654276949618  0.3824431830499715  1.0000
  C   C18       1.0  0.867401149629204  0.8128667037999878  0.4450264195892603  1.0000
  C   C19       1.0  0.834935295542353  0.8024219578556766  0.5676239884711998  1.0000
  C   C20       1.0  0.8187078965599957  0.9163679786092622  0.6279676056882568  1.0000
  C   C21       1.0  0.918063360842661  0.9440241777880951  0.25362911342393857  1.0000
  O   O1        1.0  0.9605034490639304  0.8560398963804753  0.22841713798853736  1.0000
  C   C22       1.0  0.9048631025692621  0.0525367756393702  0.15342455776623232  1.0000
  C   C23       1.0  0.8390533263532894  0.11192584604652288  0.14131725822830843  1.0000
  C   C24       1.0  0.8268890227250651  0.2135728901605831  0.04541155194100188  1.0000
  N   N3        1.0  0.7599665241548396  0.27380438134590185  0.034207618484418216  1.0000
  C   C25       1.0  0.8805776898754619  0.25543809819344654  0.960278352575485  1.0000
  C   C26       1.0  0.9457533336294413  0.19588379924885202  0.9705296021218532  1.0000
  C   C27       1.0  0.957863622526913  0.0946611531150272  0.06613110400759314  1.0000
  H   H9        1.0  0.7743636325832852  0.2309085057335738  0.7999113534119711  1.0000
  H   H10       1.0  0.8812291757334956  0.14260854569287185  0.3988542924849541  1.0000
  H   H11       1.0  0.8799433470899213  0.7256631867212849  0.39732909113283754  1.0000
  H   H12       1.0  0.7936352304851221  0.909082774064601  0.7223970355905027  1.0000
  H   H13       1.0  0.773852530984963  0.5753686105708719  0.7994683875407658  1.0000
  H   H14       1.0  0.7969538334573777  0.07853776299510873  0.20527913706940473  1.0000
  H   H15       1.0  0.7195743724630993  0.24336609052318492  0.09715804723606114  1.0000
  H   H16       1.0  0.7503355421735878  0.34940191328869386  0.9629700628072485  1.0000
  H   H17       1.0  0.8718301697526375  0.33377100944172194  0.8857920917217998  1.0000
  H   H18       1.0  0.9870016089015895  0.22823569180548747  0.904235440935591  1.0000
  H   H19       1.0  0.00883665181770432  0.050020848504849225  0.07265857262158448  1.0000
  C   C28       1.0  0.834960598615315  0.4209236969697909  0.18623354535498393  1.0000
  C   C29       1.0  0.8569437986480258  0.2904581611159649  0.19508699028935414  1.0000
  C   C30       1.0  0.8687866289658528  0.22511122244382942  0.0823436789675478  1.0000
  C   C31       1.0  0.8568773491328322  0.2907513201049778  0.9598209577944274  1.0000
  C   C32       1.0  0.8348435716457828  0.42112595982696405  0.9489689130146877  1.0000
  C   C33       1.0  0.8241878920570263  0.48556168976417013  0.06276485904363538  1.0000
  C   C34       1.0  0.8912958788753028  0.08693105260567612  0.09158071528533185  1.0000
  O   O2        1.0  0.8698826839136596  0.013680737042057972  0.007395085474866777  1.0000
  C   C35       1.0  0.9381020696867459  0.031853268883352596  0.19622263265333828  1.0000
  C   C36       1.0  0.9324915853275395  0.899881224752234  0.24148789824794314  1.0000
  C   C37       1.0  0.9769302631158681  0.8466695765768243  0.33904118198864097  1.0000
  F   F1        1.0  0.9707645580041899  0.7195916221968535  0.38270239091119795  1.0000
  C   C38       1.0  0.027698110349142047  0.924299737354097  0.39151373558802544  1.0000
  C   C39       1.0  0.03430938718458898  0.05506623113056297  0.34618333939470647  1.0000
  C   C40       1.0  0.9900085684464396  0.10868968455577142  0.2487010560935834  1.0000
  H   H20       1.0  0.7924545864871769  0.6665147145303942  0.376893609695063  1.0000
  H   H21       1.0  0.864139965248349  0.23906333030600702  0.2898895088467628  1.0000
  H   H22       1.0  0.865487510953074  0.24019754663998943  0.8727921300537104  1.0000
  H   H23       1.0  0.8072401567034557  0.5861405949558679  0.05513545733788084  1.0000
  H   H24       1.0  0.8258190182778163  0.4708713860616531  0.6173697238219553  1.0000
  H   H25       1.0  0.8933329065600129  0.8383597454969908  0.20211128292364933  1.0000
  H   H26       1.0  0.06212086560281249  0.8830878086748551  0.4669279518059597  1.0000
  H   H27       1.0  0.0740132797727755  0.1148398244853903  0.38619877419594584  1.0000
  H   H28       1.0  0.996850693407068  0.20965715953179576  0.2134463630062804  1.0000
  Zn  Zn1       1.0  0.7587452102286578  0.4210263781132697  0.567603114180864  1.0000
  Zn  Zn2       1.0  0.9110523294093091  0.42102268855913705  0.5675987257259087  1.0000
  C   C41       1.0  0.8348637097212063  0.4159136273277591  0.8047952697077735  1.0000
  C   C42       1.0  0.8349354932289001  0.42613707810026286  0.33040669771501086  1.0000
  C   C43       1.0  0.8349199676643444  0.6582362269228491  0.5624402344090524  1.0000
  C   C44       1.0  0.8348791831674992  0.1838129180865129  0.5727618021604155  1.0000
  O   O3        1.0  0.8927268251123546  0.4278796700317286  0.3787908589507696  1.0000
  O   O4        1.0  0.8926699571210561  0.4141672552032126  0.7564074038328954  1.0000
  O   O5        1.0  0.8927146067460882  0.6098458193408192  0.5607039982302211  1.0000
  O   O6        1.0  0.892682123530966  0.23220111516058453  0.5744941671811459  1.0000
  O   O7        1.0  0.7771153641320576  0.6098479515144932  0.5607076727202935  1.0000
  O   O8        1.0  0.7770707146503444  0.4141709477982174  0.756411009170951  1.0000
  O   O9        1.0  0.7771275829234444  0.42788331695270765  0.37879290289051726  1.0000
  O   O10       1.0  0.7770828813234684  0.23220475281777153  0.5744963084878587  1.0000
