data_image0
_chemical_formula_structural       NC8NH3C7NH5C9H7Zn2C4O8
_chemical_formula_sum              "N3 C28 H15 Zn2 O8"
_cell_length_a       13.859017981522156
_cell_length_b       9.275154477615127
_cell_length_c       9.273585224739813
_cell_angle_alpha    86.3668502262391
_cell_angle_beta     90.10206682284496
_cell_angle_gamma    89.43373755438122

_space_group_name_H-M_alt    "P 1"
_space_group_IT_number       1

loop_
  _space_group_symop_operation_xyz
  'x, y, z'

loop_
  _atom_site_type_symbol
  _atom_site_label
  _atom_site_symmetry_multiplicity
  _atom_site_fract_x
  _atom_site_fract_y
  _atom_site_fract_z
  _atom_site_occupancy
  N   N1        1.0  0.8963714477678116  0.561845406878198  0.41636252519782  1.0000
  C   C1        1.0  0.8239943523618944  0.554195051550605  0.3550248813860305  1.0000
  C   C2        1.0  0.7339615208997219  0.5446793824504916  0.2787288353055757  1.0000
  C   C3        1.0  0.7337244476868376  0.5261229239930105  0.12994780076669496  1.0000
  C   C4        1.0  0.6462646054131564  0.5168828346580072  0.055854537985716934  1.0000
  C   C5        1.0  0.5588591600731109  0.5261246435298157  0.1299475593125501  1.0000
  C   C6        1.0  0.5587312773710152  0.5446803536865492  0.27872865538643826  1.0000
  C   C7        1.0  0.6463737650356275  0.5539565253338847  0.3531080187790281  1.0000
  C   C8        1.0  0.4687545293513865  0.5541959527129494  0.3550246445599001  1.0000
  N   N2        1.0  0.3964225299250917  0.5618457193586543  0.4163624328429554  1.0000
  H   H1        1.0  0.8009984398389343  0.5188208317735499  0.0714040318474578  1.0000
  H   H2        1.0  0.6462223826127906  0.5025490278046423  0.9409275916598667  1.0000
  H   H3        1.0  0.6464160672417507  0.568319248478049  0.4682686183105118  1.0000
  C   C9        1.0  0.14919189111699255  0.13843938578824933  0.41469455506541325  1.0000
  C   C10       1.0  0.12256373141436705  0.22033101805956098  0.2876099942401211  1.0000
  C   C11       1.0  0.08809483339705193  0.15307333257302824  0.16725729388526034  1.0000
  C   C12       1.0  0.07968718468302782  0.0030066401587349693  0.17257174037356204  1.0000
  C   C13       1.0  0.10720636710583233  0.9198779874272305  0.2967595095456599  1.0000
  C   C14       1.0  0.14361142009596772  0.9852408201345985  0.4180428590002083  1.0000
  C   C15       1.0  0.060181250822089805  0.23853125933745867  0.038641032895589955  1.0000
  N   N3        1.0  0.037746470097776326  0.3072238601690507  0.9352665038187649  1.0000
  H   H4        1.0  0.16829931287488042  0.21869465377242014  0.7684960323276735  1.0000
  H   H5        1.0  0.12649944421363757  0.33724709588131563  0.28333329906489174  1.0000
  H   H6        1.0  0.05268153944727461  0.9499429857856615  0.08007313150170692  1.0000
  H   H7        1.0  0.10213951523180344  0.803409102869531  0.29663266302316527  1.0000
  H   H8        1.0  0.16057022407782306  0.6888721005559822  0.6550999117171185  1.0000
  C   C16       1.0  0.14592481686401  0.5575521644447878  0.9931002081249698  1.0000
  C   C17       1.0  0.2322458828938697  0.525439404246915  0.06892999246355758  1.0000
  C   C18       1.0  0.3197872673615276  0.5063037574815719  0.9965939411760026  1.0000
  C   C19       1.0  0.3202175828339392  0.5200915180040935  0.8445892322253514  1.0000
  C   C20       1.0  0.23494555652763194  0.549493384273957  0.7677450094065484  1.0000
  C   C21       1.0  0.1468784934881853  0.5661280109653746  0.8396371575638626  1.0000
  C   C22       1.0  0.4094383234557746  0.4732387778973224  0.08797839250460093  1.0000
  C   C23       1.0  0.48553964527188986  0.3743100156999919  0.027349272106103942  1.0000
  C   C24       1.0  0.5044820595554287  0.5355240823151928  0.03189059277245264  1.0000
  H   H9        1.0  0.2318321379417403  0.5184810747058293  0.1860719879520063  1.0000
  H   H10       1.0  0.38574668083747654  0.5070638459697479  0.7836033824489828  1.0000
  H   H11       1.0  0.0026720706164975443  0.6685752711177113  0.5513721414114614  1.0000
  H   H12       1.0  0.40315781765346725  0.4639398547627042  0.20770347460206184  1.0000
  H   H13       1.0  0.4728061659962218  0.33720754787697227  0.9176247348914214  1.0000
  H   H14       1.0  0.5260296807456619  0.3068028986328184  0.11060363621156455  1.0000
  H   H15       1.0  0.5032119715170309  0.5961728496970311  0.924911249273625  1.0000
  Zn  Zn1       1.0  0.04067542911883361  0.5618417311178918  0.41637080310076935  1.0000
  Zn  Zn2       1.0  0.25211864208900203  0.5618377505212113  0.416365901682103  1.0000
  C   C25       1.0  0.14673392372546012  0.5587630373474017  0.6796008392624062  1.0000
  C   C26       1.0  0.14606244460614803  0.5649182649218838  0.15313601413094388  1.0000
  C   C27       1.0  0.14465480650333531  0.8251191169705312  0.4116661744402048  1.0000
  C   C28       1.0  0.14814150117996278  0.29856045378780816  0.421070748950942  1.0000
  O   O1        1.0  0.2263502725635005  0.5673825946546822  0.2068436076371014  1.0000
  O   O2        1.0  0.22692660865023306  0.5562945945156461  0.625889106472971  1.0000
  O   O3        1.0  0.22524661519264577  0.7713805125470903  0.4095299748997696  1.0000
  O   O4        1.0  0.22803019368012034  0.35229668584402285  0.4232026311799031  1.0000
  O   O5        1.0  0.06476380537250459  0.7713827957979313  0.40953407359706606  1.0000
  O   O6        1.0  0.06644378732319178  0.5562986092802849  0.6258931351665681  1.0000
  O   O7        1.0  0.06586744967948377  0.5673865416192745  0.20684590318614887  1.0000
  O   O8        1.0  0.06754737098186081  0.3523006235906816  0.42320503475344745  1.0000
