data_image0
_chemical_formula_structural       NC6NCNCH5C6NCH9C6NCOH5Zn2C4O8
_chemical_formula_sum              "N5 C26 H19 O9 Zn2"
_cell_length_a       14.933214217465613
_cell_length_b       9.273386996610927
_cell_length_c       9.273733555595832
_cell_angle_alpha    86.07967468279998
_cell_angle_beta     89.97675588165802
_cell_angle_gamma    89.43266693644959

_space_group_name_H-M_alt    "P 1"
_space_group_IT_number       1

loop_
  _space_group_symop_operation_xyz
  'x, y, z'

loop_
  _atom_site_type_symbol
  _atom_site_label
  _atom_site_symmetry_multiplicity
  _atom_site_fract_x
  _atom_site_fract_y
  _atom_site_fract_z
  _atom_site_occupancy
  N   N1        1.0  0.8328559883249529  0.5626298218664108  0.4068298823345284  1.0000
  C   C1        1.0  0.7553591772075687  0.5636162767155892  0.40583792216347714  1.0000
  C   C2        1.0  0.6589525689152333  0.564846132524996  0.4046010706414809  1.0000
  C   C3        1.0  0.6117576197634771  0.4700659986115838  0.49992965267119893  1.0000
  C   C4        1.0  0.5182170773161461  0.4711377579874902  0.49885172136641426  1.0000
  C   C5        1.0  0.470969490699275  0.5669353470771379  0.4024998336565564  1.0000
  C   C6        1.0  0.37440782375672105  0.5648482678466678  0.4045989966438137  1.0000
  N   N2        1.0  0.2969337447916803  0.5631071786658619  0.40634978921338333  1.0000
  C   C7        1.0  0.5182552576254948  0.6629122970058903  0.3059676395829556  1.0000
  N   N3        1.0  0.47228232288008815  0.7624827958834635  0.20582124731078763  1.0000
  C   C8        1.0  0.6122825084382186  0.6608843224610028  0.3080074665839947  1.0000
  H   H1        1.0  0.6472514806260337  0.39533823674674484  0.5750897856134924  1.0000
  H   H2        1.0  0.4826257576016814  0.39703861632424675  0.5733794674753914  1.0000
  H   H3        1.0  0.5081708563346291  0.8328090480567303  0.1350880089792359  1.0000
  H   H4        1.0  0.40250566250183395  0.7677807962281895  0.20049266208299515  1.0000
  H   H5        1.0  0.6490032158874459  0.734237903096649  0.23422942971832184  1.0000
  C   C9        1.0  0.06765286317416667  0.13922493530527147  0.40729520776414385  1.0000
  C   C10       1.0  0.08336950751533223  0.22131719475738043  0.2769686214255942  1.0000
  C   C11       1.0  0.09065473785705597  0.15542220715950347  0.14664270159344084  1.0000
  C   C12       1.0  0.08233345952070997  0.005077113107748714  0.14331131583349066  1.0000
  C   C13       1.0  0.06819485817513704  0.9220187007688634  0.27318360090786675  1.0000
  C   C14       1.0  0.06214548381688627  0.9865010496516403  0.40589699976777593  1.0000
  N   N4        1.0  0.08886155487907393  0.9341160261699218  0.010295627270845428  1.0000
  C   C15       1.0  0.10377189674594227  0.010517418296501116  0.8696404658052835  1.0000
  H   H6        1.0  0.08595977951939497  0.4039296502651901  0.6438886391423042  1.0000
  H   H7        1.0  0.08793678548799916  0.3379487960995686  0.27519574385461554  1.0000
  H   H8        1.0  0.10194254403110414  0.2229845579818761  0.04873544551862063  1.0000
  H   H9        1.0  0.06396804025823766  0.8055888661438023  0.27091440348306367  1.0000
  H   H10       1.0  0.0951343092843535  0.8589429459316174  0.7568863945065376  1.0000
  H   H11       1.0  0.08253081955290043  0.8217744887790963  0.01329074028880828  1.0000
  H   H12       1.0  0.04825757239806738  0.08876495177519718  0.8446573390801195  1.0000
  H   H13       1.0  0.1685865590887614  0.06813832803956842  0.8698059814131889  1.0000
  H   H14       1.0  0.10602492630962229  0.9321668153122697  0.7843174072309067  1.0000
  C   C16       1.0  0.06487748713089614  0.5583176765408469  0.9833766384938776  1.0000
  C   C17       1.0  0.9826279508566921  0.54995276761172  0.05742690758317281  1.0000
  C   C18       1.0  0.9011167880640565  0.5532798859396765  0.9825560930993426  1.0000
  C   C19       1.0  0.9018008110500014  0.5696612754433981  0.8311805079714238  1.0000
  C   C20       1.0  0.9827178579703446  0.5758720767134557  0.7559311918559977  1.0000
  C   C21       1.0  0.06492087515667054  0.5674083062425843  0.8298155631004049  1.0000
  N   N5        1.0  0.8185809174526287  0.5481351062179072  0.06266434551083577  1.0000
  C   C22       1.0  0.7383357919735059  0.48161949512806546  0.016075014727588544  1.0000
  O   O1        1.0  0.7383611658687311  0.40527297359855236  0.9088506625682083  1.0000
  H   H15       1.0  0.27524360389720426  0.6587080377664256  0.07930647656942758  1.0000
  H   H16       1.0  0.8398942743254987  0.5792029025689438  0.7706140209289178  1.0000
  H   H17       1.0  0.2073517540951504  0.6289260930355098  0.5444602893747383  1.0000
  H   H18       1.0  0.8180108848586896  0.5864934676672486  0.16602037294271116  1.0000
  H   H19       1.0  0.6770520772089063  0.49365536307389823  0.0765392048517477  1.0000
  Zn  Zn1       1.0  0.9667788304048508  0.5627637952338098  0.4066996755354008  1.0000
  Zn  Zn2       1.0  0.163010965585356  0.5629614972948995  0.4064918507756867  1.0000
  C   C23       1.0  0.06494803458017298  0.5599428160709297  0.669829949675829  1.0000
  C   C24       1.0  0.06484389243426558  0.5657843003962375  0.14336171281621476  1.0000
  C   C25       1.0  0.06318160712911025  0.8262861578589489  0.40041818940054186  1.0000
  C   C26       1.0  0.06661026419529237  0.2994392261040512  0.4127735528594895  1.0000
  O   O2        1.0  0.13930173128593243  0.5683589006842751  0.19697530721373635  1.0000
  O   O3        1.0  0.13942585288090545  0.5575171742924645  0.6160582080194268  1.0000
  O   O4        1.0  0.1379984365727505  0.7725928062406182  0.39850630405195087  1.0000
  O   O5        1.0  0.1407290805607311  0.3532832778281465  0.4145271031747608  1.0000
  O   O6        1.0  0.9890606484650677  0.7724420146345858  0.398664423199664  1.0000
  O   O7        1.0  0.9904880534988509  0.5573681151246219  0.6162162474624899  1.0000
  O   O8        1.0  0.9903639322013841  0.5682097726344413  0.19713161399454046  1.0000
  O   O9        1.0  0.9917912815451311  0.3531341406203099  0.41468351802535386  1.0000
