data_image0
_chemical_formula_structural       NC8NH4C6NH7C9H10Zn2C4O8
_chemical_formula_sum              "N3 C27 H21 Zn2 O8"
_cell_length_a       13.859017124695912
_cell_length_b       9.274771166103582
_cell_length_c       10.297187173949778
_cell_angle_alpha    85.46307945309522
_cell_angle_beta     89.97407186165773
_cell_angle_gamma    90.59707951677755

_space_group_name_H-M_alt    "P 1"
_space_group_IT_number       1

loop_
  _space_group_symop_operation_xyz
  'x, y, z'

loop_
  _atom_site_type_symbol
  _atom_site_label
  _atom_site_symmetry_multiplicity
  _atom_site_fract_x
  _atom_site_fract_y
  _atom_site_fract_z
  _atom_site_occupancy
  N   N1        1.0  0.9200800130815104  0.5784646915835034  0.5645719987862134  1.0000
  C   C1        1.0  0.8475830077134942  0.5555932248287869  0.513994902012076  1.0000
  C   C2        1.0  0.7574010501067878  0.5271444669894154  0.4510834931574892  1.0000
  C   C3        1.0  0.6699586547705056  0.5548791279281657  0.5124142004296588  1.0000
  C   C4        1.0  0.5821707389732373  0.5271456930335354  0.4510829690667497  1.0000
  C   C5        1.0  0.5820075814509903  0.4716700930495894  0.328402202856928  1.0000
  C   C6        1.0  0.6692680805488902  0.4440420288587679  0.2673075741587653  1.0000
  C   C7        1.0  0.7568729235801511  0.4716677431774388  0.32840326867015746  1.0000
  C   C8        1.0  0.4923431756092899  0.555594151541519  0.5139944516673289  1.0000
  N   N2        1.0  0.4201311409855477  0.5784650142437375  0.5645718035847693  1.0000
  H   H1        1.0  0.6702261514937308  0.5978194094147713  0.6073720512742975  1.0000
  H   H2        1.0  0.5145761640636526  0.449841893222825  0.2801282190895025  1.0000
  H   H3        1.0  0.6690011968193806  0.40118945977826037  0.17254202776197047  1.0000
  H   H4        1.0  0.824032348982191  0.4498374422455298  0.2801301888794907  1.0000
  C   C9        1.0  0.1671476393783149  0.15486841055000622  0.5652799392458745  1.0000
  C   C10       1.0  0.1449830881117442  0.23816126587593714  0.4491177461633386  1.0000
  C   C11       1.0  0.13182759870511895  0.17309588967935152  0.33221855106205433  1.0000
  C   C12       1.0  0.14088752784067027  0.02336006943642045  0.330634837199951  1.0000
  C   C13       1.0  0.16126836525243737  0.9387475666093623  0.4452013019060918  1.0000
  C   C14       1.0  0.17307267898595802  0.0020502614696798005  0.5638751602788086  1.0000
  N   N3        1.0  0.11025629617871813  0.2594880688685044  0.2147796678700271  1.0000
  H   H5        1.0  0.27564305599963834  0.23456766723252903  0.849564543883268  1.0000
  H   H6        1.0  0.1401181577960511  0.3547539023005132  0.4486187744193026  1.0000
  H   H7        1.0  0.131222384332236  0.9718605439992833  0.24069270039645116  1.0000
  H   H8        1.0  0.16552188254686495  0.8225830457057669  0.4414810939743339  1.0000
  H   H9        1.0  0.24223727526706562  0.7050104394534364  0.7572893490685703  1.0000
  H   H10       1.0  0.10360833426390315  0.3715619596241617  0.2147374797352559  1.0000
  H   H11       1.0  0.10068127630960833  0.2120060432677804  0.1269737638801376  1.0000
  C   C15       1.0  0.17023734807786783  0.5784071754013788  0.18312446915642333  1.0000
  C   C16       1.0  0.07273123659035141  0.6180277426978968  0.17957689481274386  1.0000
  C   C17       1.0  0.022775980073379998  0.6383262852001292  0.06114296454387124  1.0000
  C   C18       1.0  0.07235325111688229  0.6181807781472939  0.9443539160999846  1.0000
  C   C19       1.0  0.1699829653990519  0.5785114871715757  0.9460306059670951  1.0000
  C   C20       1.0  0.2182874458177031  0.5588823197274091  0.06580443020351745  1.0000
  C   C21       1.0  0.9173160905473063  0.6811784653417247  0.06673817982179231  1.0000
  C   C22       1.0  0.8493589139840864  0.6231590739442308  0.9665625675319971  1.0000
  C   C23       1.0  0.8791640900083303  0.7822981233686315  0.9551991708918468  1.0000
  H   H12       1.0  0.2078122689673485  0.5631531907816907  0.5120288520461267  1.0000
  H   H13       1.0  0.03508860459946761  0.633323816869548  0.2696296940883242  1.0000
  H   H14       1.0  0.035755129355492084  0.6330487042066271  0.8517221748437374  1.0000
  H   H15       1.0  0.29351526455270815  0.5283135022119683  0.06781411227827627  1.0000
  H   H16       1.0  0.35437421623238663  0.5035689084505874  0.741982283033638  1.0000
  H   H17       1.0  0.8834197134491026  0.6949531003368912  0.16279263298437652  1.0000
  H   H18       1.0  0.8815803761294413  0.5580518533864154  0.8921455352298522  1.0000
  H   H19       1.0  0.7742301085489176  0.6036409750643981  0.0017135381547139822  1.0000
  H   H20       1.0  0.9294910387933664  0.8138589931252787  0.8738804251816531  1.0000
  H   H21       1.0  0.8214542400273294  0.8557902265587611  0.9837063186958233  1.0000
  Zn  Zn1       1.0  0.0643839404670177  0.5784609344659206  0.5645794541535827  1.0000
  Zn  Zn2       1.0  0.27582712011604493  0.578457005862691  0.564575021757411  1.0000
  C   C24       1.0  0.16998869717793297  0.5727452064851459  0.8018345364634956  1.0000
  C   C25       1.0  0.17022468504469357  0.5841745538757175  0.327320063875633  1.0000
  C   C26       1.0  0.17194946814222245  0.8419141198926239  0.558964357415445  1.0000
  C   C27       1.0  0.16826382978578502  0.315003907410071  0.5701903150528994  1.0000
  O   O1        1.0  0.2504619759338642  0.5861023548053972  0.3757117510704466  1.0000
  O   O2        1.0  0.2502318796942354  0.5708133355819383  0.7534391130584908  1.0000
  O   O3        1.0  0.25181414489990295  0.7881706374687205  0.5573197226659441  1.0000
  O   O4        1.0  0.24887963868160748  0.3687450632255358  0.5718310440512411  1.0000
  O   O5        1.0  0.09133134974628844  0.7881728771059855  0.5573234318544298  1.0000
  O   O6        1.0  0.08974909668007315  0.5708173082802823  0.7534427501124392  1.0000
  O   O7        1.0  0.08997919315308445  0.5861062770232744  0.3757138264625255  1.0000
  O   O8        1.0  0.0883968557922501  0.36874897513940297  0.5718332168497506  1.0000
