data_image0
_chemical_formula_structural       NC8NH4C6NH7C6SCH8Zn2C4O8
_chemical_formula_sum              "N3 C25 H19 S1 Zn2 O8"
_cell_length_a       13.859017124695912
_cell_length_b       9.274771166103582
_cell_length_c       10.302812801239595
_cell_angle_alpha    85.45577702643503
_cell_angle_beta     89.99985351461923
_cell_angle_gamma    90.59707951677755

_space_group_name_H-M_alt    "P 1"
_space_group_IT_number       1

loop_
  _space_group_symop_operation_xyz
  'x, y, z'

loop_
  _atom_site_type_symbol
  _atom_site_label
  _atom_site_symmetry_multiplicity
  _atom_site_fract_x
  _atom_site_fract_y
  _atom_site_fract_z
  _atom_site_occupancy
  N   N1        1.0  0.9196014762109161  0.5786609352582348  0.5653419441147489  1.0000
  C   C1        1.0  0.8470876096658896  0.5557963831208448  0.5147919762522386  1.0000
  C   C2        1.0  0.7568846789217685  0.5273562261768479  0.4519143122774496  1.0000
  C   C3        1.0  0.6694627297553426  0.5550825023248884  0.5132121225380519  1.0000
  C   C4        1.0  0.5816543676134989  0.5273574522926189  0.4519137884678255  1.0000
  C   C5        1.0  0.5814503113001633  0.47189862453574327  0.32929882666112587  1.0000
  C   C6        1.0  0.6686904429310758  0.44427891286029086  0.268236968344985  1.0000
  C   C7        1.0  0.7563156537846403  0.47189627451788074  0.32929989190266706  1.0000
  C   C8        1.0  0.4918477774115509  0.5557973098951454  0.5147915261490505  1.0000
  N   N2        1.0  0.4196526040498776  0.5786612579451555  0.5653417490180084  1.0000
  H   H1        1.0  0.6697618831222608  0.5980098017061021  0.6081190391988767  1.0000
  H   H2        1.0  0.5140028005378158  0.4500770244575978  0.28105073644479495  1.0000
  H   H3        1.0  0.6683919666675106  0.40143929959438895  0.17352225298234347  1.0000
  H   H4        1.0  0.8234589861130343  0.45007257321100336  0.2810527051782121  1.0000
  C   C9        1.0  0.1666693385178939  0.15506455743908454  0.5660495048441487  1.0000
  C   C10       1.0  0.14446606159436826  0.23837329380928576  0.4499496196849923  1.0000
  C   C11       1.0  0.1312716008321948  0.1733238994157587  0.33311312782559943  1.0000
  C   C12       1.0  0.14033100199596715  0.023588295689314535  0.3315302634474748  1.0000
  C   C13       1.0  0.16075003308756286  0.9389601299770293  0.44603527615864813  1.0000
  C   C14       1.0  0.17259390980631117  0.0022466004122676545  0.5646454793826594  1.0000
  N   N3        1.0  0.10966114703133023  0.2597321341911023  0.21573723735729322  1.0000
  H   H5        1.0  0.27525952872935666  0.23472494832308755  0.8501816228342636  1.0000
  H   H6        1.0  0.1396009649336012  0.35496599845048393  0.44945091558305544  1.0000
  H   H7        1.0  0.13063587396121454  0.9721010666372449  0.2416363704625517  1.0000
  H   H8        1.0  0.16500231015492228  0.8227961176794207  0.4423170636991225  1.0000
  H   H9        1.0  0.24182298568552696  0.7051803358916837  0.7579559232607949  1.0000
  H   H10       1.0  0.10301317105201435  0.3718060307144848  0.21569507185170123  1.0000
  H   H11       1.0  0.10005685480409454  0.2122621129216631  0.12797843133786113  1.0000
  C   C15       1.0  0.16963164585521695  0.5786555684454049  0.18409901808978724  1.0000
  C   C16       1.0  0.13809730130360998  0.7225061067856167  0.1726633428063853  1.0000
  C   C17       1.0  0.12215656345362769  0.7938688357341699  0.04999807929034272  1.0000
  C   C18       1.0  0.13809721325787974  0.7225059553633153  0.9375121733681252  1.0000
  C   C19       1.0  0.16963158320132643  0.578655558724355  0.9465959217354594  1.0000
  C   C20       1.0  0.1852148438373622  0.5074206538263855  0.07042812536460663  1.0000
  S   S1        1.0  0.08206568860875897  0.9777659737655721  0.03688199059154407  1.0000
  C   C21       1.0  0.9547936991092087  0.9273675169471027  0.0404776988683515  1.0000
  H   H12       1.0  0.1814794321934421  0.5244267809274235  0.5157229659256486  1.0000
  H   H13       1.0  0.12557054497207942  0.7796439510635833  0.25868770262390006  1.0000
  H   H14       1.0  0.12557035033967212  0.7796437432722971  0.8433373899862509  1.0000
  H   H15       1.0  0.20952111771453552  0.39645279478611034  0.07834256553969632  1.0000
  H   H16       1.0  0.18147763035976472  0.5244260320302851  0.6227073816534054  1.0000
  H   H17       1.0  0.9372351583652232  0.8631965556170813  0.9569377348648351  1.0000
  H   H18       1.0  0.937235581814734  0.8631980134224924  0.1331724244821233  1.0000
  H   H19       1.0  0.9108329288381688  0.026932006464545757  0.03337619961974747  1.0000
  Zn  Zn1       1.0  0.06390540608186157  0.5786571771213957  0.5653493954831541  1.0000
  Zn  Zn2       1.0  0.2753485842532353  0.5786532491241383  0.5653449654644627  1.0000
  C   C22       1.0  0.16958925788115845  0.572909012954925  0.802477217183589  1.0000
  C   C23       1.0  0.16966705413498384  0.5844032333058504  0.3282172681254216  1.0000
  C   C24       1.0  0.17146906182004204  0.8421111302126678  0.5597373106115113  1.0000
  C   C25       1.0  0.16778716592552767  0.31519938298007766  0.5709572467880257  1.0000
  O   O1        1.0  0.24992047763863146  0.5863244183951581  0.37658299863451883  1.0000
  O   O2        1.0  0.24981630653742193  0.570983758402883  0.7541077524683559  1.0000
  O   O3        1.0  0.2513331902963978  0.7883678726340138  0.5580935580231783  1.0000
  O   O4        1.0  0.248403521800592  0.36894031448426534  0.572597095720194  1.0000
  O   O5        1.0  0.09085039637933656  0.7883701117641795  0.558097265222103  1.0000
  O   O6        1.0  0.0893335247357654  0.5709877306039894  0.7541113875714349  1.0000
  O   O7        1.0  0.08943769554973713  0.5863283403292994  0.3765850729133837  1.0000
  O   O8        1.0  0.08792073963559277  0.36894422610107985  0.5725992673532421  1.0000
