data_image0
_chemical_formula_structural       NC12NC2H8C6NCH9C6NCH7Zn2C4O8
_chemical_formula_sum              "N4 C32 H24 Zn2 O8"
_cell_length_a       19.240039667572717
_cell_length_b       9.273386996610926
_cell_length_c       9.273390368590329
_cell_angle_alpha    86.07317832945773
_cell_angle_beta     89.99083702737411
_cell_angle_gamma    89.39858615406628

_space_group_name_H-M_alt    "P 1"
_space_group_IT_number       1

loop_
  _space_group_symop_operation_xyz
  'x, y, z'

loop_
  _atom_site_type_symbol
  _atom_site_label
  _atom_site_symmetry_multiplicity
  _atom_site_fract_x
  _atom_site_fract_y
  _atom_site_fract_z
  _atom_site_occupancy
  N   N1        1.0  0.6466977738374066  0.5619481817605749  0.40762040297767843  1.0000
  C   C1        1.0  0.5865494045600603  0.5619482740860342  0.4076203118941639  1.0000
  C   C2        1.0  0.5117313667797042  0.5619484027554094  0.40762015930439466  1.0000
  C   C3        1.0  0.4756049248621571  0.49155545974725795  0.522501281500874  1.0000
  C   C4        1.0  0.4029347873321381  0.49143330646780004  0.5225975241888585  1.0000
  C   C5        1.0  0.3653991313552241  0.5619485028986836  0.4076199064599457  1.0000
  C   C6        1.0  0.4022391526864538  0.6324639093374786  0.29264250429362426  1.0000
  C   C7        1.0  0.4749104530258403  0.6323414958955145  0.2927388833542568  1.0000
  C   C8        1.0  0.2881940413715096  0.5619484143928326  0.40761980071036374  1.0000
  C   C9        1.0  0.25163665992318723  0.43662533178585633  0.45429068862608224  1.0000
  C   C10       1.0  0.1789653840356623  0.4367430063498907  0.45418914499144747  1.0000
  C   C11       1.0  0.1418617551653995  0.5619482716180746  0.40761986853965393  1.0000
  C   C12       1.0  0.06704371861356581  0.5619481481965569  0.4076201447042198  1.0000
  N   N2        1.0  0.006895401960633299  0.5619481053037093  0.4076203760784689  1.0000
  C   C13       1.0  0.17770563673328926  0.6871536204965709  0.3610505332542988  1.0000
  C   C14       1.0  0.2503757444591336  0.6872714932330175  0.3609488088510766  1.0000
  H   H1        1.0  0.5035885580004102  0.437063694657535  0.6121964401787716  1.0000
  H   H2        1.0  0.3761056007198649  0.4378412461710055  0.6135292246249331  1.0000
  H   H3        1.0  0.3748818083659499  0.6860559990863997  0.20171074737809191  1.0000
  H   H4        1.0  0.502356591874092  0.6868331528582051  0.20304403093035694  1.0000
  H   H5        1.0  0.2792264478854418  0.3379537497894547  0.48904011628350386  1.0000
  H   H6        1.0  0.1517418516607701  0.33908245846999624  0.4900833311106955  1.0000
  H   H7        1.0  0.1494993457961722  0.7848141412910021  0.32515636332696873  1.0000
  H   H8        1.0  0.2769724348756295  0.7859431626556903  0.3261993313646927  1.0000
  C   C15       1.0  0.828937123849126  0.1383016970104467  0.4083286089649152  1.0000
  C   C16       1.0  0.8411578145146544  0.22039211661533772  0.2780124762030738  1.0000
  C   C17       1.0  0.8468343972162934  0.15450396290493096  0.14768828902713005  1.0000
  C   C18       1.0  0.8403763367931572  0.004167795625262819  0.14434814790508588  1.0000
  C   C19       1.0  0.8293805335460557  0.9211096496713072  0.274211591408287  1.0000
  C   C20       1.0  0.8246627653706913  0.985583630791989  0.40692464220976765  1.0000
  N   N3        1.0  0.8454657192604423  0.9332146172007797  0.011333289101806315  1.0000
  C   C21       1.0  0.8570623429720111  0.009616134528376232  0.8706872873430133  1.0000
  H   H9        1.0  0.8431060701400886  0.4029615667086137  0.6449515102238237  1.0000
  H   H10       1.0  0.8447030435548809  0.33701921429263804  0.27624424381394364  1.0000
  H   H11       1.0  0.8556121144619774  0.22206546572985797  0.04978834907164419  1.0000
  H   H12       1.0  0.8261002404941872  0.8046844128653422  0.27193792098011205  1.0000
  H   H13       1.0  0.8502077965033592  0.8579530006559789  0.7579637863878812  1.0000
  H   H14       1.0  0.8405515618107747  0.8208792632521508  0.01432198734307155  1.0000
  H   H15       1.0  0.8139787018004878  0.08792352505405797  0.8456456275507307  1.0000
  H   H16       1.0  0.9073687214909132  0.06717034806070797  0.8709198507292412  1.0000
  H   H17       1.0  0.8588255143536806  0.9312725945055786  0.7853627601659037  1.0000
  C   C22       1.0  0.8268548612850432  0.5574439007380871  0.9843882940745486  1.0000
  C   C23       1.0  0.8907044698353103  0.5545774289982135  0.05799552072034064  1.0000
  C   C24       1.0  0.9533729945078732  0.5651218903871462  0.9825632506170021  1.0000
  C   C25       1.0  0.9537835497580547  0.5789236533311377  0.8309123914800072  1.0000
  C   C26       1.0  0.8903698491741584  0.579357170534198  0.7564995943536696  1.0000
  C   C27       1.0  0.8267450587348876  0.5664414714502082  0.8308649190211432  1.0000
  N   N4        1.0  0.017618407353170655  0.5911291911683553  0.7501038855957018  1.0000
  C   C28       1.0  0.08624077960752685  0.5912992135790103  0.8170917918424419  1.0000
  H   H18       1.0  0.7175022068117574  0.4881454498681663  0.2703431373086085  1.0000
  H   H19       1.0  0.0012669805711007518  0.5637943930675282  0.043686447945891604  1.0000
  H   H20       1.0  0.6653354473271347  0.45436251918871373  0.7355595801981947  1.0000
  H   H21       1.0  0.015315054631094721  0.6006902768800493  0.6372122091511452  1.0000
  H   H22       1.0  0.09028463320890401  0.6838436818307176  0.8864069733761024  1.0000
  H   H23       1.0  0.09523893053397203  0.48817600728448496  0.8828166116084133  1.0000
  H   H24       1.0  0.12691681225556262  0.6022054585050541  0.7321831468598332  1.0000
  Zn  Zn1       1.0  0.750643056140348  0.5619443964655377  0.4076287121561204  1.0000
  Zn  Zn2       1.0  0.902950196268841  0.5619402477804245  0.40762384892275505  1.0000
  C   C29       1.0  0.8267932422892507  0.5589934962311687  0.6708722425001317  1.0000
  C   C30       1.0  0.8268016641079586  0.5648929697459907  0.14438045696996737  1.0000
  C   C31       1.0  0.8254678894016494  0.8253682754512026  0.40144665960294224  1.0000
  C   C32       1.0  0.8281269737577804  0.29851645807031013  0.41380611958109315  1.0000
  O   O1        1.0  0.8845836083237412  0.5673850771173882  0.1980734532416537  1.0000
  O   O2        1.0  0.8846088988278774  0.5564971473616431  0.6171751420607563  1.0000
  O   O3        1.0  0.8835378802468453  0.7715981663015146  0.3996120751797825  1.0000
  O   O4        1.0  0.885654574894621  0.3522840673503766  0.41563641204203217  1.0000
  O   O5        1.0  0.767938625539609  0.7716005768984908  0.39961614903091913  1.0000
  O   O6        1.0  0.7690096353834616  0.5565012904171713  0.6171791361920334  1.0000
  O   O7        1.0  0.7689843454039768  0.5673891514811142  0.19807571463383256  1.0000
  O   O8        1.0  0.7700553120100502  0.35228813254414804  0.4156387815088831  1.0000
