data_image0
_chemical_formula_structural       NC9NC5H8C6FH5C6ClH5Zn2C4O8
_chemical_formula_sum              "N2 C30 H18 F1 Cl1 Zn2 O8"
_cell_length_a       17.807436237873137
_cell_length_b       9.275642734913903
_cell_length_c       10.302974078461048
_cell_angle_alpha    85.47815817126667
_cell_angle_beta     89.39214410348853
_cell_angle_gamma    88.99238798493903

_space_group_name_H-M_alt    "P 1"
_space_group_IT_number       1

loop_
  _space_group_symop_operation_xyz
  'x, y, z'

loop_
  _atom_site_type_symbol
  _atom_site_label
  _atom_site_symmetry_multiplicity
  _atom_site_fract_x
  _atom_site_fract_y
  _atom_site_fract_z
  _atom_site_occupancy
  N   N1        1.0  0.7158633443650748  0.5407882884599222  0.5554723017544174  1.0000
  C   C1        1.0  0.6550615243980593  0.5017184016079055  0.5445061259883053  1.0000
  C   C2        1.0  0.5794307430905885  0.4531197649651313  0.5308653939462671  1.0000
  C   C3        1.0  0.5609044981881711  0.3738307840173163  0.4260070108036986  1.0000
  C   C4        1.0  0.48747023990867844  0.32652146289970196  0.41268030859115284  1.0000
  C   C5        1.0  0.4315112089798644  0.35808196452743546  0.5041801290199077  1.0000
  C   C6        1.0  0.35347022215645135  0.30793192796935465  0.49009916648705243  1.0000
  C   C7        1.0  0.2917917288914549  0.39870285587030735  0.5159038194690146  1.0000
  C   C8        1.0  0.2182139292852917  0.35116810831537504  0.5025911060219708  1.0000
  C   C9        1.0  0.1555017357844961  0.44492715094178886  0.5287554039428007  1.0000
  N   N2        1.0  0.10509408492421682  0.5203029345807388  0.5497907822059472  1.0000
  C   C10       1.0  0.20572950706805776  0.2125760066048421  0.46344879484168244  1.0000
  C   C11       1.0  0.2665505461591646  0.12178969902610091  0.43763577622855326  1.0000
  C   C12       1.0  0.3400065112427472  0.16888640242940767  0.45074662473520527  1.0000
  C   C13       1.0  0.45073186879550736  0.4379198222157685  0.6092569093683002  1.0000
  C   C14       1.0  0.5242178390610708  0.48501775597735586  0.6224283049174848  1.0000
  H   H1        1.0  0.6031625383243224  0.3488667092253366  0.3543524955092825  1.0000
  H   H2        1.0  0.4742308319902111  0.2669204397796401  0.3298697571525051  1.0000
  H   H3        1.0  0.3008827126425102  0.5069146035992569  0.5446214641157427  1.0000
  H   H4        1.0  0.14905721791289178  0.17478701280567188  0.45290974311274856  1.0000
  H   H5        1.0  0.2567662127761781  0.014488488380773207  0.4077168555401308  1.0000
  H   H6        1.0  0.3862469859921817  0.09589206093591394  0.4318056018742458  1.0000
  H   H7        1.0  0.40918742541119746  0.4622853997187968  0.6822063246092976  1.0000
  H   H8        1.0  0.5379930303084814  0.5459739612505938  0.704195696631328  1.0000
  C   C15       1.0  0.9081597722327778  0.10712370766209633  0.5532236433421426  1.0000
  C   C16       1.0  0.8936223730152341  0.19120167360909948  0.43615214491874205  1.0000
  C   C17       1.0  0.8861695945987239  0.12631689644320906  0.31937772225528543  1.0000
  C   C18       1.0  0.8931980390087526  0.9766562253571119  0.31760990079310175  1.0000
  C   C19       1.0  0.9063779999238704  0.8910602136049035  0.43288509408191583  1.0000
  C   C20       1.0  0.9128047865313603  0.9539560715730917  0.5520506035072392  1.0000
  F   F1        1.0  0.872986471958382  0.20911019517315596  0.20727275520702748  1.0000
  H   H9        1.0  0.9857701121979847  0.18218485547143823  0.8420776706164922  1.0000
  H   H10       1.0  0.8897875730752397  0.30802887922969013  0.4345465873101644  1.0000
  H   H11       1.0  0.8877142585561776  0.9264834984336725  0.22689259868716016  1.0000
  H   H12       1.0  0.9097697416029381  0.774721780374991  0.42926751953451747  1.0000
  H   H13       1.0  0.9620570365453539  0.653939661344912  0.7482201586594699  1.0000
  C   C21       1.0  0.9104822775683271  0.5305399119854828  0.17139463881831207  1.0000
  C   C22       1.0  0.8965964759355196  0.38146845194730145  0.18102644835307394  1.0000
  C   C23       1.0  0.889706758386362  0.30750325168540593  0.06884869779024073  1.0000
  C   C24       1.0  0.8965965099727753  0.38146853161104927  0.9459185487788587  1.0000
  C   C25       1.0  0.910482275244334  0.5305398376574052  0.9338796580227939  1.0000
  C   C26       1.0  0.9173575026165366  0.6043489373987301  0.0472723073343322  1.0000
  Cl  Cl1       1.0  0.8723600957998783  0.121277583745363  0.08238465880546353  1.0000
  H   H14       1.0  0.9157132524384454  0.5866925352187884  0.495069435178619  1.0000
  H   H15       1.0  0.8910737785800407  0.32217925063037955  0.2753824734938584  1.0000
  H   H16       1.0  0.8910738309499543  0.3221792272935933  0.8601815066823773  1.0000
  H   H17       1.0  0.9280666159211398  0.7193173234840741  0.03891564218752763  1.0000
  H   H18       1.0  0.9157131094542222  0.586692529980665  0.6020418068009891  1.0000
  Zn  Zn1       1.0  0.8281869059470831  0.5348728104415243  0.5538402515722429  1.0000
  Zn  Zn2       1.0  0.9927704406752486  0.5262066591076395  0.55143352174164  1.0000
  C   C27       1.0  0.9104490823551149  0.5247957980809081  0.7897616171582144  1.0000
  C   C28       1.0  0.9105100714934565  0.5362853961411367  0.3155122547783678  1.0000
  C   C29       1.0  0.9119229002770294  0.7938869367733574  0.547098947395098  1.0000
  C   C30       1.0  0.9090361879084726  0.26719252805171334  0.5581749969780473  1.0000
  O   O1        1.0  0.9729779585794189  0.534918583350489  0.3629661105108224  1.0000
  O   O2        1.0  0.9728962839575811  0.5195841147756446  0.7404807369569066  1.0000
  O   O3        1.0  0.9740855685967565  0.7368786567256982  0.5445289244802467  1.0000
  O   O4        1.0  0.9717886178356109  0.3176240546722475  0.5589178264520601  1.0000
  O   O5        1.0  0.8491686726224464  0.7434554178358183  0.5463559476762908  1.0000
  O   O6        1.0  0.8479793974820664  0.5261626082416412  0.742307688530855  1.0000
  O   O7        1.0  0.8480610718782752  0.5414970265676833  0.36479150127055027  1.0000
  O   O8        1.0  0.8468717310748255  0.3242024875765312  0.5607433145616784  1.0000
