data_image0
_chemical_formula_structural       NC8NC6H8C7OH6C6NCH6Zn2C4O8
_chemical_formula_sum              "N3 C32 H20 O9 Zn2"
_cell_length_a       17.457602349358154
_cell_length_b       9.274078303013077
_cell_length_c       9.273390368590327
_cell_angle_alpha    86.34320467180204
_cell_angle_beta     92.8511133753594
_cell_angle_gamma    91.09880916489897

_space_group_name_H-M_alt    "P 1"
_space_group_IT_number       1

loop_
  _space_group_symop_operation_xyz
  'x, y, z'

loop_
  _atom_site_type_symbol
  _atom_site_label
  _atom_site_symmetry_multiplicity
  _atom_site_fract_x
  _atom_site_fract_y
  _atom_site_fract_z
  _atom_site_occupancy
  N   N1        1.0  0.7139307480765048  0.5966378123750786  0.4798120463890567  1.0000
  C   C1        1.0  0.6531297994655006  0.5455301926007452  0.4678990032811059  1.0000
  C   C2        1.0  0.5774908006062887  0.481958769675158  0.45308978395517663  1.0000
  C   C3        1.0  0.5187096564489951  0.5274257078101336  0.5363283625732811  1.0000
  C   C4        1.0  0.444495945090229  0.4662130519909396  0.5222071254382277  1.0000
  C   C5        1.0  0.3821097635130825  0.5142222529637466  0.610359571143742  1.0000
  C   C6        1.0  0.3074611287241901  0.534067428710284  0.548524409276288  1.0000
  C   C7        1.0  0.2486810674163639  0.5793314591809455  0.6318822718727668  1.0000
  C   C8        1.0  0.17259099272571718  0.5998231033855532  0.5675900589326296  1.0000
  N   N2        1.0  0.11142752740401253  0.6162913048697005  0.5158992691131485  1.0000
  C   C9        1.0  0.26405594081618977  0.6050262215470346  0.7776403599458009  1.0000
  C   C10       1.0  0.33791747884718126  0.5856174346432661  0.839906802660767  1.0000
  C   C11       1.0  0.39668478402880114  0.5405586789654712  0.7570574479430381  1.0000
  C   C12       1.0  0.43035630956120885  0.358764558329679  0.4232550746235577  1.0000
  C   C13       1.0  0.4891240021618882  0.313611701411475  0.3404612289163602  1.0000
  C   C14       1.0  0.5625521879204685  0.37495558706030985  0.35519313821368365  1.0000
  H   H1        1.0  0.530592459754979  0.6116855401080039  0.6104922464113904  1.0000
  H   H2        1.0  0.2952218754586075  0.5162465965381715  0.4352517751745741  1.0000
  H   H3        1.0  0.2190006003434599  0.6400030164755544  0.843026479508111  1.0000
  H   H4        1.0  0.3496337415346917  0.6051630608669449  0.9527696377479894  1.0000
  H   H5        1.0  0.4532530420699102  0.5244591630134396  0.8081848672410263  1.0000
  H   H6        1.0  0.3741451096085783  0.3083111160727017  0.4113036350172814  1.0000
  H   H7        1.0  0.47774850346756004  0.23057715846750182  0.2649706068476265  1.0000
  H   H8        1.0  0.6076127059320796  0.3390193439849962  0.29037179203714736  1.0000
  C   C15       1.0  0.9149690981994879  0.1830965885314768  0.49677107867289644  1.0000
  C   C16       1.0  0.9001571969456589  0.26444613942581263  0.3653149379087206  1.0000
  C   C17       1.0  0.8787176367734413  0.19695379425284365  0.23818035511808008  1.0000
  C   C18       1.0  0.8718861801672194  0.0460238386236822  0.24240354440606304  1.0000
  C   C19       1.0  0.8875615733725759  0.9636298820543548  0.3712556030356297  1.0000
  C   C20       1.0  0.9103965788370739  0.029821877024611036  0.49895337837035103  1.0000
  C   C21       1.0  0.8629351996740736  0.2856659350838025  0.10260520955454422  1.0000
  O   O1        1.0  0.8432388713304626  0.22818252231131345  0.9866934437898518  1.0000
  H   H9        1.0  0.9125597713554398  0.2633757101662417  0.851426077171523  1.0000
  H   H10       1.0  0.9035883555700374  0.3814483697786737  0.36251771213548256  1.0000
  H   H11       1.0  0.8551218999589256  0.9913324313438123  0.14572849947069044  1.0000
  H   H12       1.0  0.8835636809108066  0.8469868750832987  0.3701216271836254  1.0000
  H   H13       1.0  0.9121321223568617  0.7335499660318995  0.7374803404932266  1.0000
  H   H14       1.0  0.8682302414616141  0.40222623062942175  0.1015713877715032  1.0000
  C   C22       1.0  0.9127426603280028  0.6019651842713807  0.07460807673701342  1.0000
  C   C23       1.0  0.9832035228337908  0.6025836408397027  0.15459865187770536  1.0000
  C   C24       1.0  0.05236328410818694  0.6165434677441701  0.08549494255843082  1.0000
  C   C25       1.0  0.052818705738862715  0.6303623635131923  0.9339506097743939  1.0000
  C   C26       1.0  0.9828384755385244  0.6273356656060172  0.8531866091301419  1.0000
  C   C27       1.0  0.9126230212459612  0.6109533292976519  0.9211163320604442  1.0000
  N   N3        1.0  0.12326585896791188  0.6460462715749558  0.8595953869206858  1.0000
  C   C28       1.0  0.19899423110014272  0.649960480115193  0.9334591998865845  1.0000
  H   H15       1.0  0.7920545279118403  0.5267265632378872  0.34927881368584135  1.0000
  H   H16       1.0  0.10521655286157983  0.6178297226680816  0.15141022688577999  1.0000
  H   H17       1.0  0.734480047408505  0.49011014665547425  0.8091087352246542  1.0000
  H   H18       1.0  0.12072561967842212  0.6554780295473976  0.7465182446135068  1.0000
  H   H19       1.0  0.2034726081433731  0.7426902679603187  0.0036180079901750846  1.0000
  H   H20       1.0  0.2089065785217854  0.5473676048142839  0.9995969154690623  1.0000
  Zn  Zn1       1.0  0.8286397519220358  0.6023056078878248  0.490234351390747  1.0000
  Zn  Zn2       1.0  0.9967185714739365  0.6106118142110677  0.5054887339298627  1.0000
  C   C29       1.0  0.9126749247168296  0.6035108261343203  0.7610931938203204  1.0000
  C   C30       1.0  0.9126852242511488  0.6094085072471398  0.23463020423188086  1.0000
  C   C31       1.0  0.9112577352374946  0.8697116104758024  0.4927969323623704  1.0000
  C   C32       1.0  0.9141023657200403  0.3432059887521288  0.5029265328633687  1.0000
  O   O2        1.0  0.9764510182148556  0.6150524267484367  0.29412403450366686  1.0000
  O   O3        1.0  0.976477071645923  0.6041700330173381  0.7131766692252064  1.0000
  O   O4        1.0  0.9753318131539114  0.8191305063617487  0.4965254656818219  1.0000
  O   O5        1.0  0.9775962193125328  0.4000919597355487  0.5107751247991519  1.0000
  O   O6        1.0  0.8477620467263801  0.812825459530332  0.4849479553083091  1.0000
  O   O7        1.0  0.8489072958717749  0.5978667175064385  0.701599086465005  1.0000
  O   O8        1.0  0.8488812430079791  0.6087490426005822  0.2825447187314647  1.0000
  O   O9        1.0  0.8500264441429309  0.39378856642316  0.4991959170616993  1.0000
