data_image0
_chemical_formula_structural       NC5NC4H6C6NCH9C7OH5Zn2C4O8
_chemical_formula_sum              "N3 C27 H20 O9 Zn2"
_cell_length_a       13.854160002989762
_cell_length_b       9.273386996610926
_cell_length_c       9.274074313596557
_cell_angle_alpha    86.02935137670892
_cell_angle_beta     90.23361037791132
_cell_angle_gamma    89.39858485477477

_space_group_name_H-M_alt    "P 1"
_space_group_IT_number       1

loop_
  _space_group_symop_operation_xyz
  'x, y, z'

loop_
  _atom_site_type_symbol
  _atom_site_label
  _atom_site_symmetry_multiplicity
  _atom_site_fract_x
  _atom_site_fract_y
  _atom_site_fract_z
  _atom_site_occupancy
  N   N1        1.0  0.893579516648894  0.5632413482394362  0.4076357282674205  1.0000
  C   C1        1.0  0.8209124773244705  0.5878816770475693  0.3485605521602051  1.0000
  C   C2        1.0  0.7305136513508683  0.6185349079369684  0.2750687715759925  1.0000
  C   C3        1.0  0.643340551718616  0.5897463113078092  0.34682508617378827  1.0000
  C   C4        1.0  0.5553712388172101  0.618534922043469  0.27506874838482465  1.0000
  C   C5        1.0  0.4658043372398188  0.5878815305814533  0.34856064400443265  1.0000
  N   N2        1.0  0.39380594649738426  0.5632412847218954  0.4076357282850318  1.0000
  C   C6        1.0  0.5546034459577179  0.6767188941330601  0.1315740911070702  1.0000
  C   C7        1.0  0.6417284168229961  0.7076572692287222  0.05971082900565317  1.0000
  C   C8        1.0  0.6408957218896564  0.7659697152671026  0.9047292303605022  1.0000
  C   C9        1.0  0.7296805347625834  0.6767188919214487  0.1315740008502948  1.0000
  H   H1        1.0  0.6439608962180925  0.5446017200777249  0.45788749870092094  1.0000
  H   H2        1.0  0.4864292450693854  0.69796606738875  0.07590062443601187  1.0000
  H   H3        1.0  0.7052073779334319  0.8339181384839028  0.8808357636143826  1.0000
  H   H4        1.0  0.5754989004346727  0.8339181410000024  0.8808358286822391  1.0000
  H   H5        1.0  0.6413420616146704  0.6747150502921136  0.833338969821757  1.0000
  H   H6        1.0  0.797252203133116  0.6979661790690583  0.0759005388432239  1.0000
  C   C10       1.0  0.14666741299059716  0.1395942762157842  0.4083439787144423  1.0000
  C   C11       1.0  0.16326860697359422  0.2217905278511476  0.27802908869933773  1.0000
  C   C12       1.0  0.17078161271366246  0.1560082131477087  0.14770614250835057  1.0000
  C   C13       1.0  0.16180345372270813  0.005674758905998004  0.14436603133703008  1.0000
  C   C14       1.0  0.1469020422358307  0.922511148479847  0.2742282367426918  1.0000
  C   C15       1.0  0.14072738446972233  0.9868773504765845  0.4069400241103396  1.0000
  N   N3        1.0  0.16849333511453968  0.9348296046862256  0.01135243894218796  1.0000
  C   C16       1.0  0.18419849541889086  0.011345343219099746  0.8707077779924476  1.0000
  H   H7        1.0  0.16701709225309994  0.40406197786272036  0.6449646336567225  1.0000
  H   H8        1.0  0.16818703770290946  0.3384190613163688  0.2762608741221253  1.0000
  H   H9        1.0  0.18269348501600177  0.22364922226785144  0.04980713605259712  1.0000
  H   H10       1.0  0.14234005577249073  0.8060877583941377  0.2719545870157456  1.0000
  H   H11       1.0  0.1772008322167404  0.8589616313694518  0.7579758370627576  1.0000
  H   H12       1.0  0.161677266191792  0.8224918238712733  0.014341107380276158  1.0000
  H   H13       1.0  0.12429468757994776  0.08967307354061481  0.845666344244646  1.0000
  H   H14       1.0  0.25406241179302813  0.06889936453478017  0.8709403532991052  1.0000
  H   H15       1.0  0.18640461830646085  0.9330710971651033  0.78538406275166  1.0000
  C   C17       1.0  0.14257082814148303  0.5590807721354376  0.9844076949351539  1.0000
  C   C18       1.0  0.05811294527622479  0.6016722087342448  0.054225965383908115  1.0000
  C   C19       1.0  0.9783268714508617  0.655857704740215  0.9749539396983712  1.0000
  C   C20       1.0  0.9811311184103698  0.6688930246687863  0.8236523381652914  1.0000
  C   C21       1.0  0.06429796149573463  0.6245598693774419  0.7526970677836133  1.0000
  C   C22       1.0  0.14482395668304626  0.5673908278011259  0.8308763309559142  1.0000
  C   C23       1.0  0.8976956529147283  0.7270458088960966  0.738165262736052  1.0000
  O   O1        1.0  0.821775863560378  0.7672417860530185  0.7988049275488454  1.0000
  H   H16       1.0  0.37866954179627077  0.5223253432250196  0.09125718861513121  1.0000
  H   H17       1.0  0.9147637691354074  0.6888833518372464  0.032300862722362426  1.0000
  H   H18       1.0  0.06536741165295878  0.6315511820627702  0.6355288199832723  1.0000
  H   H19       1.0  0.3035635107288791  0.5374062484604534  0.5534602042154169  1.0000
  H   H20       1.0  0.9010617520269023  0.735802566704469  0.6212812353203487  1.0000
  Zn  Zn1       1.0  0.037934113627055205  0.5632375492818946  0.40764406656725605  1.0000
  Zn  Zn2       1.0  0.2494514649653434  0.5632333944148848  0.4076392461664169  1.0000
  C   C24       1.0  0.14443623058544253  0.5600728576247278  0.6708851148428057  1.0000
  C   C25       1.0  0.142951645385077  0.5663999076907473  0.14439833628123977  1.0000
  C   C26       1.0  0.14182993648814413  0.8266664438827315  0.40146209382561104  1.0000
  C   C27       1.0  0.14555787966222075  0.29980458891236295  0.4138214370116007  1.0000
  O   O2        1.0  0.2233492277557087  0.5688484058540286  0.1980908381617006  1.0000
  O   O3        1.0  0.22457543022778556  0.5576201136068797  0.617188541307482  1.0000
  O   O4        1.0  0.22246973669782513  0.7728978207800582  0.3996275431625316  1.0000
  O   O5        1.0  0.2254548487491254  0.3535707079414884  0.41565172822706886  1.0000
  O   O6        1.0  0.06193065766275094  0.7729002357582057  0.3996315845006657  1.0000
  O   O7        1.0  0.06403633883234394  0.5576242611083211  0.617192502926512  1.0000
  O   O8        1.0  0.06281013216446339  0.5688524860708668  0.19809306705811092  1.0000
  O   O9        1.0  0.06491575351390155  0.35357477890060157  0.4156540651971232  1.0000
