data_image0
_chemical_formula_structural       NC9NC3NH7C12H10C6NO2H3Zn2C4O8
_chemical_formula_sum              "N4 C34 H20 O10 Zn2"
_cell_length_a       16.053384444249904
_cell_length_b       10.299137764757564
_cell_length_c       9.273395971720358
_cell_angle_alpha    84.94328469474783
_cell_angle_beta     89.67931749283619
_cell_angle_gamma    89.19348198390439

_space_group_name_H-M_alt    "P 1"
_space_group_IT_number       1

loop_
  _space_group_symop_operation_xyz
  'x, y, z'

loop_
  _atom_site_type_symbol
  _atom_site_label
  _atom_site_symmetry_multiplicity
  _atom_site_fract_x
  _atom_site_fract_y
  _atom_site_fract_z
  _atom_site_occupancy
  N   N1        1.0  0.7865354407778289  0.4190322233902928  0.40376188435664995  1.0000
  C   C1        1.0  0.7358730411291055  0.3989989689699227  0.3205696731172041  1.0000
  C   C2        1.0  0.6729134817990814  0.37410722454223105  0.21722466872078483  1.0000
  C   C3        1.0  0.6866976084956062  0.3633917461155556  0.07190694341332193  1.0000
  C   C4        1.0  0.6101358931973124  0.33860754970329476  0.013832000312055559  1.0000
  C   C5        1.0  0.5529083173968726  0.3355827051728981  0.12685060895764932  1.0000
  C   C6        1.0  0.4622642401808643  0.3118663653026492  0.11546971363591951  1.0000
  C   C7        1.0  0.4062554677155073  0.3536031856937243  0.2198394844833698  1.0000
  C   C8        1.0  0.3207149814852916  0.3311114531697425  0.2089386488698437  1.0000
  C   C9        1.0  0.2639234266528671  0.3745685315320937  0.31594433386183973  1.0000
  N   N2        1.0  0.21827969776263048  0.4095019100219183  0.40196014680397063  1.0000
  C   C10       1.0  0.2904571969299338  0.26677076474043737  0.09368332673690682  1.0000
  C   C11       1.0  0.3454571679497255  0.22515136040607842  0.989548798969707  1.0000
  C   C12       1.0  0.4307921680113995  0.247481489624044  8.859868344094675e-06  1.0000
  N   N3        1.0  0.591957138491251  0.357393438180194  0.2508456026930943  1.0000
  H   H1        1.0  0.7455007308468232  0.3725656601484  0.014527386005647175  1.0000
  H   H2        1.0  0.5980037716691171  0.32588806414203125  0.9013712914626185  1.0000
  H   H3        1.0  0.4284806644967319  0.4052338217852056  0.30852237157504714  1.0000
  H   H4        1.0  0.2244421441087061  0.24889064039537856  0.08431684156986496  1.0000
  H   H5        1.0  0.3219422774551965  0.17516504743775288  0.9006053149103818  1.0000
  H   H6        1.0  0.4719989621842652  0.21279831000554655  0.9186008791947559  1.0000
  H   H7        1.0  0.565673469721167  0.3587941234715448  0.35395544735794204  1.0000
  C   C13       1.0  0.0023311872592750565  0.032867390573301014  0.40301870161835085  1.0000
  C   C14       1.0  0.002464550935753262  0.04414780640345484  0.25100810549184094  1.0000
  C   C15       1.0  0.0026146934280182345  0.9327353377035517  0.1737766537296952  1.0000
  C   C16       1.0  0.0026296196186081865  0.8088927080448478  0.25061043164351116  1.0000
  C   C17       1.0  0.002491881125195051  0.7956564912810491  0.4027157803737642  1.0000
  C   C18       1.0  0.0023449095763183863  0.9081701073006376  0.4779834852333611  1.0000
  C   C19       1.0  0.0027547924134518845  0.9457138384933549  0.012964465590005641  1.0000
  C   C20       1.0  0.05308579253887703  0.8630189199881152  0.9350922577623947  1.0000
  C   C21       1.0  0.05311412822408859  0.875488161985242  0.7837213883798966  1.0000
  C   C22       1.0  0.0030223708478538344  0.9702908922500032  0.7085106241622686  1.0000
  C   C23       1.0  0.9527977831851541  0.052886669286416055  0.7845180735892394  1.0000
  C   C24       1.0  0.9525599752524068  0.0409169388112125  0.9358907926482805  1.0000
  H   H8        1.0  0.002237370982667076  0.35600507222384914  0.4614922064015574  1.0000
  H   H9        1.0  0.0036048241094701586  0.13980155284301166  0.19230952448857352  1.0000
  H   H10       1.0  0.0015972829357244775  0.7227014306829735  0.1916469312885638  1.0000
  H   H11       1.0  0.002239762447237219  0.8987537845610345  0.5952327556935597  1.0000
  H   H12       1.0  0.0017021798938368076  0.5633939534695065  0.6898088581589759  1.0000
  H   H13       1.0  0.09317633002891679  0.7899402302822064  0.9911960534069162  1.0000
  H   H14       1.0  0.0921842415758114  0.8117707912852468  0.7246950946390074  1.0000
  H   H15       1.0  0.003125444020950049  0.9797496971164752  0.5913388704365259  1.0000
  H   H16       1.0  0.9138309870423497  0.12608395992460442  0.7261100540441574  1.0000
  H   H17       1.0  0.9123705508894894  0.10488811934362419  0.992623592451468  1.0000
  C   C25       1.0  0.002886460454449399  0.41824143347027576  0.9789269559105788  1.0000
  C   C26       1.0  0.9286413739064829  0.4495250383246194  0.04981174713108393  1.0000
  C   C27       1.0  0.8541605128413964  0.4685329892249155  0.9736862661988752  1.0000
  C   C28       1.0  0.8518117013176142  0.4566527422059914  0.8244061587487939  1.0000
  C   C29       1.0  0.926012737919945  0.4275955762060084  0.7520829915080803  1.0000
  C   C30       1.0  0.0019365930492034576  0.4102824468399677  0.8268075312603305  1.0000
  N   N4        1.0  0.7745856495536323  0.4752884591284575  0.7465842210800084  1.0000
  O   O1        1.0  0.7021936898107468  0.5047988391449081  0.8176498591891375  1.0000
  O   O2        1.0  0.7719302760106292  0.46464354874365316  0.6136040019731976  1.0000
  H   H18       1.0  0.18514877516830608  0.26871562403147453  0.09464595258521347  1.0000
  H   H19       1.0  0.7980987280213968  0.49130680638669344  0.032294671280464815  1.0000
  H   H20       1.0  0.1262080698674094  0.31337595596985235  0.5548769643618616  1.0000
  Zn  Zn1       1.0  0.9111274948240815  0.4162784388269238  0.4032502724411533  1.0000
  Zn  Zn2       1.0  0.09368760480931404  0.41224500257762475  0.40248356201468405  1.0000
  C   C31       1.0  0.0021132064635163133  0.4066128154222419  0.6665419912663002  1.0000
  C   C32       1.0  0.002703886907113647  0.42191221935840995  0.13919197586150656  1.0000
  C   C33       1.0  0.002463669055246192  0.6515272120180333  0.3970201781866898  1.0000
  C   C34       1.0  0.002353361605410105  0.17699626298857044  0.4087138667900434  1.0000
  O   O3        1.0  0.07192322268245421  0.42160783440289085  0.19268742023528151  1.0000
  O   O4        1.0  0.07145277027269858  0.40385493969171266  0.6124642162307965  1.0000
  O   O5        1.0  0.07173483763031663  0.6016264188513452  0.39482344864350827  1.0000
  O   O6        1.0  0.07164109315265632  0.22383636692664519  0.4103280798361211  1.0000
  O   O7        1.0  0.9331739441819424  0.6046870758558025  0.3954057548737626  1.0000
  O   O8        1.0  0.9328918772355008  0.4069171578481161  0.6130464448661712  1.0000
  O   O9        1.0  0.933362331635557  0.42467002359130585  0.19326791319203496  1.0000
  O   O10       1.0  0.9330802019791422  0.2268985458095718  0.41090868103336997  1.0000
