data_image0
_chemical_formula_structural       NC8NH4C6ClH5C6OCH7Zn2C4O8
_chemical_formula_sum              "N2 C25 H16 Cl1 O9 Zn2"
_cell_length_a       13.859017124695912
_cell_length_b       10.30297070629231
_cell_length_c       9.273891588657154
_cell_angle_alpha    86.0762958320409
_cell_angle_beta     89.68011635111247
_cell_angle_gamma    89.99834178165982

_space_group_name_H-M_alt    "P 1"
_space_group_IT_number       1

loop_
  _space_group_symop_operation_xyz
  'x, y, z'

loop_
  _atom_site_type_symbol
  _atom_site_label
  _atom_site_symmetry_multiplicity
  _atom_site_fract_x
  _atom_site_fract_y
  _atom_site_fract_z
  _atom_site_occupancy
  N   N1        1.0  0.9144988542555889  0.40791890000922004  0.41009742597123444  1.0000
  C   C1        1.0  0.8423546234460126  0.38688399301417586  0.3539330172818764  1.0000
  C   C2        1.0  0.7526114692022685  0.3607196387554985  0.28407171116591656  1.0000
  C   C3        1.0  0.6647412908902287  0.38622722350034416  0.35217769502966023  1.0000
  C   C4        1.0  0.5773811514828152  0.36072073758443746  0.2840711318703266  1.0000
  C   C5        1.0  0.5780736775791059  0.3096997454952126  0.14783767922618263  1.0000
  C   C6        1.0  0.6657603141302886  0.2842902010204067  0.0799938535217175  1.0000
  C   C7        1.0  0.7529390320973836  0.309697639992651  0.14783885757032578  1.0000
  C   C8        1.0  0.48711478657031704  0.3868848230886033  0.3539325192669376  1.0000
  N   N2        1.0  0.414549980644592  0.40791918868077537  0.41009720996179166  1.0000
  H   H1        1.0  0.6643464621313485  0.42571944797254085  0.45762565125958576  1.0000
  H   H2        1.0  0.5109789581342634  0.2896242970377425  0.09423081443963821  1.0000
  H   H3        1.0  0.6661544093089852  0.244878630967053  0.9747594472210648  1.0000
  H   H4        1.0  0.8204351667061575  0.2896203084939688  0.09423299200559199  1.0000
  C   C9        1.0  0.16452899430373047  0.026671658970215836  0.41010354516965  1.0000
  C   C10       1.0  0.26405900439080865  0.02375422597569621  0.43786640644235897  1.0000
  C   C11       1.0  0.3134431392744033  0.9053498288627583  0.4516414964484616  1.0000
  C   C12       1.0  0.264059003873649  0.7886462567550155  0.43786633865346686  1.0000
  C   C13       1.0  0.16452900429294284  0.7891566014533039  0.4101036276815053  1.0000
  C   C14       1.0  0.11524916322551727  0.908762766064583  0.396357496813035  1.0000
  Cl  Cl1       1.0  0.4377798358676741  0.9032087760908374  0.4863238254561307  1.0000
  H   H5        1.0  0.1270377857232481  0.35507371665013704  0.3996449545967382  1.0000
  H   H6        1.0  0.3036445087281414  0.11311915547532438  0.4489082473403511  1.0000
  H   H7        1.0  0.3036444709571524  0.6979179618057949  0.44890814378162275  1.0000
  H   H8        1.0  0.038488599168661874  0.9100844514251599  0.3749458992486008  1.0000
  H   H9        1.0  0.12703778000148147  0.4620457521850235  0.39964522673427183  1.0000
  C   C15       1.0  0.16610970764557376  0.4044757253149958  0.9868282277599691  1.0000
  C   C16       1.0  0.24512789297501184  0.4593118453452576  0.05540190079402652  1.0000
  C   C17       1.0  0.3186729557187129  0.5238424425295529  0.9755921302929503  1.0000
  C   C18       1.0  0.3134628220142417  0.5338622352930111  0.8241515198219154  1.0000
  C   C19       1.0  0.23647177917699394  0.47824001299036706  0.7542356481130108  1.0000
  C   C20       1.0  0.16294829001194855  0.4113524511010489  0.8333788698916114  1.0000
  O   O1        1.0  0.3950560639482766  0.5770800900953865  0.05079871198262919  1.0000
  C   C21       1.0  0.47451245688283716  0.6454057164390055  0.9837223140342668  1.0000
  H   H10       1.0  0.9366025639273473  0.3247364435952278  0.09784554899893783  1.0000
  H   H11       1.0  0.36904563160030457  0.5834379447933045  0.7592293652756767  1.0000
  H   H12       1.0  0.2356932264566034  0.4849311310923084  0.6371544725098595  1.0000
  H   H13       1.0  0.009897482155361901  0.3525207274511351  0.557936276283626  1.0000
  H   H14       1.0  0.44861185711655516  0.7332609457937578  0.9193267488821079  1.0000
  H   H15       1.0  0.5147444116635069  0.5809726411354386  0.913309628880215  1.0000
  H   H16       1.0  0.5239043814435176  0.6764378343972866  0.06856584189507853  1.0000
  Zn  Zn1       1.0  0.0588027795401902  0.40791558473850364  0.4101056918250585  1.0000
  Zn  Zn2       1.0  0.2702460035748937  0.40791200943107864  0.4101007662361378  1.0000
  C   C22       1.0  0.16354372894776012  0.40488061047821855  0.6733626899103509  1.0000
  C   C23       1.0  0.1655073625924981  0.41094862289920475  0.1468439095701235  1.0000
  C   C24       1.0  0.1645455026969651  0.6449840282820631  0.4043597285296676  1.0000
  C   C25       1.0  0.16450551640545652  0.1708436459152305  0.415846947799287  1.0000
  O   O2        1.0  0.24554681166551484  0.41311396571179015  0.20054476491136453  1.0000
  O   O3        1.0  0.24398479600339185  0.40271157130901813  0.6196576812352432  1.0000
  O   O4        1.0  0.244792653682804  0.5965981299009768  0.4024358867050122  1.0000
  O   O5        1.0  0.24473888223845242  0.2192274155303935  0.4177664513686721  1.0000
  O   O6        1.0  0.08430982872146475  0.596600178641761  0.40244000668662405  1.0000
  O   O7        1.0  0.08350197132472204  0.40271517923250366  0.619661724362474  1.0000
  O   O8        1.0  0.08506399352271132  0.41311751431628047  0.20054707506464253  1.0000
  O   O9        1.0  0.08425606368813243  0.21923095572689366  0.41776886958897297  1.0000
