data_image0
_chemical_formula_structural       NC10NC2NCH9C7ONCOCH9C7OIH5Zn2C4O8
_chemical_formula_sum              "N4 C33 H23 O11 I1 Zn2"
_cell_length_a       19.276633427626003
_cell_length_b       10.298653850160019
_cell_length_c       10.297413674417342
_cell_angle_alpha    85.57108589449876
_cell_angle_beta     89.99837342195602
_cell_angle_gamma    90.10907691816429

_space_group_name_H-M_alt    "P 1"
_space_group_IT_number       1

loop_
  _space_group_symop_operation_xyz
  'x, y, z'

loop_
  _atom_site_type_symbol
  _atom_site_label
  _atom_site_symmetry_multiplicity
  _atom_site_fract_x
  _atom_site_fract_y
  _atom_site_fract_z
  _atom_site_occupancy
  N   N1        1.0  0.6533260186755037  0.4234877204389797  0.5671425860040435  1.0000
  C   C1        1.0  0.5933084712172889  0.420898397465419  0.5685141191319041  1.0000
  C   C2        1.0  0.518591596415693  0.4176108006092414  0.570218180740584  1.0000
  C   C3        1.0  0.4832048778732803  0.5285009497928819  0.5768463451419177  1.0000
  C   C4        1.0  0.4070354356199946  0.5298926440762715  0.5793678286872241  1.0000
  C   C5        1.0  0.37057923780491114  0.4199940066155641  0.5713174042266127  1.0000
  C   C6        1.0  0.2935549394319109  0.42195843241185216  0.5705541781877181  1.0000
  C   C7        1.0  0.25653503436826947  0.3449289800373024  0.48727313555344137  1.0000
  C   C8        1.0  0.1840018648915517  0.345745116873839  0.4863093903104871  1.0000
  C   C9        1.0  0.1475442382968381  0.4232727899742843  0.5687338883927402  1.0000
  C   C10       1.0  0.07287181030872021  0.4239705865737157  0.5676980890164007  1.0000
  N   N2        1.0  0.012840486584852996  0.42453150992853717  0.5668653009420133  1.0000
  C   C11       1.0  0.1838967762006982  0.500056044065738  0.6522253010225083  1.0000
  C   C12       1.0  0.2564266345625567  0.49947297692719883  0.6532785176217197  1.0000
  N   N3        1.0  0.4068121065511302  0.29933134169176134  0.5605179809467247  1.0000
  C   C13       1.0  0.48245941144897564  0.28757807563339255  0.5697238219873424  1.0000
  H   H1        1.0  0.5105048439153909  0.6203743822639665  0.579633727895225  1.0000
  H   H2        1.0  0.38114463885924443  0.6226044487145337  0.5843911973694165  1.0000
  H   H3        1.0  0.2836485888016241  0.285452616811952  0.42150132791428047  1.0000
  H   H4        1.0  0.1563822825628229  0.2861412589253951  0.42107593481006017  1.0000
  H   H5        1.0  0.15619679454512547  0.5600791857724883  0.7167883432442996  1.0000
  H   H6        1.0  0.28343826470450867  0.5582585300392784  0.7199755074057248  1.0000
  H   H7        1.0  0.37843701875923486  0.21317506903648817  0.5569437327496394  1.0000
  H   H8        1.0  0.49576370425080246  0.22800023711568437  0.6608187914933477  1.0000
  H   H9        1.0  0.5015263288729475  0.23607097686204212  0.4858323861971652  1.0000
  C   C14       1.0  0.8330022217049179  0.04261150222311261  0.5668878528149515  1.0000
  C   C15       1.0  0.8191982766100547  0.051808970492695165  0.43247953603173195  1.0000
  C   C16       1.0  0.8117861463886038  0.9392415412603636  0.3647466857111996  1.0000
  C   C17       1.0  0.819398613004202  0.8165176517114867  0.43282889583300627  1.0000
  C   C18       1.0  0.8331709497304021  0.8053976901927993  0.5671313218372229  1.0000
  C   C19       1.0  0.8397429092214272  0.9190326092994593  0.6334246209274141  1.0000
  C   C20       1.0  0.7974712602405203  0.948735509471449  0.22276054854869032  1.0000
  O   O1        1.0  0.8145871291171698  0.8557678143813656  0.15658961463418652  1.0000
  N   N4        1.0  0.7629769478053054  0.060747174289448536  0.16071232627869603  1.0000
  C   C21       1.0  0.759860218889721  0.08865863560238929  0.022034475341039302  1.0000
  O   O2        1.0  0.7938644538679674  0.02166644050783973  0.9468339379428511  1.0000
  C   C22       1.0  0.7182176846220423  0.2017284796814154  0.9660036193622114  1.0000
  H   H10       1.0  0.8601413113492159  0.23254330157065128  0.8202246348693413  1.0000
  H   H11       1.0  0.8155174575499679  0.146921877428148  0.3804094194481402  1.0000
  H   H12       1.0  0.8139461406942528  0.7294029954848393  0.3810698798811565  1.0000
  H   H13       1.0  0.8503624122875257  0.9111883070013224  0.7370132869044923  1.0000
  H   H14       1.0  0.8390449035004519  0.47365051220643223  0.618646461281213  1.0000
  H   H15       1.0  0.736809480349769  0.12364531311712157  0.21864821400698586  1.0000
  H   H16       1.0  0.6665189900352694  0.20154166458185638  0.01351426187955384  1.0000
  H   H17       1.0  0.7456525458349297  0.2937320348415451  0.9829621217107216  1.0000
  H   H18       1.0  0.7108014377351569  0.1959935806234194  0.8596240925150247  1.0000
  C   C23       1.0  0.8330323876570981  0.424056857071448  0.18555720418841126  1.0000
  C   C24       1.0  0.7682186518625884  0.4864272972867809  0.17955608350960905  1.0000
  C   C25       1.0  0.7353007824692864  0.5181041635154982  0.059392902820171616  1.0000
  C   C26       1.0  0.7683436083991426  0.48630691182032787  0.9443681152213959  1.0000
  C   C27       1.0  0.8331407917368953  0.42395235303945444  0.9484619920890657  1.0000
  C   C28       1.0  0.8650882549984229  0.3932093018454687  0.06951751553616337  1.0000
  C   C29       1.0  0.6667624195720911  0.5840586946104398  0.05558570888502157  1.0000
  O   O3        1.0  0.6380774181917567  0.6116617017172159  0.15988063836917088  1.0000
  I   I1        1.0  0.6126414314816834  0.6361404803367214  0.8801934974940163  1.0000
  H   H19       1.0  0.9554059830087045  0.306295374569971  0.4041018985569547  1.0000
  H   H20       1.0  0.7433116101747113  0.5103954825420056  0.2688949583776492  1.0000
  H   H21       1.0  0.7439342369289906  0.5097958596058831  0.8510878171458396  1.0000
  H   H22       1.0  0.9150494976956138  0.3451314933864913  0.07333648723242625  1.0000
  H   H23       1.0  0.8582258413716363  0.39981330161077056  0.6224908106258238  1.0000
  Zn  Zn1       1.0  0.7570741376017774  0.42378545050071814  0.5670700773328372  1.0000
  Zn  Zn2       1.0  0.9090923854747156  0.4242231267552963  0.5669484797123387  1.0000
  C   C30       1.0  0.8331175966455125  0.41879803637814134  0.804254962951008  1.0000
  C   C31       1.0  0.833050586846111  0.4292121843848047  0.329763720783677  1.0000
  C   C32       1.0  0.8331347455602013  0.6612155855383295  0.5619089790335112  1.0000
  C   C33       1.0  0.8330333857229064  0.18679307464379713  0.5721097734984384  1.0000
  O   O4        1.0  0.8907468262249066  0.43110278900830384  0.3781145976242142  1.0000
  O   O5        1.0  0.8907996896696089  0.417238638158466  0.7558114220895422  1.0000
  O   O6        1.0  0.8908127601364113  0.6129938724696098  0.5601153264911949  1.0000
  O   O7        1.0  0.8907337038727916  0.23534756385208364  0.5738105958710431  1.0000
  O   O8        1.0  0.7754327673273333  0.6126610132559884  0.5602079612087958  1.0000
  O   O9        1.0  0.7754196971926793  0.4169073393777218  0.7559039880445413  1.0000
  O   O10       1.0  0.7753668335622187  0.43077144518217114  0.3782056018223616  1.0000
  O   O11       1.0  0.7753537112190484  0.2350162107230851  0.5739016974553726  1.0000
