data_image0
_chemical_formula_structural       NC5NC4H6C6BrH5C9H8Zn2C4O8
_chemical_formula_sum              "N2 C28 H19 Br1 Zn2 O8"
_cell_length_a       13.854160002989762
_cell_length_b       9.276564384272257
_cell_length_c       9.275155815604963
_cell_angle_alpha    86.0004437210585
_cell_angle_beta     90.35750573089034
_cell_angle_gamma    90.58592978602583

_space_group_name_H-M_alt    "P 1"
_space_group_IT_number       1

loop_
  _space_group_symop_operation_xyz
  'x, y, z'

loop_
  _atom_site_type_symbol
  _atom_site_label
  _atom_site_symmetry_multiplicity
  _atom_site_fract_x
  _atom_site_fract_y
  _atom_site_fract_z
  _atom_site_occupancy
  N   N1        1.0  0.9129752170519941  0.5645260168550468  0.408924856707205  1.0000
  C   C1        1.0  0.8405649854377286  0.5892273976163609  0.3498707634931085  1.0000
  C   C2        1.0  0.7504856341821855  0.6199565795856918  0.27640521060938883  1.0000
  C   C3        1.0  0.66301643099285  0.5910933673894625  0.34813683149713737  1.0000
  C   C4        1.0  0.5753432218108513  0.6199565937143797  0.27640518743005216  1.0000
  C   C5        1.0  0.485456843453253  0.5892272510987532  0.34987085521784067  1.0000
  N   N2        1.0  0.41320164601927706  0.5645259533629876  0.40892485667388995  1.0000
  C   C6        1.0  0.5751760802954811  0.6782895317299079  0.1329604036649632  1.0000
  C   C7        1.0  0.6626268264459869  0.7093017876808008  0.06112356130116071  1.0000
  C   C8        1.0  0.6623800279433163  0.7677769430814108  0.9061921972145095  1.0000
  C   C9        1.0  0.7502531689397236  0.6782895296275764  0.1329603134084425  1.0000
  H   H1        1.0  0.6631703389676695  0.5458335237222918  0.45916055362817865  1.0000
  H   H2        1.0  0.5072165083178857  0.6995950340932336  0.07730522294599074  1.0000
  H   H3        1.0  0.727599991412375  0.8357267790123175  0.8823537461248137  1.0000
  H   H4        1.0  0.5978915140421992  0.8357267814492639  0.8823538111932258  1.0000
  H   H5        1.0  0.6614575364237424  0.6766446521250667  0.834730375230751  1.0000
  H   H6        1.0  0.818039467807827  0.699595145831493  0.07730513744466738  1.0000
  C   C10       1.0  0.16018651854749288  0.141048190997664  0.40929342427388793  1.0000
  C   C11       1.0  0.14725883523236405  0.2234129831668115  0.2775681156329328  1.0000
  C   C12       1.0  0.14331930912411672  0.15730021325452848  0.14707318772573807  1.0000
  C   C13       1.0  0.1522755202439931  0.007882307671873473  0.14582573897052598  1.0000
  C   C14       1.0  0.16349433568611116  0.9238070311511568  0.2755591384208243  1.0000
  C   C15       1.0  0.1659995683680597  0.9879927513774286  0.4085687494862227  1.0000
  Br  Br1       1.0  0.14759351211305538  0.9179823449426908  0.9667638977761754  1.0000
  H   H7        1.0  0.1328751677604274  0.4056186276680523  0.6436048873309891  1.0000
  H   H8        1.0  0.14248504019033192  0.340048126007954  0.27510075246815346  1.0000
  H   H9        1.0  0.13422013282257272  0.22265582072156495  0.04668236674558556  1.0000
  H   H10       1.0  0.16794715510557134  0.8075402862648842  0.27245184903216924  1.0000
  H   H11       1.0  0.22019733221204763  0.6919933453574832  0.6330377655082933  1.0000
  C   C16       1.0  0.16129949898934148  0.5608753787396078  0.9857029948314168  1.0000
  C   C17       1.0  0.0862727046015408  0.6311426465403449  0.053457740613494634  1.0000
  C   C18       1.0  0.01777683032192522  0.7109940077305286  0.9721046466306592  1.0000
  C   C19       1.0  0.023038806983329822  0.722250201186903  0.8215132189401757  1.0000
  C   C20       1.0  0.09611790793770544  0.6512081316127993  0.7520507711348885  1.0000
  C   C21       1.0  0.164886563732892  0.5681655479653429  0.8321591832926739  1.0000
  C   C22       1.0  0.9526149536682644  0.8054706656478277  0.7378446238790577  1.0000
  C   C23       1.0  0.8936476881064616  0.8751564397764932  0.66775695189127  1.0000
  C   C24       1.0  0.82210151987013  0.9597083441614922  0.5827059358337401  1.0000
  H   H12       1.0  0.3845400127246191  0.44452618447588965  0.09876040583119639  1.0000
  H   H13       1.0  0.08190879101712696  0.6271451782806481  0.1702526985615691  1.0000
  H   H14       1.0  0.961188992802137  0.765196030919948  0.026871298268956734  1.0000
  H   H15       1.0  0.09794786602557476  0.6579892368775311  0.6348986735835433  1.0000
  H   H16       1.0  0.3138010110753755  0.4846536515822031  0.5586482583971334  1.0000
  H   H17       1.0  0.8417441902379595  0.9638517016074079  0.4667034044037664  1.0000
  H   H18       1.0  0.7498606308940332  0.9083561115368392  0.5977761475028065  1.0000
  H   H19       1.0  0.8204229996421987  0.07106026188079809  0.6191153919468882  1.0000
  Zn  Zn1       1.0  0.057329773328354844  0.5645222094090889  0.4089331917738459  1.0000
  Zn  Zn2       1.0  0.26884706008289605  0.5645180619992489  0.40892836815004885  1.0000
  C   C25       1.0  0.16416696262335928  0.5610426541653051  0.6721657893252835  1.0000
  C   C26       1.0  0.16201219363810604  0.5679994379641413  0.1456959104463924  1.0000
  C   C27       1.0  0.16487146829629123  0.8278527599201244  0.4029625669497765  1.0000
  C   C28       1.0  0.16130760422305854  0.3011876002888283  0.41489921114419365  1.0000
  O   O1        1.0  0.24252104528370164  0.5703824720732149  0.19938916932273387  1.0000
  O   O2        1.0  0.2441948282225876  0.558655380796174  0.6184684554813502  1.0000
  O   O3        1.0  0.24476264973982623  0.7741079283956092  0.4010849474974436  1.0000
  O   O4        1.0  0.24195315120280114  0.3549299338604961  0.41677256923691114  1.0000
  O   O5        1.0  0.08422361002795938  0.7741103375507619  0.4010889906810482  1.0000
  O   O6        1.0  0.0836558000723466  0.5586595218747406  0.6184724203367242  1.0000
  O   O7        1.0  0.08198200950962153  0.5703865479750725  0.19939140144046563  1.0000
  O   O8        1.0  0.08141411581189213  0.35493400037855727  0.41677490941843615  1.0000
