data_image0
_chemical_formula_structural       NC6NC3H6C9H10C7ONH5Zn2C4O8
_chemical_formula_sum              "N3 C29 H21 O9 Zn2"
_cell_length_a       14.934028789175542
_cell_length_b       10.297183801781406
_cell_length_c       9.273042158839658
_cell_angle_alpha    86.13565984305119
_cell_angle_beta     90.06873718233021
_cell_angle_gamma    89.9601079490019

_space_group_name_H-M_alt    "P 1"
_space_group_IT_number       1

loop_
  _space_group_symop_operation_xyz
  'x, y, z'

loop_
  _atom_site_type_symbol
  _atom_site_label
  _atom_site_symmetry_multiplicity
  _atom_site_fract_x
  _atom_site_fract_y
  _atom_site_fract_z
  _atom_site_occupancy
  N   N1        1.0  0.8415385876432382  0.4058288259092769  0.40888478686154284  1.0000
  C   C1        1.0  0.7640518585708178  0.404833194009348  0.40820651840969724  1.0000
  C   C2        1.0  0.6676544593580959  0.40359005199947506  0.40735982655561953  1.0000
  C   C3        1.0  0.6199589316099677  0.500405767662226  0.47319375919714673  1.0000
  C   C4        1.0  0.5264465151920783  0.49940762079015943  0.4725148981895589  1.0000
  C   C5        1.0  0.47971711188931426  0.40164316789423826  0.4060359019289248  1.0000
  C   C6        1.0  0.383072798136213  0.4037408152250763  0.40746357033096037  1.0000
  N   N2        1.0  0.3055938329032928  0.4054055659588214  0.4085969335167905  1.0000
  C   C7        1.0  0.5274061409353  0.30348802272087694  0.3392906163724356  1.0000
  C   C8        1.0  0.479016300505981  0.19719775212559013  0.26701535937577225  1.0000
  C   C9        1.0  0.6215503306168543  0.30550468165325895  0.3406619807906486  1.0000
  H   H1        1.0  0.6550560255006058  0.576687576592132  0.5250653807162871  1.0000
  H   H2        1.0  0.490463256971  0.5751019478233512  0.5239868933293665  1.0000
  H   H3        1.0  0.4361758274902756  0.24055897169620888  0.17839478735750292  1.0000
  H   H4        1.0  0.43635420026514427  0.14134721031245379  0.34714991453924604  1.0000
  H   H5        1.0  0.5264274631767794  0.1283519436332925  0.22019433037455774  1.0000
  H   H6        1.0  0.6590273462798618  0.23081731751470794  0.28987500190777404  1.0000
  C   C10       1.0  0.07357385371100245  0.024143556589305563  0.4089450757948423  1.0000
  C   C11       1.0  0.07081006700848011  0.032567392960293665  0.25727362952505994  1.0000
  C   C12       1.0  0.06939389114093947  0.9202666834687734  0.17956791238711678  1.0000
  C   C13       1.0  0.07079898234040471  0.7973907341762573  0.25668577368909395  1.0000
  C   C14       1.0  0.07356719875410797  0.7870809328813868  0.4085490615952756  1.0000
  C   C15       1.0  0.07493571406151452  0.9009240865245907  0.4836873843402487  1.0000
  C   C16       1.0  0.06640441291950382  0.9388098523586205  0.015524533650071334  1.0000
  C   C17       1.0  0.013891503835979925  0.8393797726693534  0.9353211217510107  1.0000
  C   C18       1.0  0.11590018909916816  0.8395515089734205  0.930679051160876  1.0000
  H   H7        1.0  0.0746473318179608  0.348436028472913  0.46738894365533096  1.0000
  H   H8        1.0  0.06974328089322585  0.12724182372637954  0.19872008319582046  1.0000
  H   H9        1.0  0.06975964830818171  0.7092519952054959  0.19975824935977515  1.0000
  H   H10       1.0  0.07706758473420905  0.8936974774137184  0.6007050904074742  1.0000
  H   H11       1.0  0.0787836853606178  0.5603921821558194  0.6953760585889344  1.0000
  H   H12       1.0  0.06544436414408827  0.03902615998599579  0.9627981074229718  1.0000
  H   H13       1.0  0.9840779232698857  0.7563916361956053  0.00093349132552389  1.0000
  H   H14       1.0  0.9821979898732076  0.8793143609795719  0.833363047888013  1.0000
  H   H15       1.0  0.14805140770488612  0.7566684999322534  0.9934723645671899  1.0000
  H   H16       1.0  0.14382626112281244  0.8795840896547474  0.8260065614433221  1.0000
  C   C19       1.0  0.07314237239412869  0.40159785500183437  0.9854845278246854  1.0000
  C   C20       1.0  0.990898902936716  0.4099450191013725  0.05821206168626381  1.0000
  C   C21       1.0  0.9102723164769855  0.43085591975669923  0.9819951016724189  1.0000
  C   C22       1.0  0.9123856436071396  0.44185014590741034  0.8304893828949642  1.0000
  C   C23       1.0  0.9931632423277755  0.43159706178773904  0.7567543176714668  1.0000
  C   C24       1.0  0.07399869159083883  0.40962659698936915  0.8320096677033026  1.0000
  C   C25       1.0  0.8247061449514108  0.43990180762902004  0.06190354864975433  1.0000
  O   O1        1.0  0.8187244366057511  0.38963699271494884  0.18930397325433357  1.0000
  N   N3        1.0  0.7485392299556275  0.505874999969061  0.9983801304647857  1.0000
  H   H17       1.0  0.29039167879436145  0.4510191942205184  0.08528405835356212  1.0000
  H   H18       1.0  0.8514936154066906  0.45474970556825484  0.767897358102458  1.0000
  H   H19       1.0  0.22043180282521835  0.4368869685996075  0.5489828254458362  1.0000
  H   H20       1.0  0.7528510245741532  0.5619670979318324  0.9006825115705904  1.0000
  H   H21       1.0  0.6880174004402825  0.505783988670511  0.05466021262492914  1.0000
  Zn  Zn1       1.0  0.9754549292370965  0.40570328006494366  0.40881003746862254  1.0000
  Zn  Zn2       1.0  0.17167753338792902  0.40552058251469547  0.40868347251074844  1.0000
  C   C26       1.0  0.07383485323792602  0.4029339221975723  0.6720009537918477  1.0000
  C   C27       1.0  0.07329975226060553  0.40829157879848155  0.14549269542344634  1.0000
  C   C28       1.0  0.07355802509421339  0.6428150545741236  0.40288027566663853  1.0000
  C   C29       1.0  0.0735765135386357  0.16840888648189226  0.41461345124644633  1.0000
  O   O2        1.0  0.14781802608357356  0.41046305358654595  0.19914487036181616  1.0000
  O   O3        1.0  0.14824499527230928  0.4006228002693657  0.6182523045743258  1.0000
  O   O4        1.0  0.14802045073134362  0.5943298635235008  0.40093545286119614  1.0000
  O   O5        1.0  0.1480425035576569  0.21675599866253648  0.416461614041967  1.0000
  O   O6        1.0  0.9990898921062163  0.5944678639807905  0.40103189597301214  1.0000
  O   O7        1.0  0.9993144365517125  0.40076236073038146  0.6183486700239595  1.0000
  O   O8        1.0  0.998887465670011  0.4106025523434014  0.19923950291326786  1.0000
  O   O9        1.0  0.9991119432498246  0.216895489152954  0.4165563546620057  1.0000
