data_image0
_chemical_formula_structural       NC12NC2H8C6SCNH5C6NO2H5Zn2C4O8
_chemical_formula_sum              "N4 C31 H18 S1 O10 Zn2"
_cell_length_a       17.80743265337812
_cell_length_b       9.27526961838325
_cell_length_c       9.273426996046743
_cell_angle_alpha    85.41456282983818
_cell_angle_beta     91.97882923782456
_cell_angle_gamma    88.87871087483882

_space_group_name_H-M_alt    "P 1"
_space_group_IT_number       1

loop_
  _space_group_symop_operation_xyz
  'x, y, z'

loop_
  _atom_site_type_symbol
  _atom_site_label
  _atom_site_symmetry_multiplicity
  _atom_site_fract_x
  _atom_site_fract_y
  _atom_site_fract_z
  _atom_site_occupancy
  N   N1        1.0  0.693218680912389  0.5729346770035426  0.4520202091684135  1.0000
  C   C1        1.0  0.641919899539739  0.6063020497403888  0.37580027523512705  1.0000
  C   C2        1.0  0.5780992523087901  0.6478086100136184  0.28099227968260565  1.0000
  C   C3        1.0  0.5889456802588862  0.7087982791773153  0.140507910556815  1.0000
  C   C4        1.0  0.5270517061972677  0.7486163227224054  0.04835597035938964  1.0000
  C   C5        1.0  0.45415251347913504  0.7277424896750317  0.09595615344761874  1.0000
  C   C6        1.0  0.44233211916089477  0.6666171707218584  0.2369603095208046  1.0000
  C   C7        1.0  0.5050833154937868  0.6268028720746526  0.32909391205785066  1.0000
  C   C8        1.0  0.3648840174205933  0.6444834868850847  0.28773448603691865  1.0000
  C   C9        1.0  0.3465313890221652  0.6736478673491366  0.4290759310694561  1.0000
  C   C10       1.0  0.27360220665917806  0.6528198645031168  0.47672139787322876  1.0000
  C   C11       1.0  0.21808794059722814  0.6025384681648995  0.3839556334528855  1.0000
  C   C12       1.0  0.1430316493016849  0.581085480982235  0.4331556389081159  1.0000
  N   N2        1.0  0.08269170706637789  0.5638387226495605  0.47270905852373746  1.0000
  C   C13       1.0  0.23575250556347696  0.5731822064544129  0.24321690948909452  1.0000
  C   C14       1.0  0.3086275751247967  0.5940286752967598  0.1952870889378486  1.0000
  H   H1        1.0  0.64517106941401  0.7255318637993882  0.10230076275637809  1.0000
  H   H2        1.0  0.535567481409589  0.7961368230615644  0.9398721085603832  1.0000
  H   H3        1.0  0.40704774230465113  0.7611700047185208  0.023191130949353767  1.0000
  H   H4        1.0  0.4972730212625642  0.5777453780597301  0.4374328805582854  1.0000
  H   H5        1.0  0.3883033038077338  0.7143993155220925  0.5021381517607568  1.0000
  H   H6        1.0  0.2604883047044642  0.6762876171580869  0.5857639610649088  1.0000
  H   H7        1.0  0.19325859319039418  0.5338344047381762  0.17061970620034317  1.0000
  H   H8        1.0  0.32122297837765  0.5688537030688166  0.08657440779576753  1.0000
  C   C15       1.0  0.8900681550982894  0.14498511314651802  0.46057290263251893  1.0000
  C   C16       1.0  0.8627585348016308  0.2295055448016203  0.33645957412454774  1.0000
  C   C17       1.0  0.829753572756574  0.16513705335567375  0.21977814244187652  1.0000
  C   C18       1.0  0.8235530361913505  0.015143956815743428  0.22480711290453126  1.0000
  C   C19       1.0  0.8512316193780951  0.9291019925572527  0.3463601266253995  1.0000
  C   C20       1.0  0.88584954110433  0.9917769804138962  0.46416908981980404  1.0000
  S   S1        1.0  0.7802382955593031  0.9329660020775665  0.07543896054606745  1.0000
  C   C21       1.0  0.8663042902089556  0.9153606871164619  0.9889362534160927  1.0000
  N   N3        1.0  0.922741794042029  0.9038307880730909  0.9322561742319632  1.0000
  H   H9        1.0  0.97192603497728  0.40827424535858414  0.6454272263371343  1.0000
  H   H10       1.0  0.8652911094668313  0.346403763532936  0.3309932279572718  1.0000
  H   H11       1.0  0.8084462979572833  0.23227597622164375  0.12581000996057412  1.0000
  H   H12       1.0  0.8473823812041201  0.8125943426029263  0.34711488477212826  1.0000
  H   H13       1.0  0.011252289984192698  0.862528152556601  0.7336331661620963  1.0000
  C   C22       1.0  0.8862102122207216  0.5714501484852192  0.038464972277152835  1.0000
  C   C23       1.0  0.9293185612576367  0.6734900977808724  0.10695258026940913  1.0000
  C   C24       1.0  0.9774134125968786  0.7659519477978278  0.028415776431262908  1.0000
  C   C25       1.0  0.98223695981195  0.7554472328857832  0.8789827824108141  1.0000
  C   C26       1.0  0.9389531780470853  0.656560845185908  0.8090165163315421  1.0000
  C   C27       1.0  0.889707455106473  0.5653118674650448  0.8862771207353405  1.0000
  N   N4        1.0  0.02158206327347067  0.8688606192333048  0.10064570704042697  1.0000
  O   O1        1.0  0.016700619285087367  0.8792863595505003  0.2472479009806778  1.0000
  O   O2        1.0  0.06485325983587309  0.9505899890008624  0.031470033599137796  1.0000
  H   H14       1.0  0.7817663005092194  0.44516364183735324  0.32182003976882334  1.0000
  H   H15       1.0  0.9267091400041993  0.6785547967774068  0.22294816669792938  1.0000
  H   H16       1.0  0.019018407887685603  0.8248913357748251  0.815607781728247  1.0000
  H   H17       1.0  0.9426963245872692  0.6538745986669854  0.6928937091267513  1.0000
  H   H18       1.0  0.732899233921458  0.3845002384409273  0.7874984520861883  1.0000
  Zn  Zn1       1.0  0.805612240024769  0.5703058713822915  0.4579988698505028  1.0000
  Zn  Zn2       1.0  0.9702982526228213  0.5664556820053765  0.4667421224728243  1.0000
  C   C28       1.0  0.889073355505789  0.5607283249391122  0.7259979456470491  1.0000
  C   C29       1.0  0.886838927029239  0.5760350045987419  0.19874329156216763  1.0000
  C   C30       1.0  0.886619344792111  0.8317570145667876  0.45773676781865036  1.0000
  C   C31       1.0  0.8892928904945431  0.3050045834564325  0.4670045360117007  1.0000
  O   O3        1.0  0.9495474443119807  0.5761063071997647  0.2558521517652952  1.0000
  O   O4        1.0  0.9513577149147023  0.5577337329943446  0.675524591715729  1.0000
  O   O5        1.0  0.9493752339239252  0.7765928363236305  0.4589017542647104  1.0000
  O   O6        1.0  0.9515298686087164  0.357247216282065  0.47247487804099153  1.0000
  O   O7        1.0  0.8243805678395812  0.7795143384211085  0.4522661112911064  1.0000
  O   O8        1.0  0.8263630398794396  0.5606569679219616  0.6688888791297611  1.0000
  O   O9        1.0  0.824552762417762  0.5790295044479217  0.24921470341237326  1.0000
  O   O10       1.0  0.8265351872092462  0.360170402434141  0.4658375378721633  1.0000
