data_image0
_chemical_formula_structural       NC5NC4H6C6ClH5C7OH5Zn2C4O8
_chemical_formula_sum              "N2 C26 H16 Cl1 O9 Zn2"
_cell_length_a       13.854160002989762
_cell_length_b       10.30297070629231
_cell_length_c       9.274074313596557
_cell_angle_alpha    86.12141784095925
_cell_angle_beta     90.23361037791132
_cell_angle_gamma    89.9983107048755

_space_group_name_H-M_alt    "P 1"
_space_group_IT_number       1

loop_
  _space_group_symop_operation_xyz
  'x, y, z'

loop_
  _atom_site_type_symbol
  _atom_site_label
  _atom_site_symmetry_multiplicity
  _atom_site_fract_x
  _atom_site_fract_y
  _atom_site_fract_z
  _atom_site_occupancy
  N   N1        1.0  0.9045389178617318  0.4067882911061189  0.41022614010600367  1.0000
  C   C1        1.0  0.8320446242555105  0.42896255491722307  0.3511917949296761  1.0000
  C   C2        1.0  0.741860698595391  0.45654793471052507  0.27775080912022854  1.0000
  C   C3        1.0  0.6544857710232826  0.4306405719729094  0.34945941878646747  1.0000
  C   C4        1.0  0.5667182861606291  0.4565479474052123  0.27775078595243596  1.0000
  C   C5        1.0  0.4769364831440297  0.42896242310979743  0.35119188653119826  1.0000
  N   N2        1.0  0.4047653472649199  0.4067882339455708  0.41022614001836155  1.0000
  C   C6        1.0  0.5663584031194161  0.508908723786842  0.13435254401725594  1.0000
  C   C7        1.0  0.6537002733559452  0.5367507098496108  0.06254054919661045  1.0000
  C   C8        1.0  0.6532763889319716  0.5892271021897566  0.907655578785306  1.0000
  C   C9        1.0  0.7414354919087766  0.5089087217965738  0.13435245375681526  1.0000
  H   H1        1.0  0.6547896207675267  0.390014162992121  0.4604470232337714  1.0000
  H   H2        1.0  0.4983331595860113  0.528029427438182  0.07871428555585736  1.0000
  H   H3        1.0  0.718064410338429  0.6503750793003753  0.8838747078326065  1.0000
  H   H4        1.0  0.5883559328573089  0.6503750815646567  0.8838747729046331  1.0000
  H   H5        1.0  0.6530829704474616  0.5071054295892929  0.836114102207691  1.0000
  H   H6        1.0  0.8091561184326985  0.5280295279412488  0.07871420014813157  1.0000
  C   C10       1.0  0.15465675571554996  0.02554086494542073  0.41023237458345885  1.0000
  C   C11       1.0  0.25440117896861336  0.022643087107094836  0.43799304173147546  1.0000
  C   C12       1.0  0.3038916992910268  0.9042484422864504  0.45176704307959814  1.0000
  C   C13       1.0  0.25440117801293916  0.7875351178382378  0.4379929739480528  1.0000
  C   C14       1.0  0.15465676624179858  0.788025807487141  0.41023245708866063  1.0000
  C   C15       1.0  0.10527076355417031  0.9076222403078453  0.39648741258972264  1.0000
  Cl  Cl1       1.0  0.4284962483712944  0.9021319434169388  0.48644663111078357  1.0000
  H   H7        1.0  0.11708477623375099  0.3539355182987424  0.39977461056400654  1.0000
  H   H8        1.0  0.2940719598329058  0.11201583385207227  0.4490340099827399  1.0000
  H   H9        1.0  0.2940719213790473  0.6968146401089741  0.44903390643234986  1.0000
  H   H10       1.0  0.028344837321395918  0.9089287669896  0.37507750720377553  1.0000
  H   H11       1.0  0.11708477226966084  0.4609075540270364  0.3997748826795786  1.0000
  C   C16       1.0  0.153501060843104  0.4030441157400099  0.9869912123772915  1.0000
  C   C17       1.0  0.06934177335625202  0.44137289611424374  0.056880060131150996  1.0000
  C   C18       1.0  0.9899355772710178  0.4901353737795295  0.9776978240040153  1.0000
  C   C19       1.0  0.9928312108236431  0.5018660866774385  0.8264178230044044  1.0000
  C   C20       1.0  0.07568724787997327  0.46196990312146136  0.7553890891550172  1.0000
  C   C21       1.0  0.1558124486126772  0.41052248049929485  0.8334736188031138  1.0000
  C   C22       1.0  0.9098034364978319  0.5541987965551138  0.7410271112370391  1.0000
  O   O1        1.0  0.834165448697222  0.5903718609879423  0.801733383893342  1.0000
  H   H12       1.0  0.3893420935629341  0.36996726098306976  0.09377979946834736  1.0000
  H   H13       1.0  0.9266040075447304  0.5198557325038116  0.035099473079945875  1.0000
  H   H14       1.0  0.07680571196637075  0.4682615079566699  0.6382324265006085  1.0000
  H   H15       1.0  0.3143417900540631  0.383538831955385  0.5560078052951911  1.0000
  H   H16       1.0  0.9132309265284677  0.562079156402775  0.6241575944464035  1.0000
  Zn  Zn1       1.0  0.048893488206577435  0.4067848723576362  0.41023447211067277  1.0000
  Zn  Zn2       1.0  0.26041081041637953  0.406781133319984  0.41022964482489765  1.0000
  C   C23       1.0  0.15537341849134267  0.4039369108619417  0.6734702762473417  1.0000
  C   C24       1.0  0.15393319028053942  0.4096307341222736  0.14699398209716444  1.0000
  C   C25       1.0  0.1546361295069536  0.6438491522149038  0.4044890214249257  1.0000
  C   C26       1.0  0.15467040729860998  0.16971693364385246  0.41597531376182584  1.0000
  O   O2        1.0  0.23434793831389555  0.411834180538771  0.20069054132848518  1.0000
  O   O3        1.0  0.23549542270458979  0.40172964352649426  0.6197696383254488  1.0000
  O   O4        1.0  0.23489897454339306  0.5954618257825977  0.40256537199409315  1.0000
  O   O5        1.0  0.2349443140034717  0.21810200661647805  0.41789469959560366  1.0000
  O   O6        1.0  0.07435991243898307  0.595463999063764  0.4025694173340331  1.0000
  O   O7        1.0  0.07495636038599664  0.4017333759357422  0.6197736068172088  1.0000
  O   O8        1.0  0.07380887132778735  0.4118378523974253  0.20069277698613086  1.0000
  O   O9        1.0  0.07440524730848193  0.21810567014394389  0.4178970433115523  1.0000
