data_image0
_chemical_formula_structural       NC9NC3NH7C7F3H5C6NO2H3Zn2C4O8
_chemical_formula_sum              "N4 C29 H15 F3 O10 Zn2"
_cell_length_a       16.053384444249904
_cell_length_b       9.272718291674593
_cell_length_c       9.273395971720358
_cell_angle_alpha    85.39368926886713
_cell_angle_beta     89.67931749283619
_cell_angle_gamma    88.75080299671951

_space_group_name_H-M_alt    "P 1"
_space_group_IT_number       1

loop_
  _space_group_symop_operation_xyz
  'x, y, z'

loop_
  _atom_site_type_symbol
  _atom_site_label
  _atom_site_symmetry_multiplicity
  _atom_site_fract_x
  _atom_site_fract_y
  _atom_site_fract_z
  _atom_site_occupancy
  N   N1        1.0  0.7794728711349924  0.5752764003089146  0.41624201404689853  1.0000
  C   C1        1.0  0.728910177646696  0.5530373613430504  0.332873613987239  1.0000
  C   C2        1.0  0.6660745053402751  0.52540488273324  0.2293096912367798  1.0000
  C   C3        1.0  0.6799119633223034  0.5135095642159251  0.08389772525017425  1.0000
  C   C4        1.0  0.6034735997776332  0.4859964753196227  0.02560480966005562  1.0000
  C   C5        1.0  0.5462610787270449  0.4826385767992116  0.13859681534948676  1.0000
  C   C6        1.0  0.4557350385078334  0.4563109220190759  0.12700733914250306  1.0000
  C   C7        1.0  0.3995185405265763  0.5026432230776894  0.2317441777159381  1.0000
  C   C8        1.0  0.314089996382467  0.47767501244577093  0.22064553141550092  1.0000
  C   C9        1.0  0.25708215425413117  0.5259169824603995  0.32803341348870574  1.0000
  N   N2        1.0  0.2112645608001608  0.5646967408133173  0.41435645912568736  1.0000
  C   C10       1.0  0.2841524375312264  0.40625001843107356  0.10482434465826439  1.0000
  C   C11       1.0  0.3393595496833756  0.36004806165930137  0.00032378181789228003  1.0000
  C   C12       1.0  0.4245834119638661  0.3848368754671152  0.010980232131826645  1.0000
  N   N3        1.0  0.585201347092115  0.5068508056785148  0.26278363050525155  1.0000
  H   H1        1.0  0.7386694268042667  0.5236935826167732  0.026598850743853042  1.0000
  H   H2        1.0  0.5914047835437901  0.4718764961546271  0.9130322352540925  1.0000
  H   H3        1.0  0.4214867699485758  0.5599587098067582  0.3208811468388695  1.0000
  H   H4        1.0  0.2182263746718389  0.3864011824067115  0.09530060705746846  1.0000
  H   H5        1.0  0.3160934426982752  0.30455794814423887  0.9109406772493926  1.0000
  H   H6        1.0  0.4659628254525254  0.34633486442034617  0.9292672192168459  1.0000
  H   H7        1.0  0.5589107070656671  0.5084057150367061  0.3659057939418675  1.0000
  C   C13       1.0  0.9971905725801309  0.146592443920327  0.41210258200859773  1.0000
  C   C14       1.0  0.946510775337099  0.23018463373639822  0.3125667497818181  1.0000
  C   C15       1.0  0.8899234680665925  0.16495876321272962  0.22444633794872557  1.0000
  C   C16       1.0  0.8862272242524745  0.013672857400881314  0.23290165128767648  1.0000
  C   C17       1.0  0.936972657338847  0.9291524900168369  0.32931362927802893  1.0000
  C   C18       1.0  0.9935548329592196  0.9933693119835636  0.41850828094947  1.0000
  C   C19       1.0  0.8377380535197345  0.2562807103434359  0.1157337784958854  1.0000
  F   F1        1.0  0.8162729748587549  0.38768009417913585  0.16828860975853832  1.0000
  F   F2        1.0  0.7650418925754072  0.18697520875302298  0.08589292347639033  1.0000
  F   F3        1.0  0.8828192970994309  0.28127375792019293  0.9890931659878998  1.0000
  H   H8        1.0  0.0957832663291256  0.21962897334275744  0.723196254473375  1.0000
  H   H9        1.0  0.9498436505590699  0.3471416979467201  0.30583377020850566  1.0000
  H   H10       1.0  0.8446567239495055  0.9603209499155486  0.16366883784992559  1.0000
  H   H11       1.0  0.9335700625957272  0.812446564763925  0.33127062705464017  1.0000
  H   H12       1.0  0.17222757028672198  0.8712703304585044  0.5914648829643148  1.0000
  C   C20       1.0  0.9958278265988284  0.5743985395541891  0.9914001307476559  1.0000
  C   C21       1.0  0.9214270405295113  0.6091266617429145  0.06256005556930444  1.0000
  C   C22       1.0  0.8468515762730467  0.6302275049640282  0.9866017460997809  1.0000
  C   C23       1.0  0.8445618931260287  0.617039169667428  0.8372171540431456  1.0000
  C   C24       1.0  0.9189075481909397  0.5847826309467831  0.7646384343250929  1.0000
  C   C25       1.0  0.9949175713295408  0.5655632195364773  0.8392107082610565  1.0000
  N   N4        1.0  0.7672430907913134  0.6377267936599691  0.7595591141070752  1.0000
  O   O1        1.0  0.6947042569249106  0.6704864480482238  0.8308842906281882  1.0000
  O   O2        1.0  0.7646406973143685  0.625909813160032  0.6264852749541836  1.0000
  H   H13       1.0  0.1788343361414959  0.40840901869378277  0.10580407518945421  1.0000
  H   H14       1.0  0.7906764454225009  0.6555088594875977  0.04541044275124207  1.0000
  H   H15       1.0  0.11967135491240787  0.4579867279049281  0.5664278664431381  1.0000
  Zn  Zn1       1.0  0.904078630856803  0.5722194071253166  0.41570618309823043  1.0000
  Zn  Zn2       1.0  0.08665881538575704  0.567741864733438  0.4149039993353145  1.0000
  C   C26       1.0  0.9951124486190678  0.5614895391260599  0.6789128945277461  1.0000
  C   C27       1.0  0.9956269834304426  0.5784735015493083  0.15169743459122098  1.0000
  C   C28       1.0  0.9942439642735962  0.8333705173687477  0.41154505891400417  1.0000
  C   C29       1.0  0.9964954128289863  0.30659079179185555  0.41906533433596027  1.0000
  O   O3        1.0  0.06484783413963124  0.5781356019377739  0.20519020195480664  1.0000
  O   O4        1.0  0.06446573846567949  0.5584280043126302  0.6248108644780013  1.0000
  O   O5        1.0  0.06376349072325382  0.7779753399115548  0.4089094609927113  1.0000
  O   O6        1.0  0.06555001965172846  0.3585882793086499  0.421091497556401  1.0000
  O   O7        1.0  0.9251873642851769  0.7813729940797189  0.40951868514330836  1.0000
  O   O8        1.0  0.9258896046688748  0.5618273915251741  0.6254200247637651  1.0000
  O   O9        1.0  0.9262717024773017  0.5815349569927751  0.20579762630718143  1.0000
  O   O10       1.0  0.9269738879140728  0.36198762292346465  0.42169903005863607  1.0000
