data_image0
_chemical_formula_structural       NC8NC6H8C7F3H5C7F3H5Zn2C4O8
_chemical_formula_sum              "N2 C32 H18 F6 Zn2 O8"
_cell_length_a       17.457602349358154
_cell_length_b       9.27228830945605
_cell_length_c       9.272291681409872
_cell_angle_alpha    85.76598936101391
_cell_angle_beta     93.27365386630078
_cell_angle_gamma    91.12935064675003

_space_group_name_H-M_alt    "P 1"
_space_group_IT_number       1

loop_
  _space_group_symop_operation_xyz
  'x, y, z'

loop_
  _atom_site_type_symbol
  _atom_site_label
  _atom_site_symmetry_multiplicity
  _atom_site_fract_x
  _atom_site_fract_y
  _atom_site_fract_z
  _atom_site_occupancy
  N   N1        1.0  0.7080470887275926  0.6004370741332066  0.46560118847938053  1.0000
  C   C1        1.0  0.6471976424462083  0.5493100693610307  0.4541045733853575  1.0000
  C   C2        1.0  0.5714983541961629  0.48571451858681436  0.439813343682254  1.0000
  C   C3        1.0  0.5130443648474631  0.5310761099502972  0.5227275702829044  1.0000
  C   C4        1.0  0.4387731425876986  0.46983998778970837  0.5091051911022395  1.0000
  C   C5        1.0  0.3767334235947333  0.5177375134238287  0.5969153136158611  1.0000
  C   C6        1.0  0.30184377081725694  0.537702380032308  0.5348762595919054  1.0000
  C   C7        1.0  0.24339132307260108  0.5828607056365924  0.6179115292282454  1.0000
  C   C8        1.0  0.1670506480851672  0.6034766868887209  0.5534085011554459  1.0000
  N   N2        1.0  0.10568570044291603  0.6200448496359916  0.5015482748039017  1.0000
  C   C9        1.0  0.2593370476786763  0.6083293318289404  0.7635489862841636  1.0000
  C   C10       1.0  0.333441306316884  0.5888004633993591  0.82601597465207  1.0000
  C   C11       1.0  0.3918829938143772  0.5438467130123406  0.7434878327499421  1.0000
  C   C12       1.0  0.4242425871325576  0.36247546759233806  0.4109817182609308  1.0000
  C   C13       1.0  0.4826848755434692  0.31742744957378255  0.3285099012767821  1.0000
  C   C14       1.0  0.556172964743002  0.37879387235623646  0.3427422516137844  1.0000
  H   H1        1.0  0.5252203000066945  0.6152758852283544  0.5962395136060044  1.0000
  H   H2        1.0  0.2891609739875978  0.5200589436956811  0.42167955728397377  1.0000
  H   H3        1.0  0.2145386682671129  0.6432228032837775  0.8286864469498207  1.0000
  H   H4        1.0  0.34559957512951983  0.6081707181143361  0.9387883088230422  1.0000
  H   H5        1.0  0.4486505453568277  0.5276484714537265  0.7947812722963941  1.0000
  H   H6        1.0  0.36798276396237006  0.31200321061194236  0.3994412552087141  1.0000
  H   H7        1.0  0.47101110373696253  0.23445614949796043  0.25366021239809466  1.0000
  H   H8        1.0  0.6009786938042063  0.3429392582561805  0.27817788249945563  1.0000
  C   C15       1.0  0.9091362097460338  0.18654769145885577  0.4860017424074856  1.0000
  C   C16       1.0  0.9451624804682226  0.2693374430118225  0.375392189016555  1.0000
  C   C17       1.0  0.9735925759338344  0.2040827132945615  0.2590696404902511  1.0000
  C   C18       1.0  0.9656997439410124  0.0544081845412061  0.2491411384241258  1.0000
  C   C19       1.0  0.9324792264717645  0.9700903913968225  0.36183936290937524  1.0000
  C   C20       1.0  0.9046040377886176  0.03392359048199544  0.4811609444885641  1.0000
  C   C21       1.0  0.9983868661668491  0.983370660865215  0.12546618853494285  1.0000
  F   F1        1.0  0.9972570558597449  0.07683425198218385  0.001867356497876169  1.0000
  F   F2        1.0  0.9560326054500284  0.8606885842445382  0.09415650722319024  1.0000
  F   F3        1.0  0.0733245344314966  0.9447817396345566  0.16345978268105021  1.0000
  H   H9        1.0  0.7811174537088204  0.26508077936758423  0.7337377594927144  1.0000
  H   H10       1.0  0.9500078242512356  0.385853691664249  0.37732194172983524  1.0000
  H   H11       1.0  0.001226887525634711  0.27117406981642933  0.1760207084142942  1.0000
  H   H12       1.0  0.9300153471898241  0.8535017165757715  0.3583749738043187  1.0000
  H   H13       1.0  0.8701864399226549  0.9055942448057218  0.8271850036346591  1.0000
  C   C22       1.0  0.9052749319930015  0.6064524091611128  0.060095780978389746  1.0000
  C   C23       1.0  0.9573629805243012  0.5181928378708461  0.14549882298056785  1.0000
  C   C24       1.0  0.013551169526630607  0.44306744287836136  0.08218852210309603  1.0000
  C   C25       1.0  0.019885467422404938  0.45596195758293806  0.9318030341986021  1.0000
  C   C26       1.0  0.9662941649527209  0.5393662010895091  0.8451188938004591  1.0000
  C   C27       1.0  0.9084652836235121  0.6140188910222839  0.9070668399919574  1.0000
  C   C28       1.0  0.07925843638024004  0.3714858425602008  0.8630420355026169  1.0000
  F   F4        1.0  0.14363340064686628  0.3502920463095742  0.9559081586657783  1.0000
  F   F5        1.0  0.10183734240912372  0.4448222196865021  0.7366332027355522  1.0000
  F   F6        1.0  0.048349799219561174  0.23844935091080882  0.8309763191620854  1.0000
  H   H14       1.0  0.7956676713814645  0.892679361394944  0.12875316575019968  1.0000
  H   H15       1.0  0.9556381782865623  0.5094915103440636  0.2624346303936189  1.0000
  H   H16       1.0  0.05257322414786759  0.3757056469663911  0.15129172761053034  1.0000
  H   H17       1.0  0.968461140013626  0.543322611844002  0.7283068733888418  1.0000
  H   H18       1.0  0.7338454615215237  0.7436616769342628  0.77721587627896  1.0000
  Zn  Zn1       1.0  0.8227970546930833  0.6060916597626116  0.47598308976160264  1.0000
  Zn  Zn2       1.0  0.9909358279712376  0.6143785399605599  0.49117824783551584  1.0000
  C   C29       1.0  0.9078912784320033  0.6068406914895957  0.7470038870552953  1.0000
  C   C30       1.0  0.9058434310988454  0.6136314204651803  0.2201577476158705  1.0000
  C   C31       1.0  0.9054351029337784  0.8736999586053957  0.47632888619564256  1.0000
  C   C32       1.0  0.9082995587841147  0.34677041774252854  0.49083283007831696  1.0000
  O   O1        1.0  0.9698420464548495  0.6191792955585043  0.2796425250612531  1.0000
  O   O2        1.0  0.9715061057856089  0.6075812745598232  0.6990514740821403  1.0000
  O   O3        1.0  0.9695218584970529  0.8230734786540282  0.48047940951101725  1.0000
  O   O4        1.0  0.9718262359065319  0.4036870979918379  0.49821447626005627  1.0000
  O   O5        1.0  0.8419065893802404  0.8167830989049312  0.46894685614410636  1.0000
  O   O6        1.0  0.8438908271042037  0.6012926275911753  0.6875188339194808  1.0000
  O   O7        1.0  0.8422267615623948  0.6128905828246023  0.26810815135581256  1.0000
  O   O8        1.0  0.8442109514734023  0.39739837590399474  0.48668021073398005  1.0000
