data_image0
_chemical_formula_structural       NC12NC2H8C12ClH9C12ClH9Zn2C4O8
_chemical_formula_sum              "N2 C42 H26 Cl2 Zn2 O8"
_cell_length_a       17.80743265337812
_cell_length_b       10.299768534541528
_cell_length_c       10.299771906710086
_cell_angle_alpha    85.54593327708469
_cell_angle_beta     91.54320236892109
_cell_angle_gamma    89.45366305101135

_space_group_name_H-M_alt    "P 1"
_space_group_IT_number       1

loop_
  _space_group_symop_operation_xyz
  'x, y, z'

loop_
  _atom_site_type_symbol
  _atom_site_label
  _atom_site_symmetry_multiplicity
  _atom_site_fract_x
  _atom_site_fract_y
  _atom_site_fract_z
  _atom_site_occupancy
  N   N1        1.0  0.7075419241651926  0.407019984144928  0.6014199915536054  1.0000
  C   C1        1.0  0.656720660709757  0.4365957938874325  0.5327235128618659  1.0000
  C   C2        1.0  0.5934939946621627  0.4733859534418879  0.4472737411690849  1.0000
  C   C3        1.0  0.60521791611587  0.5274379943010326  0.3206581286603924  1.0000
  C   C4        1.0  0.5438985668704741  0.5627239764707199  0.23760423547300658  1.0000
  C   C5        1.0  0.4707009753594953  0.5442215459129859  0.28050607327150856  1.0000
  C   C6        1.0  0.45800030585618084  0.49005058519229516  0.4075898173145948  1.0000
  C   C7        1.0  0.5201769701317173  0.4547678610577939  0.49062719915136754  1.0000
  C   C8        1.0  0.3802345900671258  0.4704333182427555  0.45335186063338273  1.0000
  C   C9        1.0  0.3614667945443948  0.4975873269380491  0.580396449508556  1.0000
  C   C10       1.0  0.2882392688724811  0.479126458956989  0.6233388520784768  1.0000
  C   C11       1.0  0.23283660955624164  0.43325710274124857  0.5400746122493081  1.0000
  C   C12       1.0  0.15747252279105492  0.4142430634528991  0.5844178985283182  1.0000
  N   N2        1.0  0.09688513400528552  0.39895705466672887  0.6200668501731771  1.0000
  C   C13       1.0  0.2509129374468949  0.40593404705467195  0.4135729784376822  1.0000
  C   C14       1.0  0.3240875840806131  0.4244097646662756  0.3703746921472288  1.0000
  H   H1        1.0  0.6616827110635639  0.5422702327558102  0.2862222730212063  1.0000
  H   H2        1.0  0.5530941418216345  0.6048450929012463  0.1398284015444755  1.0000
  H   H3        1.0  0.42406020163943453  0.5738731822330319  0.21491751433289896  1.0000
  H   H4        1.0  0.5116795157386025  0.4112614844957241  0.5882785143679263  1.0000
  H   H5        1.0  0.4031567484881408  0.534749660828109  0.6459709161786996  1.0000
  H   H6        1.0  0.2748100729284812  0.5009471173374771  0.7213479569964955  1.0000
  H   H7        1.0  0.20850637587037163  0.3700388757453841  0.3484115302477239  1.0000
  H   H8        1.0  0.3369881407863037  0.4010535018496486  0.27266883738268016  1.0000
  C   C15       1.0  0.9021462684841064  0.021624529944163536  0.6107380578147488  1.0000
  C   C16       1.0  0.9070814956310247  0.031127267259216884  0.4745056904801812  1.0000
  C   C17       1.0  0.9096544390688924  0.9188015147939691  0.4054865143997317  1.0000
  C   C18       1.0  0.9072249818260416  0.7958365738978254  0.4745280523976816  1.0000
  C   C19       1.0  0.9022879873383965  0.7843423441629482  0.6107602730393871  1.0000
  C   C20       1.0  0.8997768313689372  0.8977930721644377  0.6781024008971783  1.0000
  C   C21       1.0  0.9148764968582608  0.9299082658089544  0.26136407448473076  1.0000
  C   C22       1.0  0.8721301652363836  0.024354990587185817  0.18485312828903774  1.0000
  C   C23       1.0  0.8771122524009806  0.034611797747023054  0.04921218267252269  1.0000
  C   C24       1.0  0.9247679641424777  0.9509460071083756  0.9883868457016035  1.0000
  C   C25       1.0  0.967501843345987  0.8568122192003933  0.06338597716757133  1.0000
  C   C26       1.0  0.9626531705447003  0.8461603937108517  0.1990479556402191  1.0000
  Cl  Cl1       1.0  0.9309350247927605  0.9640624742291756  0.8181974521151147  1.0000
  H   H9        1.0  0.9002271566639055  0.3454580687562701  0.6626441967215565  1.0000
  H   H10       1.0  0.9099729998790848  0.12609491924619687  0.4219116595343337  1.0000
  H   H11       1.0  0.9081559021507737  0.708998733534311  0.42162656823776135  1.0000
  H   H12       1.0  0.8959687699615595  0.8896939748036428  0.7831993646958646  1.0000
  H   H13       1.0  0.9004366740535258  0.4525081378462244  0.662677459992017  1.0000
  H   H14       1.0  0.834149766707147  0.08910400537495411  0.22977753260789943  1.0000
  H   H15       1.0  0.8437514224556445  0.10743272108772309  0.9915027538037549  1.0000
  H   H16       1.0  0.004644252652769909  0.7920344290655777  0.016731963492676576  1.0000
  H   H17       1.0  0.9969671764771881  0.7736134698121057  0.25530873195699333  1.0000
  C   C27       1.0  0.9021813867426521  0.4030905151653752  0.22937821080470863  1.0000
  C   C28       1.0  0.9703360793810122  0.47056153790486976  0.22631605021522277  1.0000
  C   C29       1.0  0.004907231359752683  0.504640736507483  0.10763584305664309  1.0000
  C   C30       1.0  0.9704085093928433  0.4703448773528376  0.9910497384671356  1.0000
  C   C31       1.0  0.9022528513038609  0.40287643447800586  0.9921201969095659  1.0000
  C   C32       1.0  0.86852130424191  0.36962623918178616  0.11177076012333331  1.0000
  C   C33       1.0  0.07700971181870098  0.5760180463531903  0.1054501038056681  1.0000
  C   C34       1.0  0.08890233619179955  0.6787761323254038  0.18582386914028848  1.0000
  C   C35       1.0  0.15680071264836348  0.7458568473287764  0.1835808486867727  1.0000
  C   C36       1.0  0.2135769658078324  0.7112105044598087  0.10131128845314351  1.0000
  C   C37       1.0  0.20240170652503298  0.6092970230702677  0.02110069250172253  1.0000
  C   C38       1.0  0.13457063078129683  0.5420145939785499  0.022971300893584783  1.0000
  Cl  Cl2       1.0  0.2987207215718881  0.7954968680218325  0.09873122002381729  1.0000
  H   H18       1.0  0.8761912262599625  0.37743839220582087  0.5579930380319542  1.0000
  H   H19       1.0  0.9972195657316995  0.4952041350386074  0.31658489762247227  1.0000
  H   H20       1.0  0.9963029394455213  0.4979495134841505  0.8991809054169838  1.0000
  H   H21       1.0  0.8159426397606366  0.3175765802842907  0.1133648517359449  1.0000
  H   H22       1.0  0.8762967192350956  0.37712163822063727  0.6650788992550694  1.0000
  H   H23       1.0  0.04535545991490087  0.7083308655445495  0.24911279693780103  1.0000
  H   H24       1.0  0.16512233664291975  0.8249578878480353  0.24561462234352027  1.0000
  H   H25       1.0  0.24629182244705272  0.5818823129142694  0.9574846719517116  1.0000
  H   H26       1.0  0.12749584862068808  0.4623474586594418  0.9612167663227539  1.0000
  Zn  Zn1       1.0  0.8198979676448719  0.40468972753000026  0.606808559028577  1.0000
  Zn  Zn2       1.0  0.9845290870561265  0.4012767149875786  0.6146888754973608  1.0000
  C   C39       1.0  0.9022367127788284  0.3977432984656923  0.8479453720536845  1.0000
  C   C40       1.0  0.9021921400052666  0.4082247453442376  0.37355227604002805  1.0000
  C   C41       1.0  0.9022568412954654  0.6401740101273246  0.6055807257181551  1.0000
  C   C42       1.0  0.9021719550281273  0.16579247454564627  0.6159169888800228  1.0000
  O   O1        1.0  0.9646723996800464  0.4086469537540329  0.4249289482452845  1.0000
  O   O2        1.0  0.9647076632153309  0.3947297129032059  0.8025493038334743  1.0000
  O   O3        1.0  0.964723075158466  0.5904955956058972  0.606838096872381  1.0000
  O   O4        1.0  0.9646569315520637  0.21288108153340676  0.620640055142436  1.0000
  O   O5        1.0  0.8397700669684129  0.5930853621502818  0.600857376687506  1.0000
  O   O6        1.0  0.8397546553052592  0.39732103975065874  0.7965685144481376  1.0000
  O   O7        1.0  0.8397193916652163  0.411238235783387  0.41894659745188817  1.0000
  O   O8        1.0  0.8397039235415596  0.21547235424680464  0.6146578017169853  1.0000
