data_image0
_chemical_formula_structural       NC6NC3H6C6NH5C6H4Zn2C4O8
_chemical_formula_sum              "N3 C25 H15 Zn2 O8"
_cell_length_a       14.934028789175542
_cell_length_b       9.274771166103582
_cell_length_c       10.681121600428288
_cell_angle_alpha    85.45578074471726
_cell_angle_beta     89.97499362812657
_cell_angle_gamma    90.55950156128424

_space_group_name_H-M_alt    "P 1"
_space_group_IT_number       1

loop_
  _space_group_symop_operation_xyz
  'x, y, z'

loop_
  _atom_site_type_symbol
  _atom_site_label
  _atom_site_symmetry_multiplicity
  _atom_site_fract_x
  _atom_site_fract_y
  _atom_site_fract_z
  _atom_site_occupancy
  N   N1        1.0  0.8533995081757044  0.5778014009435908  0.6156967006139806  1.0000
  C   C1        1.0  0.7759063285491394  0.5767029858057386  0.6151087111129052  1.0000
  C   C2        1.0  0.6795008749935619  0.5753315070399307  0.6143747160901714  1.0000
  C   C3        1.0  0.6324327330834714  0.6821431897895454  0.6714457781880989  1.0000
  C   C4        1.0  0.538913848606872  0.6810419882452501  0.6708572771865633  1.0000
  C   C5        1.0  0.4915509113768699  0.5731836129069561  0.613227013240202  1.0000
  C   C6        1.0  0.3949201894244804  0.5754978232594565  0.6144646533738376  1.0000
  N   N2        1.0  0.31745201066690754  0.5773344409404321  0.6154471621072972  1.0000
  C   C7        1.0  0.5386038754002717  0.4648942138911274  0.5553659034024847  1.0000
  C   C8        1.0  0.489525250656504  0.347629739738641  0.49271089636209653  1.0000
  C   C9        1.0  0.6327611333921022  0.4671190869869277  0.5565547315253518  1.0000
  H   H1        1.0  0.6680241482221642  0.7663008879709892  0.7164129932600769  1.0000
  H   H2        1.0  0.5034211047845208  0.7645515500836597  0.7154780581414173  1.0000
  H   H3        1.0  0.4470933228407665  0.39671172334211946  0.4156555588666011  1.0000
  H   H4        1.0  0.44637366467240785  0.28476887456674294  0.5624097670079433  1.0000
  H   H5        1.0  0.5364902851945558  0.27167585080916085  0.4521219998572763  1.0000
  H   H6        1.0  0.6697541596714808  0.38472045125695464  0.512527787836027  1.0000
  C   C10       1.0  0.08268100063248161  0.15397412145276035  0.6162559841864657  1.0000
  C   C11       1.0  0.0620761313141793  0.23730359986449437  0.504279250995904  1.0000
  C   C12       1.0  0.0498315351284284  0.17226652810751908  0.39158750774660905  1.0000
  C   C13       1.0  0.05823875164230882  0.022522457639514888  0.3900561879241821  1.0000
  C   C14       1.0  0.07718782262689206  0.9378752172689749  0.5004954264191062  1.0000
  C   C15       1.0  0.08817906309926778  0.0011506274091226418  0.6148987324687445  1.0000
  N   N3        1.0  0.029776811681203823  0.2586949507982008  0.27837966773707645  1.0000
  H   H7        1.0  0.1834538084705415  0.2335330480509637  0.8902704252428221  1.0000
  H   H8        1.0  0.04924157237829526  0.9710442828160755  0.3033510330834135  1.0000
  H   H9        1.0  0.15242435424318757  0.7040196776460913  0.8013278930059474  1.0000
  H   H10       1.0  0.023607422266367133  0.37077506030427443  0.27834231111395025  1.0000
  H   H11       1.0  0.020863929012266736  0.21123389902019915  0.19373393307343  1.0000
  C   C16       1.0  0.08543004474796678  0.5775623362445859  0.24783211721078022  1.0000
  C   C17       1.0  0.020818573975707633  0.4974018324084093  0.186572621224538  1.0000
  C   C18       1.0  0.0208185186701446  0.4974019249572426  0.05569048115352393  1.0000
  C   C19       1.0  0.08542997481466713  0.5775624070252408  0.9833225528116927  1.0000
  C   C20       1.0  0.1499881154129703  0.6576564815951078  0.04458160340811191  1.0000
  C   C21       1.0  0.14998810381156072  0.6576564592390939  0.17547390211315328  1.0000
  H   H12       1.0  0.9701730529389844  0.4345682409431601  0.23973721686871904  1.0000
  H   H13       1.0  0.970173034678761  0.4345683088615897  0.011233187544459565  1.0000
  H   H14       1.0  0.20064025059907142  0.7204983529700277  0.9914613263281122  1.0000
  H   H15       1.0  0.20064020515589254  0.7204983024487004  0.21988569391779178  1.0000
  Zn  Zn1       1.0  0.98731502473598  0.5776627809691699  0.6156319215330399  1.0000
  Zn  Zn2       1.0  0.18353644748757836  0.5774612449390706  0.6155221985356647  1.0000
  C   C22       1.0  0.08539072003464532  0.5718158652744401  0.8443083354100698  1.0000
  C   C23       1.0  0.0854629067325709  0.5833099784792815  0.38684590345748243  1.0000
  C   C24       1.0  0.08713519261885128  0.8410162081000532  0.610164964443735  1.0000
  C   C25       1.0  0.08371835594441629  0.3141079026643998  0.620989344003035  1.0000
  O   O1        1.0  0.1599389019915515  0.58515616479769  0.4334585708050351  1.0000
  O   O2        1.0  0.15984223732724984  0.5698156295757935  0.7976120320986595  1.0000
  O   O3        1.0  0.16124991717687723  0.7871983119415547  0.6085396015985094  1.0000
  O   O4        1.0  0.15853115525181793  0.36777349281952354  0.6225309074299532  1.0000
  O   O5        1.0  0.012320250011009783  0.787350533159062  0.6086232126696045  1.0000
  O   O6        1.0  0.010912581404600052  0.5699695838529133  0.7976955736213908  1.0000
  O   O7        1.0  0.011009245802313217  0.5853100688080004  0.43354060678568146  1.0000
  O   O8        1.0  0.009601498991954843  0.36792738651258405  0.622613037316686  1.0000
