data_image0
_chemical_formula_structural       NC8NH4C6NH7C7OH5Zn2C4O8
_chemical_formula_sum              "N3 C25 H16 O9 Zn2"
_cell_length_a       13.859017124695912
_cell_length_b       9.274771166103582
_cell_length_c       9.274074313596557
_cell_angle_alpha    86.0140142098405
_cell_angle_beta     90.23359480828564
_cell_angle_gamma    90.59707951677755

_space_group_name_H-M_alt    "P 1"
_space_group_IT_number       1

loop_
  _space_group_symop_operation_xyz
  'x, y, z'

loop_
  _atom_site_type_symbol
  _atom_site_label
  _atom_site_symmetry_multiplicity
  _atom_site_fract_x
  _atom_site_fract_y
  _atom_site_fract_z
  _atom_site_occupancy
  N   N1        1.0  0.9151446425449565  0.5630273758424227  0.40734990173961894  1.0000
  C   C1        1.0  0.8424737401141601  0.5396119775136323  0.3512331072511867  1.0000
  C   C2        1.0  0.7520754769084186  0.510486638695359  0.28143102633230255  1.0000
  C   C3        1.0  0.6648439523127109  0.5388808809520045  0.34947927178996663  1.0000
  C   C4        1.0  0.5768451639729094  0.5104878591031432  0.2814304448380258  1.0000
  C   C5        1.0  0.5762601984335123  0.45369288836584865  0.14531248267377017  1.0000
  C   C6        1.0  0.6633106384896742  0.4254077817650282  0.0775261734217334  1.0000
  C   C7        1.0  0.7511255442272128  0.4536905499559909  0.14531366522527622  1.0000
  C   C8        1.0  0.48723390646155457  0.5396128993831304  0.35123260758028385  1.0000
  N   N2        1.0  0.4151957697778409  0.563027696403362  0.40734968515780556  1.0000
  H   H1        1.0  0.6654379385421157  0.5828423869962638  0.4548378340796988  1.0000
  H   H2        1.0  0.5086628026780736  0.43134552580234864  0.09175106062710703  1.0000
  H   H3        1.0  0.6627179264461205  0.38153605626576237  0.9723809786415495  1.0000
  H   H4        1.0  0.8181189943692564  0.43134109600916704  0.09175324616773683  1.0000
  C   C9        1.0  0.1622147029230825  0.13943870835721417  0.4081353827541232  1.0000
  C   C10       1.0  0.1396507561697884  0.22148229694857102  0.2792499715244394  1.0000
  C   C11       1.0  0.12609333727400585  0.15515972792647936  0.14954683461531704  1.0000
  C   C12       1.0  0.13514782119410462  0.00540687562696851  0.14778965694011337  1.0000
  C   C13       1.0  0.15592256756815284  0.9220264782677661  0.27490456003332975  1.0000
  C   C14       1.0  0.16813491253944868  0.9866054515762971  0.40657673867163413  1.0000
  N   N3        1.0  0.10411824967203054  0.24028891021256119  0.019244897703669217  1.0000
  H   H5        1.0  0.27168756310865017  0.22219530487036887  0.7235576143998788  1.0000
  H   H6        1.0  0.1347841102609466  0.33806956717968323  0.2786963475206605  1.0000
  H   H7        1.0  0.12517343349397314  0.95294006714736  0.04799617869061933  1.0000
  H   H8        1.0  0.16016329383119454  0.8058219483742269  0.2707768785870619  1.0000
  H   H9        1.0  0.23796451653107667  0.6916457031678055  0.6211755388347133  1.0000
  H   H10       1.0  0.09747014270356136  0.35236234725576693  0.019198088712252034  1.0000
  H   H11       1.0  0.09424133052889207  0.1918625756930501  0.9218216333538809  1.0000
  C   C15       1.0  0.16399046285901342  0.5588675807939453  0.9841225123948679  1.0000
  C   C16       1.0  0.08015826627923595  0.601453096012508  0.05393304586147729  1.0000
  C   C17       1.0  0.0011585057150422758  0.6556310820277045  0.9746511642183817  1.0000
  C   C18       1.0  0.004144205272613279  0.6686646138045215  0.8233471814365574  1.0000
  C   C19       1.0  0.08666143836764807  0.6243376180466724  0.7523999666339547  1.0000
  C   C20       1.0  0.16635910486824113  0.5671764968992281  0.8305896301462425  1.0000
  C   C21       1.0  0.9215518560593281  0.7268093400287741  0.7378495274100123  1.0000
  O   O1        1.0  0.8462212351419816  0.7669997320283006  0.7984818886305933  1.0000
  H   H12       1.0  0.3994920235382644  0.5221173992679389  0.09097860711236438  1.0000
  H   H13       1.0  0.9380798891759558  0.6886521392731879  0.03199208704703005  1.0000
  H   H14       1.0  0.0878283604039014  0.6313279713159006  0.6352304418857662  1.0000
  H   H15       1.0  0.32462337857560786  0.5371961697994379  0.5531789041708026  1.0000
  H   H16       1.0  0.9250393303901032  0.7355648978551439  0.6209638996506097  1.0000
  Zn  Zn1       1.0  0.059448595563933455  0.5630236989036161  0.40735817369165206  1.0000
  Zn  Zn2       1.0  0.2708917599732432  0.5630197226321647  0.40735325581615256  1.0000
  C   C22       1.0  0.1658690962493914  0.5598595315818901  0.6705997503044383  1.0000
  C   C23       1.0  0.1644735813551652  0.5661857113243058  0.14411181726008682  1.0000
  C   C24       1.0  0.16699481709283348  0.8264164967517083  0.401128056706213  1.0000
  C   C25       1.0  0.16334777646510235  0.2996270138720327  0.41358359088782337  1.0000
  O   O2        1.0  0.24487725530708307  0.5686339408326657  0.19780383476332197  1.0000
  O   O3        1.0  0.24594588285689478  0.5574071919189154  0.616903587364773  1.0000
  O   O4        1.0  0.24685383917338702  0.772655327097316  0.3993032854929026  1.0000
  O   O5        1.0  0.24396922660907538  0.3533858149135707  0.41540402855395353  1.0000
  O   O6        1.0  0.08637105677291614  0.772657606625063  0.39930740094794537  1.0000
  O   O7        1.0  0.08546311234785953  0.5574112037319697  0.6169076227843993  1.0000
  O   O8        1.0  0.08439447966203462  0.5686378853703552  0.19780613747261566  1.0000
  O   O9        1.0  0.08348645119035791  0.35338975019480723  0.4154064393385808  1.0000
