data_image0
_chemical_formula_structural       NC5NC4H6C9H10C6SCH7Zn2C4O8
_chemical_formula_sum              "N2 C29 H23 S1 Zn2 O8"
_cell_length_a       13.854160002989762
_cell_length_b       10.297183801781406
_cell_length_c       10.302812801239591
_cell_angle_alpha    85.53397989939683
_cell_angle_beta     89.99986876837025
_cell_angle_gamma    89.99762469776624

_space_group_name_H-M_alt    "P 1"
_space_group_IT_number       1

loop_
  _space_group_symop_operation_xyz
  'x, y, z'

loop_
  _atom_site_type_symbol
  _atom_site_label
  _atom_site_symmetry_multiplicity
  _atom_site_fract_x
  _atom_site_fract_y
  _atom_site_fract_z
  _atom_site_occupancy
  N   N1        1.0  0.9088674411157158  0.4216835958808238  0.5672940223150643  1.0000
  C   C1        1.0  0.8365341497395367  0.4443929901246337  0.514106269727038  1.0000
  C   C2        1.0  0.7465505170205811  0.4726440925145934  0.4479386690805465  1.0000
  C   C3        1.0  0.6589800120064283  0.4460873253716727  0.5125449825590345  1.0000
  C   C4        1.0  0.5714081046489681  0.47264410542167923  0.447938648205358  1.0000
  C   C5        1.0  0.4814260083791016  0.4443928574285876  0.5141063523021735  1.0000
  N   N2        1.0  0.4090938705196527  0.42168353868684977  0.5672940222628586  1.0000
  C   C6        1.0  0.5714393198097547  0.5263038495720627  0.31874286038786015  1.0000
  C   C7        1.0  0.6589770325660643  0.5547973115050252  0.2540425138278253  1.0000
  C   C8        1.0  0.6589756110717556  0.6086742833368133  0.11449957463570072  1.0000
  C   C9        1.0  0.7465164088455989  0.5263038483785052  0.31874277908334725  1.0000
  H   H1        1.0  0.6589811598199912  0.4044554792944319  0.6125401953195819  1.0000
  H   H2        1.0  0.503565832313594  0.5459278352552095  0.2686156875674133  1.0000
  H   H3        1.0  0.7238280242387483  0.6700690696814622  0.09304946539746584  1.0000
  H   H4        1.0  0.594119546579922  0.6700690713718622  0.09304952401245072  1.0000
  H   H5        1.0  0.658978275586551  0.5271359007777601  0.0500943511150227  1.0000
  H   H6        1.0  0.814388791392601  0.5459279365734137  0.2686156105862154  1.0000
  C   C10       1.0  0.1589886567200236  0.04020800319977779  0.5674779951088529  1.0000
  C   C11       1.0  0.15617483654229963  0.05006798844620693  0.43086037559093465  1.0000
  C   C12       1.0  0.1547330109182909  0.9385030598321222  0.3608671739899494  1.0000
  C   C13       1.0  0.1561635289061596  0.8148968956227111  0.43033086592718806  1.0000
  C   C14       1.0  0.1589819148756113  0.803149129785667  0.5671212867698978  1.0000
  C   C15       1.0  0.16037516464802312  0.9162808119394886  0.634801914756727  1.0000
  C   C16       1.0  0.15168939864961084  0.9585995249134575  0.21310557170479072  1.0000
  C   C17       1.0  0.09517082272355482  0.8598826185053877  0.14083404975735084  1.0000
  C   C18       1.0  0.20513564854216626  0.8601908170245337  0.13670977081781557  1.0000
  H   H7        1.0  0.1600820770593372  0.36394708861110203  0.6201211459427988  1.0000
  H   H8        1.0  0.15508874940168105  0.145296852084293  0.3781184370478921  1.0000
  H   H9        1.0  0.15510526050791754  0.7272971910491975  0.37905356081255626  1.0000
  H   H10       1.0  0.16254560221497666  0.9079461834038103  0.740205277086873  1.0000
  H   H11       1.0  0.16429223050201291  0.5737444580900918  0.8254798746768351  1.0000
  H   H12       1.0  0.1507120143173084  0.059315089992584495  0.16561239516389348  1.0000
  H   H13       1.0  0.06296187218288261  0.776245113038661  0.19991687429691862  1.0000
  H   H14       1.0  0.06111813442611291  0.9007555947386832  0.04897893457878966  1.0000
  H   H15       1.0  0.23972442455322707  0.7767413253215963  0.19328799512281636  1.0000
  H   H16       1.0  0.23535256159676432  0.9012415544013702  0.04244299822498033  1.0000
  C   C19       1.0  0.15898530628140706  0.42167857211816745  0.1860511940304297  1.0000
  C   C20       1.0  0.12643242283503509  0.5512251294858326  0.1747933476206125  1.0000
  C   C21       1.0  0.1099862945396952  0.6154918051540157  0.052216303001929365  1.0000
  C   C22       1.0  0.12643233581895047  0.5512249931205135  0.9396421779951134  1.0000
  C   C23       1.0  0.15898524367363387  0.4216785633637934  0.9485480976640566  1.0000
  C   C24       1.0  0.17507287418841658  0.35752700163277024  0.07229224027514936  1.0000
  S   S1        1.0  0.06859340736031094  0.7811028719754036  0.03932754910938119  1.0000
  C   C25       1.0  0.9416297723629867  0.7357159621712539  0.04286089677838457  1.0000
  H   H17       1.0  0.17121704745884414  0.3728421005286612  0.5176081039065059  1.0000
  H   H18       1.0  0.11350109951893715  0.6026813917088389  0.2608883415736043  1.0000
  H   H19       1.0  0.11350090627359762  0.6026812045797556  0.8455380286789813  1.0000
  H   H20       1.0  0.200164853077867  0.25759338803048126  0.08006950132817559  1.0000
  H   H21       1.0  0.9245145087250021  0.6779259549107752  0.9592415910563697  1.0000
  H   H22       1.0  0.9245149221129659  0.6779272677566843  0.13547628247611554  1.0000
  H   H23       1.0  0.8969562719838782  0.8253801332561861  0.035882470491672695  1.0000
  Zn  Zn1       1.0  0.05322198873956151  0.42168010143198  0.5673015292770907  1.0000
  Zn  Zn2       1.0  0.2647393241640845  0.42167640283030344  0.5672971826693586  1.0000
  C   C26       1.0  0.1589831504882668  0.41650343446272914  0.8044222886552809  1.0000
  C   C27       1.0  0.158980472163575  0.4268547088369407  0.330176549903612  1.0000
  C   C28       1.0  0.1589782077038313  0.6589370134503677  0.5620151967288856  1.0000
  C   C29       1.0  0.15898534278574905  0.1844195691116879  0.5725837117779098  1.0000
  O   O1        1.0  0.23924857630142377  0.4285847966786076  0.37854468907057925  1.0000
  O   O2        1.0  0.2392518097683507  0.4147695594715228  0.7560504772438187  1.0000
  O   O3        1.0  0.2392467363329991  0.6105377405140022  0.5603050348336188  1.0000
  O   O4        1.0  0.23925357756016155  0.23281662493021213  0.5742900341340057  1.0000
  O   O5        1.0  0.07870766316299838  0.6105398793347474  0.5603086778070976  1.0000
  O   O6        1.0  0.07871273658012568  0.4147732590325583  0.7560540502640475  1.0000
  O   O7        1.0  0.07870950317791438  0.42858845097105397  0.37854670120444944  1.0000
  O   O8        1.0  0.07871450443278039  0.23282026993125027  0.5742921436093034  1.0000
