data_image0
_chemical_formula_structural       NC6NC2H4C10H5C6FH3Zn2C4O8
_chemical_formula_sum              "N2 C28 H12 F1 Zn2 O8"
_cell_length_a       14.927258858638513
_cell_length_b       9.275150299802178
_cell_length_c       9.275646106892307
_cell_angle_alpha    84.62811981021342
_cell_angle_beta     90.02253301230535
_cell_angle_gamma    89.48389287567745

_space_group_name_H-M_alt    "P 1"
_space_group_IT_number       1

loop_
  _space_group_symop_operation_xyz
  'x, y, z'

loop_
  _atom_site_type_symbol
  _atom_site_label
  _atom_site_symmetry_multiplicity
  _atom_site_fract_x
  _atom_site_fract_y
  _atom_site_fract_z
  _atom_site_occupancy
  N   N1        1.0  0.8342438028823862  0.5961262202852613  0.3988960882008522  1.0000
  C   C1        1.0  0.7567173118776415  0.5961261916459566  0.39889609896508754  1.0000
  C   C2        1.0  0.6602848036734416  0.5961263073433787  0.39889604838725234  1.0000
  C   C3        1.0  0.6133265710163588  0.5737732501210073  0.27218203208443525  1.0000
  C   C4        1.0  0.5196152594885913  0.5737732771956812  0.2721818983093338  1.0000
  C   C5        1.0  0.47246874068198047  0.596126129490834  0.39889606804884403  1.0000
  C   C6        1.0  0.37603616548622626  0.5961262451912852  0.39889601746506087  1.0000
  N   N2        1.0  0.2985096744814816  0.5961262165519807  0.39889602822929615  1.0000
  C   C7        1.0  0.5194269063475087  0.6184791867162349  0.5256100843457129  1.0000
  C   C8        1.0  0.6131382178752766  0.6184791596415609  0.5256102181208144  1.0000
  H   H1        1.0  0.6490960155365597  0.5563813126849273  0.17359125479774165  1.0000
  H   H2        1.0  0.48399235891742975  0.5563815103906173  0.17359124873425835  1.0000
  H   H3        1.0  0.48365752890584185  0.6358711126756169  0.6242009699149214  1.0000
  H   H4        1.0  0.6487611179325232  0.635871022658475  0.624200977313322  1.0000
  C   C9        1.0  0.06874547290649138  0.17239491165019638  0.4013125306299346  1.0000
  C   C10       1.0  0.11582317628490979  0.25561127531204697  0.29210991751076376  1.0000
  C   C11       1.0  0.1552164048861029  0.1906851854916802  0.17735777091558894  1.0000
  C   C12       1.0  0.14793156862204904  0.04159259989379805  0.1703301775535282  1.0000
  C   C13       1.0  0.10280946175342082  0.9569393120122783  0.2788840714945531  1.0000
  C   C14       1.0  0.06401663087756937  0.019846239642790524  0.3964921582911335  1.0000
  C   C15       1.0  0.20230422672643722  0.277670306936616  0.06565835128339659  1.0000
  C   C16       1.0  0.2417286352488742  0.3505223272224811  0.9721426557723651  1.0000
  C   C17       1.0  0.28789278806948615  0.4358369412164371  0.8626398547496481  1.0000
  C   C18       1.0  0.32730959502453194  0.5086832882254382  0.769142085540131  1.0000
  H   H5        1.0  0.12012810923888578  0.3720358648246058  0.2943397950443357  1.0000
  H   H6        1.0  0.17793446306741667  0.9903941590937719  0.08153612627135698  1.0000
  H   H7        1.0  0.10006787257052174  0.8410056944169655  0.27265228940544534  1.0000
  H   H8        1.0  0.005910405752506568  0.8857189134118681  0.7394429097494103  1.0000
  H   H9        1.0  0.36192083963904786  0.5726485626578506  0.6870433217505547  1.0000
  C   C19       1.0  0.06625160448462047  0.6006368910822983  0.9750362096022538  1.0000
  C   C20       1.0  0.14819248325662704  0.6157178880457284  0.04701127446454347  1.0000
  C   C21       1.0  0.2290985525977215  0.6172501386456293  0.9715567354509692  1.0000
  C   C22       1.0  0.22948544292529272  0.6035834766108896  0.8232582180267589  1.0000
  C   C23       1.0  0.14893493027375865  0.5909083930945107  0.749337508998953  1.0000
  C   C24       1.0  0.06651049248673369  0.5916043079769875  0.8227684706503178  1.0000
  F   F1        1.0  0.30747670073844047  0.6302775099466478  0.04291784283579391  1.0000
  H   H10       1.0  0.8591786872247702  0.4834077946612556  0.0888559403948761  1.0000
  H   H11       1.0  0.2923022260130472  0.6041871227464377  0.7649394175778328  1.0000
  H   H12       1.0  0.9262863722588195  0.5186143037819482  0.5483379001097917  1.0000
  Zn  Zn1       1.0  0.9682209368333142  0.5961222638699168  0.39890443321335567  1.0000
  Zn  Zn2       1.0  0.16453262098090538  0.5961182276295962  0.3988995908499764  1.0000
  C   C25       1.0  0.06649166149321384  0.5875632740158347  0.6625616209127719  1.0000
  C   C26       1.0  0.06626402992253277  0.6046790365669008  0.13524253441220546  1.0000
  C   C27       1.0  0.0649041373673813  0.8597212075724086  0.3916514486157523  1.0000
  C   C28       1.0  0.06785149675808655  0.33251936857138276  0.406152793525985  1.0000
  O   O1        1.0  0.14076749618693968  0.6060277906950833  0.1890074386766317  1.0000
  O   O2        1.0  0.14098422710090464  0.5862103723521634  0.6087926320933992  1.0000
  O   O3        1.0  0.13970127746504568  0.8059813296349094  0.39003074271977634  1.0000
  O   O4        1.0  0.1420503787442653  0.386256844889036  0.4077692197677393  1.0000
  O   O5        1.0  0.9907031120783996  0.8059836466135062  0.390034804289644  1.0000
  O   O6        1.0  0.9919860520129823  0.5862144237727342  0.6087966068405581  1.0000
  O   O7        1.0  0.991769320909139  0.6060318103233173  0.18900967831700108  1.0000
  O   O8        1.0  0.9930522035534435  0.38626085304360047  0.40777156768467576  1.0000
