data_image0
_chemical_formula_structural       NC12NC2H8C9NC2H9C6OCH7Zn2C4O8
_chemical_formula_sum              "N3 C36 H24 O9 Zn2"
_cell_length_a       17.80743265337812
_cell_length_b       9.273595471060368
_cell_length_c       9.273891588657152
_cell_angle_alpha    86.16288334645276
_cell_angle_beta     91.22048166911064
_cell_angle_gamma    88.84631592348521

_space_group_name_H-M_alt    "P 1"
_space_group_IT_number       1

loop_
  _space_group_symop_operation_xyz
  'x, y, z'

loop_
  _atom_site_type_symbol
  _atom_site_label
  _atom_site_symmetry_multiplicity
  _atom_site_fract_x
  _atom_site_fract_y
  _atom_site_fract_z
  _atom_site_occupancy
  N   N1        1.0  0.7036584115354126  0.5482789937055429  0.4499301493947141  1.0000
  C   C1        1.0  0.6528881841111529  0.580415325316531  0.37373754079985466  1.0000
  C   C2        1.0  0.5897249908271303  0.6203906261941432  0.27896352934893676  1.0000
  C   C3        1.0  0.6015457885822395  0.6791111108217133  0.13853103517822718  1.0000
  C   C4        1.0  0.5402910229825646  0.717440590179238  0.046413680192232576  1.0000
  C   C5        1.0  0.4670617542448  0.6973355420537775  0.09399690331934951  1.0000
  C   C6        1.0  0.4542633553429  0.6384878383221981  0.23494872657202626  1.0000
  C   C7        1.0  0.5163754717886619  0.6001618060326213  0.327047763125514  1.0000
  C   C8        1.0  0.3764631245380712  0.617174253223401  0.2857044221779603  1.0000
  C   C9        1.0  0.3571003651835223  0.64865664876703  0.42672622001535454  1.0000
  C   C10       1.0  0.2838407711522971  0.6285981876020421  0.4743545166503031  1.0000
  C   C11       1.0  0.22899973479127453  0.5767833875940611  0.38189054651123766  1.0000
  C   C12       1.0  0.1536022334411057  0.5561250711827345  0.43107266034249925  1.0000
  N   N2        1.0  0.09298798180652491  0.5395171734673667  0.47061169641940487  1.0000
  C   C13       1.0  0.24767022738354902  0.5451188732720473  0.24147104101164052  1.0000
  C   C14       1.0  0.3208777154087118  0.5651911668138565  0.193558805796747  1.0000
  H   H1        1.0  0.658036126198329  0.6952276081391047  0.10033756315788821  1.0000
  H   H2        1.0  0.5495590797816972  0.7632089602963152  0.937968625748402  1.0000
  H   H3        1.0  0.4204610606499016  0.729588424622369  0.021253321296040406  1.0000
  H   H4        1.0  0.5078144278791069  0.5528534835110157  0.43535270460496744  1.0000
  H   H5        1.0  0.39834166621460626  0.6906162484966911  0.49954735059108857  1.0000
  H   H6        1.0  0.2699472512384564  0.6538546242416429  0.5831476176907313  1.0000
  H   H7        1.0  0.2057031746888689  0.5045710517332453  0.16911001265945513  1.0000
  H   H8        1.0  0.334250963766111  0.5382322345893873  0.08510008578312989  1.0000
  C   C15       1.0  0.9005882971122031  0.12030361887918174  0.45973307404537844  1.0000
  C   C16       1.0  0.8926378434146331  0.20295110201062982  0.32756075033289966  1.0000
  C   C17       1.0  0.8780622707959976  0.13741913749452925  0.19917101564068274  1.0000
  C   C18       1.0  0.8710707266359086  0.9871144404964115  0.19938004909535545  1.0000
  C   C19       1.0  0.880178569837685  0.9032647766106272  0.3306529563081426  1.0000
  C   C20       1.0  0.8960652851661297  0.9674813976517365  0.4608215443810755  1.0000
  C   C21       1.0  0.8550435789894322  0.9177102901512849  0.0625645452643786  1.0000
  C   C22       1.0  0.8918713034883088  0.7878869674164501  0.03280885565948589  1.0000
  C   C23       1.0  0.8759369176527301  0.7246272478768477  0.903397857315352  1.0000
  N   N3        1.0  0.8250432798253728  0.788239438958949  0.8067101378920918  1.0000
  C   C24       1.0  0.7884985907442389  0.9137190935446373  0.8322142311674559  1.0000
  C   C25       1.0  0.8027732076413784  0.9807373579492282  0.9601774174989108  1.0000
  H   H9        1.0  0.9522895016069528  0.38477983643709995  0.6786979426801267  1.0000
  H   H10       1.0  0.8961084059671891  0.31963536800996684  0.32375968884950623  1.0000
  H   H11       1.0  0.8725151509254417  0.2046340049643529  0.09928869220296122  1.0000
  H   H12       1.0  0.8755434903353614  0.7868835875126579  0.33143700538258836  1.0000
  H   H13       1.0  0.9772802490672192  0.8397124888201897  0.7830691575668449  1.0000
  H   H14       1.0  0.933294164300037  0.736839323332043  0.10782984352639025  1.0000
  H   H15       1.0  0.9042533788505503  0.6249493878938032  0.8796666571119038  1.0000
  H   H16       1.0  0.7481518675963554  0.9614380786044174  0.7532005354741926  1.0000
  H   H17       1.0  0.7725433886569703  0.07977097261527444  0.9796708489180612  1.0000
  C   C26       1.0  0.8995778985502281  0.5400445200514068  0.03706245125140217  1.0000
  C   C27       1.0  0.9607745565155984  0.5995869588921409  0.10898252948108132  1.0000
  C   C28       1.0  0.01765244619926198  0.6699965902953285  0.0323066393121878  1.0000
  C   C29       1.0  0.013536505928130712  0.681220624631985  0.8806648453687198  1.0000
  C   C30       1.0  0.9539228027390279  0.6207692467355941  0.8074852872225597  1.0000
  C   C31       1.0  0.8970756911666132  0.5477404730856238  0.8834921563525953  1.0000
  O   O1        1.0  0.07680696908683804  0.7278091796840971  0.11074835977525255  1.0000
  C   C32       1.0  0.13826478763636407  0.802331791342106  0.04705574727714356  1.0000
  H   H18       1.0  0.7213613406556426  0.4554697457466323  0.1384737199664181  1.0000
  H   H19       1.0  0.05651806426304917  0.735328999744217  0.8181123191383923  1.0000
  H   H20       1.0  0.9532769462347829  0.6282172220105042  0.6903814629399427  1.0000
  H   H21       1.0  0.7782624497247219  0.48505585545684604  0.6016355262262154  1.0000
  H   H22       1.0  0.11757795898438016  0.9003993708017793  0.9817143687828631  1.0000
  H   H23       1.0  0.1699707773492778  0.7300368573250894  0.978215043634854  1.0000
  H   H24       1.0  0.17653624896261966  0.8359453278476396  0.13398638251725936  1.0000
  Zn  Zn1       1.0  0.816010514872588  0.5457467460128194  0.4559067006127646  1.0000
  Zn  Zn2       1.0  0.9806359040438949  0.54203776166654  0.4646468854638919  1.0000
  C   C33       1.0  0.8975776782847938  0.5405393401141623  0.7234913646372148  1.0000
  C   C34       1.0  0.8990705282006216  0.5472469483984566  0.1970624606732405  1.0000
  C   C35       1.0  0.8969333606669059  0.8072946572837632  0.45487258489013865  1.0000
  C   C36       1.0  0.8997147986688487  0.2804899001323069  0.4656813120470887  1.0000
  O   O2        1.0  0.9613747609124276  0.5482503158590859  0.25407677196895206  1.0000
  O   O3        1.0  0.9602203138179843  0.5367198473843459  0.6731102351447107  1.0000
  O   O4        1.0  0.9596991725772198  0.7521281721798493  0.45619862719016296  1.0000
  O   O5        1.0  0.9618958462420488  0.33284200166554423  0.47098826889515877  1.0000
  O   O6        1.0  0.8347505164958822  0.754942507281011  0.44956531419132273  1.0000
  O   O7        1.0  0.8352716487077556  0.5395359148492525  0.6664768475289238  1.0000
  O   O8        1.0  0.8364261012427665  0.5510663173016235  0.24744165156485165  1.0000
  O   O9        1.0  0.8369471863049794  0.33565799377331595  0.46435325652922493  1.0000
