data_image0
_chemical_formula_structural       NC6NCNCH5C6BrH5C7NH4Zn2C4O8
_chemical_formula_sum              "N4 C25 H14 Br1 Zn2 O8"
_cell_length_a       14.933214217465613
_cell_length_b       9.276564384272257
_cell_length_c       9.275157849593905
_cell_angle_alpha    86.064957766791
_cell_angle_beta     89.70661770832213
_cell_angle_gamma    90.62004099175812

_space_group_name_H-M_alt    "P 1"
_space_group_IT_number       1

loop_
  _space_group_symop_operation_xyz
  'x, y, z'

loop_
  _atom_site_type_symbol
  _atom_site_label
  _atom_site_symmetry_multiplicity
  _atom_site_fract_x
  _atom_site_fract_y
  _atom_site_fract_z
  _atom_site_occupancy
  N   N1        1.0  0.857637976379798  0.5637881254585357  0.40816558003022285  1.0000
  C   C1        1.0  0.7801567691662498  0.5647752962712662  0.4071744621599569  1.0000
  C   C2        1.0  0.6837696153213515  0.5660060448494372  0.405938660779273  1.0000
  C   C3        1.0  0.6350753613285638  0.471157098456948  0.5011863119557074  1.0000
  C   C4        1.0  0.5415517727053286  0.4722296359208946  0.500109295802792  1.0000
  C   C5        1.0  0.49581958570699775  0.5680967761436444  0.4038392077283528  1.0000
  C   C6        1.0  0.399224903724695  0.5660081816398311  0.40593658860011783  1.0000
  N   N2        1.0  0.3217232839663569  0.5642658288009162  0.40768589451277704  1.0000
  C   C7        1.0  0.5446235892479399  0.6641434073232059  0.3073889664367778  1.0000
  N   N3        1.0  0.5002257362047977  0.7637861962873698  0.2073275953964948  1.0000
  C   C8        1.0  0.6386187596591472  0.6621139602937247  0.3094270617834223  1.0000
  H   H1        1.0  0.6693871212758019  0.39637508262784826  0.5762826363654079  1.0000
  H   H2        1.0  0.5047882964509555  0.398076696828521  0.5745737701537482  1.0000
  H   H3        1.0  0.53722674436724  0.834163506924855  0.1366544072422915  1.0000
  H   H4        1.0  0.43053288344697677  0.7690880430179535  0.20200353402012294  1.0000
  H   H5        1.0  0.6764998302795174  0.735520797248429  0.23571166006698438  1.0000
  C   C9        1.0  0.08698590993511716  0.14054676961073898  0.4082970602188181  1.0000
  C   C10       1.0  0.0758718756071548  0.22276593804007372  0.2765937695136993  1.0000
  C   C11       1.0  0.07308839193628969  0.1565173733296152  0.14611215058574611  1.0000
  C   C12       1.0  0.0814058509403357  0.0071067591560973736  0.144856204486397  1.0000
  C   C13       1.0  0.09094778382578328  0.9231734589577633  0.2745693701872196  1.0000
  C   C14       1.0  0.09238380869015989  0.9874961484827148  0.40756686400282405  1.0000
  Br  Br1       1.0  0.07825784729110685  0.9170211534109457  0.9658119315434569  1.0000
  H   H6        1.0  0.060083117086183746  0.40532819486454635  0.6426175993155014  1.0000
  H   H7        1.0  0.07145946158844119  0.3393940252749019  0.2741311643389075  1.0000
  H   H8        1.0  0.06531701259447598  0.22176271710340867  0.0457373875994713  1.0000
  H   H9        1.0  0.09509963874352678  0.8069078228009877  0.27145803777139155  1.0000
  H   H10       1.0  0.14116685861216105  0.6917756172406523  0.6319675127107878  1.0000
  C   C15       1.0  0.09084711201399977  0.5599464392295168  0.9847365021066796  1.0000
  C   C16       1.0  0.16833070389978055  0.6070377931703544  0.05431223313371891  1.0000
  C   C17       1.0  0.24129294862300224  0.6654640651970607  0.9743087386735633  1.0000
  C   C18       1.0  0.2376237553759959  0.6777275234433295  0.8236430890722537  1.0000
  C   C19       1.0  0.16197380297723496  0.6294703059122915  0.7527249200746672  1.0000
  C   C20       1.0  0.08852262703177383  0.568096470045097  0.8311275006310197  1.0000
  C   C21       1.0  0.3196670238747037  0.7145646207533543  0.04718942338346176  1.0000
  N   N4        1.0  0.38265970824071305  0.754028228948799  0.1057732104731801  1.0000
  H   H11       1.0  0.872654476244812  0.511099327595004  0.09284121847327938  1.0000
  H   H12       1.0  0.2936766662539571  0.723400352313651  0.7607233355639424  1.0000
  H   H13       1.0  0.161824020242737  0.6370518103265473  0.6356541489375463  1.0000
  H   H14       1.0  0.9425145981259364  0.5291545067983474  0.5539050901146072  1.0000
  Zn  Zn1       1.0  0.991562924419924  0.5639221910655126  0.4080354873326046  1.0000
  Zn  Zn2       1.0  0.1877982133616763  0.5641200466026359  0.40782783197119843  1.0000
  C   C22       1.0  0.08892337090349162  0.5608110037299048  0.6711464083410044  1.0000
  C   C23       1.0  0.09043992096955722  0.5672330570192665  0.14471704857289341  1.0000
  C   C24       1.0  0.09137465007253415  0.8273494074096335  0.40196217271489565  1.0000
  C   C25       1.0  0.08798856358571183  0.300692921418312  0.4139013625958805  1.0000
  O   O1        1.0  0.16477349330292843  0.5697473062976492  0.19832918270357666  1.0000
  O   O2        1.0  0.16352783650714842  0.5584458303265434  0.6173762546861726  1.0000
  O   O3        1.0  0.16550626742655172  0.7736789755531203  0.40000807966462004  1.0000
  O   O4        1.0  0.16279499578421974  0.35451417027914456  0.41569724973287714  1.0000
  O   O5        1.0  0.016566075031938077  0.7735280673229824  0.40016606963420676  1.0000
  O   O6        1.0  0.014587655361895102  0.5582966539516101  0.6175341663221632  1.0000
  O   O7        1.0  0.01583331665545629  0.5695980629855738  0.19848536173579243  1.0000
  O   O8        1.0  0.013854818770610683  0.3543649176929755  0.4158535368206262  1.0000
