data_image0
_chemical_formula_structural       NC8NC6H8C12H9C6NO2H3Zn2C4O8
_chemical_formula_sum              "N3 C36 H20 O10 Zn2"
_cell_length_a       17.457602349358154
_cell_length_b       10.299137764757564
_cell_length_c       9.273395971720356
_cell_angle_alpha    84.94328469474783
_cell_angle_beta     92.78021970675468
_cell_angle_gamma    91.70779885892506

_space_group_name_H-M_alt    "P 1"
_space_group_IT_number       1

loop_
  _space_group_symop_operation_xyz
  'x, y, z'

loop_
  _atom_site_type_symbol
  _atom_site_label
  _atom_site_symmetry_multiplicity
  _atom_site_fract_x
  _atom_site_fract_y
  _atom_site_fract_z
  _atom_site_occupancy
  N   N1        1.0  0.7242818544401673  0.46739942967825243  0.472784115571194  1.0000
  C   C1        1.0  0.6632071851474604  0.42158181366946995  0.4610019212696599  1.0000
  C   C2        1.0  0.5872277036808339  0.36459031391409286  0.446355475470364  1.0000
  C   C3        1.0  0.5286209795597445  0.4039682374566167  0.5295905068124336  1.0000
  C   C4        1.0  0.454079287200487  0.34908872539195435  0.5156262188031804  1.0000
  C   C5        1.0  0.3918770313424279  0.39066350491543717  0.6037753222555591  1.0000
  C   C6        1.0  0.3173978958463757  0.4097197880604284  0.5417860923856945  1.0000
  C   C7        1.0  0.2587910094074601  0.4489126351091734  0.6251411860165093  1.0000
  C   C8        1.0  0.18287637664785703  0.4685981164295201  0.5606891983499496  1.0000
  N   N2        1.0  0.12185392700555012  0.48441886156920905  0.5088699705745787  1.0000
  C   C9        1.0  0.2741705598025742  0.4692870154102944  0.7710506447369379  1.0000
  C   C10       1.0  0.3478646222848743  0.45061567788257995  0.8334705502160078  1.0000
  C   C11       1.0  0.40645941385562795  0.4115980886106989  0.7506241546238197  1.0000
  C   C12       1.0  0.43943447653787926  0.25416887623680884  0.4168344376126938  1.0000
  C   C13       1.0  0.4980290778839536  0.21506545157101398  0.3340439122775414  1.0000
  C   C14       1.0  0.5717853957454975  0.2700515671464637  0.34861943772999315  1.0000
  H   H1        1.0  0.5409032005666881  0.4784686125670925  0.6036233751140716  1.0000
  H   H2        1.0  0.3051669843452267  0.3958208416866908  0.42838954873237345  1.0000
  H   H3        1.0  0.2292481108555473  0.4995539095676027  0.8364361365969388  1.0000
  H   H4        1.0  0.3595825529781457  0.4660763449487992  0.9464516175874972  1.0000
  H   H5        1.0  0.4628892483909242  0.3961202283961316  0.8018780591263477  1.0000
  H   H6        1.0  0.3829532410832148  0.20894135956561846  0.4050118753762566  1.0000
  H   H7        1.0  0.4862622574119131  0.14169423407226867  0.25867866360925196  1.0000
  H   H8        1.0  0.6167071337590343  0.23890952538833374  0.28380240064249773  1.0000
  C   C15       1.0  0.9229975579402094  0.09450473936852034  0.49097803742671714  1.0000
  C   C16       1.0  0.9231203659993338  0.10579335626389906  0.33897914459803213  1.0000
  C   C17       1.0  0.9232586248457766  0.9943901204256311  0.2617608685547146  1.0000
  C   C18       1.0  0.9232723696415472  0.8705484086380134  0.3385959563128489  1.0000
  C   C19       1.0  0.9231455330283895  0.8573037217840198  0.4906892178342534  1.0000
  C   C20       1.0  0.9230101941479633  0.9698082999359493  0.5659440252404071  1.0000
  C   C21       1.0  0.9233876351200938  0.007377236461712844  0.10096097476829202  1.0000
  C   C22       1.0  0.969734980982374  0.9277773722153614  0.027505551929390977  1.0000
  C   C23       1.0  0.9697610739230959  0.9402483566869667  0.876137169138234  1.0000
  C   C24       1.0  0.9236340349574428  0.03197074468520933  0.7965306146226561  1.0000
  C   C25       1.0  0.8773846791053289  0.11147801119016142  0.8681306172613659  1.0000
  C   C26       1.0  0.8771656934606893  0.09949365695518343  0.019482467541622746  1.0000
  H   H9        1.0  0.9241703875571815  0.20151722265604619  0.2803806279969052  1.0000
  H   H10       1.0  0.9223217414964936  0.7842936487695528  0.27954186349693555  1.0000
  H   H11       1.0  0.9229133693213992  0.9603855112793398  0.6831840685392108  1.0000
  H   H12       1.0  0.9224183359529008  0.6249926220890802  0.7777129955750486  1.0000
  H   H13       1.0  0.006652387793786969  0.8571640098125151  0.08712748319081043  1.0000
  H   H14       1.0  0.005738822266627483  0.8789335633334009  0.8205394639358023  1.0000
  H   H15       1.0  0.9237289499798089  0.04143588793284936  0.6793679060587925  1.0000
  H   H16       1.0  0.8415020705047651  0.18227907786982553  0.8063030757550105  1.0000
  H   H17       1.0  0.8401572265851589  0.16099342923568827  0.07268845393381729  1.0000
  C   C27       1.0  0.92350888175179  0.47991292823245946  0.06693501958660031  1.0000
  C   C28       1.0  0.8551402283127885  0.5066309061223253  0.13130445083147602  1.0000
  C   C29       1.0  0.7865544617017208  0.5210587313412183  0.04864291958676148  1.0000
  C   C30       1.0  0.7843915565381684  0.5090340465187164  0.8991566927380257  1.0000
  C   C31       1.0  0.8527196465458754  0.48453979867608443  0.8333450198804  1.0000
  C   C32       1.0  0.922634195513795  0.4718955304608934  0.9147322395473023  1.0000
  N   N3        1.0  0.7132778786505005  0.5229208250172768  0.814557801197501  1.0000
  O   O1        1.0  0.6466156786645938  0.5479795342393242  0.8792707000346317  1.0000
  O   O2        1.0  0.7108326755811315  0.5121126251056851  0.6813445604146868  1.0000
  H   H18       1.0  0.09134529502893551  0.34159515662291073  0.19864840249694904  1.0000
  H   H19       1.0  0.7349299176983382  0.5403850854000263  0.10233163602683404  1.0000
  H   H20       1.0  0.03706969456123411  0.38263098913729987  0.6537070866475156  1.0000
  Zn  Zn1       1.0  0.8390125573108332  0.4723073082357927  0.4832060498330586  1.0000
  Zn  Zn2       1.0  0.007123195626309151  0.4795002224366096  0.49845985859577197  1.0000
  C   C33       1.0  0.9227968301321549  0.4682367597075454  0.7544821982215912  1.0000
  C   C34       1.0  0.9233407587396786  0.4835724869438274  0.22718401783914755  1.0000
  C   C35       1.0  0.9231195539188911  0.7131727076481227  0.48499113990366594  1.0000
  C   C36       1.0  0.9230179772064079  0.2386349753729151  0.49667514850289973  1.0000
  O   O3        1.0  0.9870814451465121  0.4875246754610185  0.28675378862048784  1.0000
  O   O4        1.0  0.9866482286300042  0.46974285075181105  0.7064893001762711  1.0000
  O   O5        1.0  0.9869079706050775  0.6675316753600606  0.4888732853431068  1.0000
  O   O6        1.0  0.9868216459201323  0.28973585871294105  0.5043696900112984  1.0000
  O   O7        1.0  0.8593140496491082  0.6620716695063584  0.4772962132045624  1.0000
  O   O8        1.0  0.859054308052667  0.464284406075341  0.6949121504789295  1.0000
  O   O9        1.0  0.859487526401945  0.4820662019389508  0.2751749034191837  1.0000
  O   O10       1.0  0.8592277270589698  0.28427737487759797  0.49279091303937794  1.0000
