data_image0
_chemical_formula_structural       NC5N2C2NH4C6ClH5C7NH3Zn2C4O8
_chemical_formula_sum              "N5 C24 H12 Cl1 Zn2 O8"
_cell_length_a       13.87973921873968
_cell_length_b       9.276545438789551
_cell_length_c       9.275157849593905
_cell_angle_alpha    86.141431454383
_cell_angle_beta     89.74088206282475
_cell_angle_gamma    89.40960813042831

_space_group_name_H-M_alt    "P 1"
_space_group_IT_number       1

loop_
  _space_group_symop_operation_xyz
  'x, y, z'

loop_
  _atom_site_type_symbol
  _atom_site_label
  _atom_site_symmetry_multiplicity
  _atom_site_fract_x
  _atom_site_fract_y
  _atom_site_fract_z
  _atom_site_occupancy
  N   N1        1.0  0.9012726402212966  0.5627577399384891  0.4112888378157562  1.0000
  C   C1        1.0  0.8281693801756614  0.5867450123243456  0.3546789261350547  1.0000
  C   C2        1.0  0.7373778066452434  0.6165395442537956  0.2843632982276494  1.0000
  C   C3        1.0  0.650923514282122  0.586552020747503  0.35752527844126836  1.0000
  C   C4        1.0  0.5644984058143193  0.6165394800181918  0.2843633380827608  1.0000
  C   C5        1.0  0.47369225975430373  0.5867448666491996  0.35467882284923147  1.0000
  N   N2        1.0  0.40057720927763296  0.5627577152127221  0.4112888268106769  1.0000
  N   N3        1.0  0.5661612138108206  0.6738367531796303  0.1456761324975493  1.0000
  C   C6        1.0  0.6509652455814114  0.703789010045194  0.0765563861535179  1.0000
  C   C7        1.0  0.6510232696526701  0.7628171734426268  0.9228809115872014  1.0000
  N   N4        1.0  0.7357641127605193  0.6738367066257356  0.14567614321844435  1.0000
  H   H1        1.0  0.6509048245902932  0.5407037474930565  0.46820011123666583  1.0000
  H   H2        1.0  0.7156268619136243  0.8304643305219783  0.900530327616901  1.0000
  H   H3        1.0  0.6518666223027428  0.6721911146515447  0.8506255567161043  1.0000
  H   H4        1.0  0.5856220581692264  0.8304622596976874  0.9005295605817129  1.0000
  C   C8        1.0  0.15383801030219543  0.139320286801627  0.41105127366613603  1.0000
  C   C9        1.0  0.1546042670274146  0.2216906875933187  0.27803484694208636  1.0000
  C   C10       1.0  0.14659643882837736  0.1553581118138756  0.1479135463008341  1.0000
  C   C11       1.0  0.13762947153210647  0.005775572760616799  0.1488067881013031  1.0000
  C   C12       1.0  0.13835701653336097  0.9218432425077001  0.27938169665709567  1.0000
  C   C13       1.0  0.1480211106448801  0.9861842110017696  0.4115388741280994  1.0000
  Cl  Cl1       1.0  0.1463466499764634  0.2603949838381716  0.9833872091567822  1.0000
  H   H5        1.0  0.2024287432197615  0.40446142003521945  0.6376259011296135  1.0000
  H   H6        1.0  0.1591273367643049  0.3383837734191375  0.2751815934414019  1.0000
  H   H7        1.0  0.13101278822047902  0.9540844355721111  0.048137180177721284  1.0000
  H   H8        1.0  0.13365481736568574  0.805557255387737  0.2767316839106033  1.0000
  H   H9        1.0  0.11502046218612305  0.6896929831752208  0.6445739303848446  1.0000
  C   C14       1.0  0.15223595376178567  0.5586763830292578  0.9880949505180671  1.0000
  C   C15       1.0  0.2349545039592706  0.6056835397103768  0.05781804800206958  1.0000
  C   C16       1.0  0.3126529458921367  0.6640291979012249  0.977973476310711  1.0000
  C   C17       1.0  0.3085369288424027  0.6762952748097042  0.8273215914444343  1.0000
  C   C18       1.0  0.2278071999561635  0.6281204773215099  0.756256279841832  1.0000
  C   C19       1.0  0.14962317094459232  0.5668280368340748  0.8344952144272786  1.0000
  C   C20       1.0  0.39630199382502984  0.7130444499503601  0.051005322115422295  1.0000
  N   N5        1.0  0.46353441437660003  0.7524394960355056  0.10971060306239445  1.0000
  H   H10       1.0  0.9181521124124246  0.5100584609669103  0.09590456553562343  1.0000
  H   H11       1.0  0.36821759830377077  0.7219060981510477  0.7645250561516299  1.0000
  H   H12       1.0  0.22754199059267188  0.6357014200651916  0.6391962048595285  1.0000
  Zn  Zn1       1.0  0.045361155178477164  0.562753948966334  0.4112971573413644  1.0000
  Zn  Zn2       1.0  0.2564887246133669  0.5627498082069036  0.41129231433173996  1.0000
  C   C21       1.0  0.1501543271611041  0.5595428459330274  0.6745041086860426  1.0000
  C   C22       1.0  0.15169784520370122  0.5659627319319742  0.14808550542955312  1.0000
  C   C23       1.0  0.14913337853194064  0.8260535603749877  0.4057038759727092  1.0000
  C   C24       1.0  0.15271873345220532  0.2994502858128174  0.41688581398029334  1.0000
  O   O1        1.0  0.23163910656551123  0.5684002350628756  0.20177795567077683  1.0000
  O   O2        1.0  0.23045401459341797  0.5571011082709987  0.6208075672341933  1.0000
  O   O3        1.0  0.2296285009575374  0.7723118951241399  0.4037494783999489  1.0000
  O   O4        1.0  0.23246454842056585  0.353189457485485  0.4188359364572125  1.0000
  O   O5        1.0  0.06938525932381334  0.7723142996906625  0.4037535352099648  1.0000
  O   O6        1.0  0.07021076129288885  0.5571052445176274  0.6208115482008751  1.0000
  O   O7        1.0  0.07139585902288581  0.5684043043740528  0.20178020394252494  1.0000
  O   O8        1.0  0.07222130061130194  0.353193517523821  0.41883829277084317  1.0000
