data_image0
_chemical_formula_structural       NC8NH4C6NH7C6ClH5Zn2C4O8
_chemical_formula_sum              "N3 C24 H16 Cl1 Zn2 O8"
_cell_length_a       13.859017124695912
_cell_length_b       9.274771166103582
_cell_length_c       10.302974078461048
_cell_angle_alpha    85.4557754151483
_cell_angle_beta     89.99985762628332
_cell_angle_gamma    90.59707951677755

_space_group_name_H-M_alt    "P 1"
_space_group_IT_number       1

loop_
  _space_group_symop_operation_xyz
  'x, y, z'

loop_
  _atom_site_type_symbol
  _atom_site_label
  _atom_site_symmetry_multiplicity
  _atom_site_fract_x
  _atom_site_fract_y
  _atom_site_fract_z
  _atom_site_occupancy
  N   N1        1.0  0.9196013999799518  0.5786609790228814  0.5653643983601412  1.0000
  C   C1        1.0  0.8470875307489383  0.5557964284275323  0.5148152216697  1.0000
  C   C2        1.0  0.7568845966637949  0.5273562734016359  0.45193854181129384  1.0000
  C   C3        1.0  0.6694626507544457  0.5550825476797696  0.5132353926822575  1.0000
  C   C4        1.0  0.5816542853554976  0.5273574995174228  0.45193801800986844  1.0000
  C   C5        1.0  0.5814502225269811  0.4718986755009511  0.3293249752851608  1.0000
  C   C6        1.0  0.6686903509133543  0.44427896568820807  0.26826407266570734  1.0000
  C   C7        1.0  0.7563155650115144  0.47189632548305593  0.32932604051003045  1.0000
  C   C8        1.0  0.491847698494576  0.5557973552018463  0.5148147715735569  1.0000
  N   N2        1.0  0.41965252781890316  0.5786613017098078  0.565364203266454  1.0000
  H   H1        1.0  0.6697618091642699  0.5980098441658214  0.608140823927664  1.0000
  H   H2        1.0  0.5140027092009574  0.45007707689462695  0.2810776402135513  1.0000
  H   H3        1.0  0.6683918696170957  0.40143935531160535  0.1735508397102863  1.0000
  H   H4        1.0  0.8234588947762805  0.45007262564797307  0.2810796089161558  1.0000
  C   C9        1.0  0.1666692623245265  0.1550646011821466  0.5660719480153047  1.0000
  C   C10       1.0  0.144465979232  0.2383733410940072  0.4499738799688047  1.0000
  C   C11       1.0  0.13127151226168676  0.17332395026461023  0.33313921675091157  1.0000
  C   C12       1.0  0.14033091334135284  0.0235883465864517  0.3315563771466523  1.0000
  C   C13       1.0  0.16074995051720475  0.9389601773811591  0.4460595977069755  1.0000
  C   C14       1.0  0.17259383353834035  0.0022466441981601045  0.5646679445286212  1.0000
  N   N3        1.0  0.10966105222402045  0.25973218862053843  0.2157651633663875  1.0000
  H   H5        1.0  0.2752594676334299  0.2347249833986198  0.8501996189720131  1.0000
  H   H6        1.0  0.13960088254473413  0.35496604575041846  0.4494751836722291  1.0000
  H   H7        1.0  0.13063578053006264  0.9721011202766207  0.2416638911168736  1.0000
  H   H8        1.0  0.16500222738699602  0.822796165196976  0.4423414434422617  1.0000
  H   H9        1.0  0.24182291968916148  0.7051803737805866  0.7579753628494639  1.0000
  H   H10       1.0  0.10301307624246436  0.3718060851452072  0.21572299852074053  1.0000
  H   H11       1.0  0.10005675533369551  0.21226217002820616  0.12800773088524078  1.0000
  C   C15       1.0  0.1696315493668015  0.5786556238399738  0.184127439277741  1.0000
  C   C16       1.0  0.15179982641553735  0.4288347399233779  0.19360941156559466  1.0000
  C   C17       1.0  0.14295226129099525  0.3544976979983956  0.08135731641141097  1.0000
  C   C18       1.0  0.15179987013963037  0.4288348213886587  0.9585015124594618  1.0000
  C   C19       1.0  0.16963154638490452  0.5786555493803385  0.9466124584745633  1.0000
  C   C20       1.0  0.17846050369355693  0.6528357086752874  0.06007929620934238  1.0000
  Cl  Cl1       1.0  0.12067620625778064  0.1673358217253922  0.0947060951447003  1.0000
  H   H12       1.0  0.17634900799142805  0.6350905649058853  0.5078586830638654  1.0000
  H   H13       1.0  0.14470774691496893  0.36924747576709804  0.2879058430833885  1.0000
  H   H14       1.0  0.14470781419650258  0.3692474551840456  0.8727048770435705  1.0000
  H   H15       1.0  0.19221282036170728  0.7683820711761065  0.05183818955288744  1.0000
  H   H16       1.0  0.17634882429788856  0.6350905521407508  0.6148310526037082  1.0000
  Zn  Zn1       1.0  0.06390532985129327  0.5786572208858152  0.565371849611923  1.0000
  Zn  Zn2       1.0  0.27534850802243205  0.578653292888693  0.5653674196625669  1.0000
  C   C21       1.0  0.16958919425044439  0.5729090494856932  0.8024959599566964  1.0000
  C   C22       1.0  0.169666965304333  0.5844032843040519  0.32824343367724085  1.0000
  C   C23       1.0  0.17146898529127408  0.8421111741482856  0.5597598525766322  1.0000
  C   C24       1.0  0.1677870899929339  0.3151994265734277  0.5709796131467023  1.0000
  O   O1        1.0  0.24992039137790734  0.5863244679179488  0.37660840720039457  1.0000
  O   O2        1.0  0.24981624033658267  0.5709837964091755  0.754127252285852  1.0000
  O   O3        1.0  0.25133311368028877  0.7883679166197743  0.5581161257151435  1.0000
  O   O4        1.0  0.24840344595513209  0.3689403580275917  0.5726194364131241  1.0000
  O   O5        1.0  0.0908503197634245  0.788370155749827  0.5581198328560456  1.0000
  O   O6        1.0  0.08933345853511931  0.5709877686101708  0.7541308873320363  1.0000
  O   O7        1.0  0.08943760928912292  0.5863283898520275  0.3766104814467944  1.0000
  O   O8        1.0  0.08792066379024877  0.368944269644339  0.5726216080121834  1.0000
