data_image0
_chemical_formula_structural       NC8NC6H8C6OCH6C10OC3H11Zn2C4O8
_chemical_formula_sum              "N2 C38 H25 O10 Zn2"
_cell_length_a       17.457602349358154
_cell_length_b       10.300308824427217
_cell_length_c       10.299151058433395
_cell_angle_alpha    85.57987126722401
_cell_angle_beta     92.85142871943061
_cell_angle_gamma    91.68596496717343

_space_group_name_H-M_alt    "P 1"
_space_group_IT_number       1

loop_
  _space_group_symop_operation_xyz
  'x, y, z'

loop_
  _atom_site_type_symbol
  _atom_site_label
  _atom_site_symmetry_multiplicity
  _atom_site_fract_x
  _atom_site_fract_y
  _atom_site_fract_z
  _atom_site_occupancy
  N   N1        1.0  0.7227393709369678  0.4524160282450857  0.6266435682325233  1.0000
  C   C1        1.0  0.6616649522457404  0.40649185545587246  0.6160233805894995  1.0000
  C   C2        1.0  0.5856857898767024  0.3493679006002785  0.6028214096936682  1.0000
  C   C3        1.0  0.5271377522571588  0.3895435590464489  0.6777231255993779  1.0000
  C   C4        1.0  0.452596479473807  0.334537846762692  0.6651357988860366  1.0000
  C   C5        1.0  0.3904564020913222  0.37695747850759104  0.7444595444210655  1.0000
  C   C6        1.0  0.31592327113054497  0.3954119965232542  0.6886977070026559  1.0000
  C   C7        1.0  0.2573752072811237  0.4354037674247714  0.7637073590221726  1.0000
  C   C8        1.0  0.1814044610767329  0.45446359643585366  0.7057301147099937  1.0000
  N   N2        1.0  0.12033689771914138  0.4697813197732991  0.659116560714081  1.0000
  C   C9        1.0  0.2728679804730447  0.4571842577074051  0.8949873906134598  1.0000
  C   C10       1.0  0.3466163035447265  0.43911878429829687  0.9511368645607821  1.0000
  C   C11       1.0  0.4051526451018241  0.399307156943762  0.8765849522009705  1.0000
  C   C12       1.0  0.4378922597441164  0.23867878574385168  0.5762137681299537  1.0000
  C   C13       1.0  0.4964284743428147  0.19878187621997528  0.5017120833116298  1.0000
  C   C14       1.0  0.5701848424170867  0.2539000790667946  0.5148493718151059  1.0000
  H   H1        1.0  0.539463776962409  0.46474723055861045  0.7443612455797617  1.0000
  H   H2        1.0  0.3036039546271925  0.3804199566696769  0.5866715707330723  1.0000
  H   H3        1.0  0.22799177459737452  0.4880779199839484  0.9538263336793  1.0000
  H   H4        1.0  0.3584219723987277  0.45566828476451926  0.05278989019289303  1.0000
  H   H5        1.0  0.4616270649709995  0.3843268038673149  0.9226900488441907  1.0000
  H   H6        1.0  0.38141111688172313  0.19334422904547963  0.5655575205552386  1.0000
  H   H7        1.0  0.48461653659067044  0.12469431432415588  0.4338757476409351  1.0000
  H   H8        1.0  0.6150609814503719  0.22213689828743427  0.45652147063326043  1.0000
  C   C15       1.0  0.9215490296142286  0.07975605213920757  0.6428490915391106  1.0000
  C   C16       1.0  0.9467097015570316  0.08981454196021564  0.5149207081484175  1.0000
  C   C17       1.0  0.9593700353147725  0.9772964213030993  0.45055001831559816  1.0000
  C   C18       1.0  0.9466800964312547  0.8546552404773862  0.5150716337376595  1.0000
  C   C19       1.0  0.9215345842864684  0.8424315701121016  0.6429228526986593  1.0000
  C   C20       1.0  0.909099862270992  0.9556050726755193  0.7061464763127637  1.0000
  O   O1        1.0  0.9844847833603014  0.9830348482321638  0.3228556661386272  1.0000
  C   C21       1.0  0.9997421091489618  0.1005523802384389  0.2452811958615062  1.0000
  H   H9        1.0  0.9563689239632364  0.1850774586526582  0.46580848680667203  1.0000
  H   H10       1.0  0.9566282280378269  0.7687780206148401  0.46449105903239696  1.0000
  H   H11       1.0  0.889698408999639  0.9470453002625406  0.8047924277335952  1.0000
  H   H12       1.0  0.9469085582847508  0.15832379328366142  0.22983468587879807  1.0000
  H   H13       1.0  0.01867133631673501  0.07621838860052742  0.14903649224766258  1.0000
  H   H14       1.0  0.046180171823743565  0.1583870157320968  0.2932465021009265  1.0000
  C   C22       1.0  0.9216367551837713  0.46100747035948525  0.2615166781832456  1.0000
  C   C23       1.0  0.8432631618095474  0.4259597776232833  0.25682876140172056  1.0000
  C   C24       1.0  0.8034273721357458  0.4082808233599315  0.13729369856995688  1.0000
  C   C25       1.0  0.8430234428543246  0.4261179069549749  0.021512827605423494  1.0000
  C   C26       1.0  0.9214468670325426  0.46118015230506926  0.02425526150663137  1.0000
  C   C27       1.0  0.9602705280735497  0.4784119033536464  0.14468496125877905  1.0000
  C   C28       1.0  0.7205141438407336  0.37120705493599715  0.1333785487834449  1.0000
  C   C29       1.0  0.6913973134197662  0.2774060403643927  0.22587706098452087  1.0000
  C   C30       1.0  0.6133785612832335  0.242600381105565  0.22202209951186244  1.0000
  C   C31       1.0  0.5629720661063128  0.300480750144592  0.12625459225167668  1.0000
  O   O2        1.0  0.4851999898280854  0.2621731468478554  0.12665162154683382  1.0000
  C   C32       1.0  0.4277117565671869  0.31282891385705097  0.03520979705788729  1.0000
  C   C33       1.0  0.5917814576781641  0.3944664425491857  0.0334563752956738  1.0000
  C   C34       1.0  0.6698161582796118  0.42932943065935236  0.037107283073075197  1.0000
  H   H15       1.0  0.8127679511657616  0.41406539637724116  0.34619195767047084  1.0000
  H   H16       1.0  0.8128476065610515  0.4108871483443402  0.929250808856854  1.0000
  H   H17       1.0  0.020722584092373486  0.5054413318262976  0.1475855702003905  1.0000
  H   H18       1.0  0.0695792403135842  0.5265560756259416  0.8222103666264649  1.0000
  H   H19       1.0  0.729129787500724  0.22968621253473961  0.3002133296949878  1.0000
  H   H20       1.0  0.5919629908158439  0.1698973022782655  0.2937665627294068  1.0000
  H   H21       1.0  0.37161686401138233  0.2654960256089196  0.05828110154257904  1.0000
  H   H22       1.0  0.4413861707085476  0.2917493715706425  0.9349164940344331  1.0000
  H   H23       1.0  0.4234141226677189  0.41949291363316543  0.04150641215846451  1.0000
  H   H24       1.0  0.5543689634362207  0.44138644927949916  0.958330744923896  1.0000
  H   H25       1.0  0.6903537279302362  0.5030853948884094  0.9655616930832478  1.0000
  Zn  Zn1       1.0  0.8374774268182942  0.45742379550340884  0.6360220705467029  1.0000
  Zn  Zn2       1.0  0.005598825142403288  0.46476290783276664  0.6497486899082127  1.0000
  C   C35       1.0  0.921481125375877  0.4559741342808367  0.8800807109582846  1.0000
  C   C36       1.0  0.921596962402456  0.46621428773429846  0.40569032701596214  1.0000
  C   C37       1.0  0.9215346411137052  0.698268339839343  0.6377334216006967  1.0000
  C   C38       1.0  0.9215433893088901  0.2239185194915583  0.6480376807773948  1.0000
  O   O3        1.0  0.9853848021809284  0.47074123273813323  0.45928550056956724  1.0000
  O   O4        1.0  0.9852935369727064  0.4570164259795141  0.8369033499465377  1.0000
  O   O5        1.0  0.9853358912009532  0.652672023957007  0.6412061290503561  1.0000
  O   O6        1.0  0.9853423906083059  0.2750856415238352  0.6549826194079156  1.0000
  O   O7        1.0  0.8577338039808119  0.6471010593092741  0.6307881363559475  1.0000
  O   O8        1.0  0.8576914497367221  0.45144702151294813  0.8264852881572315  1.0000
  O   O9        1.0  0.8577827153855981  0.4651717826673818  0.44886587737778494  1.0000
  O   O10       1.0  0.8577403037857708  0.26951618218682216  0.6445630935829139  1.0000
