data_image0
_chemical_formula_structural       NC10NC4H10C6NCONH8C7OIH5Zn2C4O8
_chemical_formula_sum              "N4 C32 H23 O10 I1 Zn2"
_cell_length_a       19.28451875052605
_cell_length_b       10.300273812906134
_cell_length_c       10.297413674417344
_cell_angle_alpha    85.55128198850484
_cell_angle_beta     89.87971551463893
_cell_angle_gamma    90.0788930176182

_space_group_name_H-M_alt    "P 1"
_space_group_IT_number       1

loop_
  _space_group_symop_operation_xyz
  'x, y, z'

loop_
  _atom_site_type_symbol
  _atom_site_label
  _atom_site_symmetry_multiplicity
  _atom_site_fract_x
  _atom_site_fract_y
  _atom_site_fract_z
  _atom_site_occupancy
  N   N1        1.0  0.6524800933144359  0.4237889950669529  0.56408067959994  1.0000
  C   C1        1.0  0.5924885583530342  0.42228495978110164  0.5667607194087806  1.0000
  C   C2        1.0  0.5178109658822037  0.42045309743223763  0.5701422328498279  1.0000
  C   C3        1.0  0.4824189936555355  0.3549814778458206  0.484448342364409  1.0000
  C   C4        1.0  0.4059228944201965  0.35274963801367093  0.4862936929111043  1.0000
  C   C5        1.0  0.3696750339665989  0.43187818891334656  0.5593700595036978  1.0000
  C   C6        1.0  0.2925389409672332  0.4300987028242327  0.5592548493776042  1.0000
  C   C7        1.0  0.2558546417545127  0.31182767649930465  0.5585824456872783  1.0000
  C   C8        1.0  0.18335640884623364  0.31068577756841337  0.5593118216940064  1.0000
  C   C9        1.0  0.1464992497386749  0.4274535396255199  0.5610202133646769  1.0000
  C   C10       1.0  0.0718559008241197  0.42614973444009707  0.5617786281775154  1.0000
  N   N2        1.0  0.011848126448484602  0.42510176072180433  0.5623884349269572  1.0000
  C   C11       1.0  0.1824166179965616  0.5454699591982086  0.5622630827984607  1.0000
  C   C12       1.0  0.2549160039812537  0.5468743267297502  0.5616251833866233  1.0000
  C   C13       1.0  0.40826648509640184  0.5325918703855577  0.6314034644594619  1.0000
  C   C14       1.0  0.47996167659783967  0.4830599533695005  0.6771942815760376  1.0000
  H   H1        1.0  0.5094764225493398  0.30306441328847855  0.4120668933639875  1.0000
  H   H2        1.0  0.3796554928361996  0.287348192905309  0.4251970780374954  1.0000
  H   H3        1.0  0.2831851935791416  0.22002714846977822  0.5593254531667518  1.0000
  H   H4        1.0  0.15607396744506402  0.21868333836042583  0.5590028099923083  1.0000
  H   H5        1.0  0.15439630642515692  0.6364657522119082  0.5635576345183757  1.0000
  H   H6        1.0  0.2814778463894322  0.639541808078314  0.5615179108702151  1.0000
  H   H7        1.0  0.37793470498786336  0.5578912366406179  0.7177897262390931  1.0000
  H   H8        1.0  0.4147593594884646  0.6222412615290833  0.5651219841851443  1.0000
  H   H9        1.0  0.4733362408928862  0.4094012284278909  0.7610904757587301  1.0000
  H   H10       1.0  0.5107075186052736  0.5655370359239482  0.7105613630163603  1.0000
  C   C15       1.0  0.8322386613156999  0.04309752440858784  0.5632503413475479  1.0000
  C   C16       1.0  0.8484719120164735  0.05243084089202265  0.42982135671017174  1.0000
  C   C17       1.0  0.8576008124021262  0.9398293486007286  0.36298363320458416  1.0000
  C   C18       1.0  0.8483117383801078  0.817273627050141  0.429836578802296  1.0000
  C   C19       1.0  0.8320962134022456  0.8057832821204551  0.5632299310870688  1.0000
  C   C20       1.0  0.824407339079134  0.9192965745041076  0.6293434144164819  1.0000
  N   N3        1.0  0.873132829033425  0.9477999292168875  0.22591853259769218  1.0000
  C   C21       1.0  0.9168249997972983  0.04561464688136785  0.1611241780218151  1.0000
  O   O1        1.0  0.953032428201482  0.11962656348745651  0.22559896423353074  1.0000
  N   N4        1.0  0.9211539071026478  0.05683990910579206  0.022370991184292862  1.0000
  H   H11       1.0  0.8250518161615599  0.367003110399401  0.6135540523276758  1.0000
  H   H12       1.0  0.8526378292198268  0.1472673727077216  0.37733985225025546  1.0000
  H   H13       1.0  0.8543976045334601  0.7308961077149011  0.37725200795806657  1.0000
  H   H14       1.0  0.8119061598412602  0.9112884286887706  0.732259743301571  1.0000
  H   H15       1.0  0.8249211504388428  0.4740525847256977  0.613343025870591  1.0000
  H   H16       1.0  0.8554891880498452  0.8728941451795484  0.17148930057202166  1.0000
  H   H17       1.0  0.8919111335873274  0.9958954685052576  0.9672525060956052  1.0000
  H   H18       1.0  0.9534666165396922  0.1266144755245022  0.9745016529180726  1.0000
  C   C22       1.0  0.8321132414573836  0.4244925806228849  0.1817879709550605  1.0000
  C   C23       1.0  0.7673003921534887  0.4868062747211752  0.17602036872008742  1.0000
  C   C24       1.0  0.7343829730322682  0.5184543205083711  0.05597578837977601  1.0000
  C   C25       1.0  0.7674253470378195  0.4866859986758263  0.9408319502720807  1.0000
  C   C26       1.0  0.8322216441305391  0.4243881715260933  0.9446923683492627  1.0000
  C   C27       1.0  0.864168670396607  0.39367309115899224  0.06563278774226777  1.0000
  C   C28       1.0  0.6658455476216268  0.5843488444949656  0.05241553245117814  1.0000
  O   O2        1.0  0.6371609388459895  0.6119267372202806  0.15681381180931694  1.0000
  I   I1        1.0  0.6117252993610711  0.6363832457510477  0.8772183140852041  1.0000
  H   H19       1.0  0.9544851634618338  0.3068382395331126  0.39989176389701653  1.0000
  H   H20       1.0  0.7423936911038187  0.5107526532023354  0.26544898154260727  1.0000
  H   H21       1.0  0.7430163095327682  0.5101535754538523  0.8476395972002  1.0000
  H   H22       1.0  0.9141292297336931  0.34563902506703204  0.06927175326691025  1.0000
  H   H23       1.0  0.8573063505164303  0.4002710826651685  0.6186308074350361  1.0000
  Zn  Zn1       1.0  0.7561859529504847  0.42416434927862445  0.5635998274957036  1.0000
  Zn  Zn2       1.0  0.9081422792815487  0.4247157651161893  0.5628798989867476  1.0000
  C   C29       1.0  0.8322005606624835  0.41923451747168894  0.8004872087810154  1.0000
  C   C30       1.0  0.8321293306399848  0.4296472414561885  0.32599263729031236  1.0000
  C   C31       1.0  0.8321188319343219  0.6616200991459094  0.5580575205217642  1.0000
  C   C32       1.0  0.8322110078173228  0.18726009936794227  0.5684223950906835  1.0000
  O   O3        1.0  0.8898013652903941  0.4315807867284356  0.37411583167257273  1.0000
  O   O4        1.0  0.8898598617971532  0.41771850444404635  0.7518172314170075  1.0000
  O   O5        1.0  0.8897930876336494  0.6134479240242889  0.5560535465643405  1.0000
  O   O6        1.0  0.8898680875859245  0.2358513762630685  0.5698794193747281  1.0000
  O   O7        1.0  0.774460092790871  0.6130287379449888  0.5566003073465673  1.0000
  O   O8        1.0  0.7745268666499611  0.4173008785920149  0.7523639228969587  1.0000
  O   O9        1.0  0.7744683699758909  0.43116311583681943  0.374660961411944  1.0000
  O   O10       1.0  0.7745350922841571  0.23543369606982  0.5704246465034549  1.0000
