data_image0
_chemical_formula_structural       NC12NC2H8C12H15C6SCNH5Zn2C4O8
_chemical_formula_sum              "N3 C37 H28 S1 Zn2 O8"
_cell_length_a       17.80743265337812
_cell_length_b       10.298977702784466
_cell_length_c       9.275272990362726
_cell_angle_alpha    85.0254499626606
_cell_angle_beta     91.20895717805207
_cell_angle_gamma    89.43206247709772

_space_group_name_H-M_alt    "P 1"
_space_group_IT_number       1

loop_
  _space_group_symop_operation_xyz
  'x, y, z'

loop_
  _atom_site_type_symbol
  _atom_site_label
  _atom_site_symmetry_multiplicity
  _atom_site_fract_x
  _atom_site_fract_y
  _atom_site_fract_z
  _atom_site_occupancy
  N   N1        1.0  0.7118667247255509  0.41934506979888975  0.44547808733806504  1.0000
  C   C1        1.0  0.661266692268424  0.4495218553901997  0.3691377596812855  1.0000
  C   C2        1.0  0.5983152093824997  0.4870595534232126  0.2741800014852629  1.0000
  C   C3        1.0  0.6104469876686375  0.5422192114304116  0.13347606883710772  1.0000
  C   C4        1.0  0.5493952111077093  0.5782317194623869  0.04118096740329079  1.0000
  C   C5        1.0  0.4760594650969513  0.5593539681586441  0.08885650034765756  1.0000
  C   C6        1.0  0.4629494127887953  0.5040713041759111  0.23008062040826927  1.0000
  C   C7        1.0  0.5248585584105305  0.46806219819482253  0.3223573748162587  1.0000
  C   C8        1.0  0.3850363055060432  0.4840537076313761  0.2809345669561987  1.0000
  C   C9        1.0  0.3658411505305297  0.5101054390854148  0.42208263993587014  1.0000
  C   C10       1.0  0.2924753265815742  0.49126890208076746  0.4698032276695447  1.0000
  C   C11       1.0  0.23735900624507977  0.4461188353678316  0.37730688457603956  1.0000
  C   C12       1.0  0.1618520986585249  0.4267168773168554  0.4265842121944454  1.0000
  N   N2        1.0  0.1011498917640087  0.41111900852850103  0.466199793658617  1.0000
  C   C13       1.0  0.2558609306417939  0.4198933142303031  0.23676215531111142  1.0000
  C   C14       1.0  0.32917472082512383  0.43874692875889143  0.18875724984612668  1.0000
  H   H1        1.0  0.6670226788039154  0.5573527050399256  0.09520853701506105  1.0000
  H   H2        1.0  0.558905658830136  0.621208208889773  0.9325256178046843  1.0000
  H   H3        1.0  0.42962959880105717  0.5895795493371121  0.015969344546397764  1.0000
  H   H4        1.0  0.5160469526029731  0.42370137721430595  0.430874926278505  1.0000
  H   H5        1.0  0.4073053680703185  0.5467014149639857  0.49492740250319334  1.0000
  H   H6        1.0  0.2787162480402808  0.512239301334019  0.5786921780556566  1.0000
  H   H7        1.0  0.2136784536638157  0.3845610491606799  0.1643757895382036  1.0000
  H   H8        1.0  0.342404496362365  0.4162381151857773  0.08020585444563699  1.0000
  C   C15       1.0  0.9065259737413078  0.033825491604329905  0.45598558293276925  1.0000
  C   C16       1.0  0.9078656810516281  0.02075873269311734  0.6080384562426626  1.0000
  C   C17       1.0  0.9087172429449285  0.8969125286419578  0.6849866790942527  1.0000
  C   C18       1.0  0.9078252804195517  0.7854996794359482  0.6077016537928666  1.0000
  C   C19       1.0  0.9064977924100756  0.7966283176518879  0.45570508103818574  1.0000
  C   C20       1.0  0.9059123453815757  0.9212345681315639  0.380744900508584  1.0000
  C   C21       1.0  0.9099972353610976  0.8825891097379323  0.8494067505555134  1.0000
  C   C22       1.0  0.8363748199450027  0.9353643597690329  0.9105371076688801  1.0000
  C   C23       1.0  0.8463669690880544  0.9796267064301645  0.06439715295080273  1.0000
  C   C24       1.0  0.9086701432952856  0.9020568176078547  0.15100056794469163  1.0000
  C   C25       1.0  0.9855282587455774  0.9194482425633447  0.07850417725423986  1.0000
  C   C26       1.0  0.9796861632857882  0.9469829682615764  0.9124443335840571  1.0000
  H   H9        1.0  0.9036718011557738  0.265813780625924  0.16895111105941085  1.0000
  H   H10       1.0  0.9079585462747125  0.10702179978457148  0.666957342736608  1.0000
  H   H11       1.0  0.9081875355224283  0.6898672391152902  0.6663847398662768  1.0000
  H   H12       1.0  0.9048857569852962  0.9305198903494234  0.26350829147147814  1.0000
  H   H13       1.0  0.9057486143754193  0.47343442686435905  0.39718433678410076  1.0000
  H   H14       1.0  0.9142833452292072  0.7769815612649061  0.8869503593779198  1.0000
  H   H15       1.0  0.7936384927599973  0.8572565972707316  0.9121437717169333  1.0000
  H   H16       1.0  0.8131656584565679  0.019291132858165305  0.8394238153662941  1.0000
  H   H17       1.0  0.860640088597036  0.08487471380648226  0.05724485434218606  1.0000
  H   H18       1.0  0.7925608175674045  0.9679931758465393  0.12246276061491568  1.0000
  H   H19       1.0  0.8937470042095156  0.7970781236193578  0.1605115704366949  1.0000
  H   H20       1.0  0.01986862901749786  0.8296386630714339  0.1061516226256064  1.0000
  H   H21       1.0  0.015706681378266033  0.0012353280104238087  0.12388186625150399  1.0000
  H   H22       1.0  0.9766090972369058  0.05421049730799644  0.8852212103827151  1.0000
  H   H23       1.0  0.03146343243530358  0.9102354070491213  0.8638231758584696  1.0000
  C   C27       1.0  0.9077408520683029  0.41865199231649397  0.03210492779131945  1.0000
  C   C28       1.0  0.8505027865283011  0.4869208781549819  0.09678724891734225  1.0000
  C   C29       1.0  0.7906689495049046  0.5439731416503755  0.013935576530698773  1.0000
  C   C30       1.0  0.786984265311538  0.5341009604082214  0.8649128729656383  1.0000
  C   C31       1.0  0.8438075533443251  0.46814697749894685  0.7982785522134843  1.0000
  C   C32       1.0  0.905282930746984  0.4118018495567567  0.8795857519253535  1.0000
  S   S1        1.0  0.7095145757053046  0.6061010207473135  0.7590980862938963  1.0000
  C   C33       1.0  0.7559773510510673  0.7558885822473944  0.7252721390824091  1.0000
  N   N3        1.0  0.7864575369089226  0.8540778190370806  0.7031128491320233  1.0000
  H   H24       1.0  0.02682931478701644  0.35702147022026054  0.32400268049891995  1.0000
  H   H25       1.0  0.8510510447496529  0.49356024638983415  0.2127265649337695  1.0000
  H   H26       1.0  0.7468148958325244  0.5950472318016256  0.06606906874675378  1.0000
  H   H27       1.0  0.8408564441848901  0.46382711728473414  0.6819829926439249  1.0000
  H   H28       1.0  0.08387309725135215  0.3278727315961434  0.7919017048145709  1.0000
  Zn  Zn1       1.0  0.8242054170936346  0.4169676713478623  0.45146624420212333  1.0000
  Zn  Zn2       1.0  0.9888111631570934  0.4134857173424072  0.46022341066840666  1.0000
  C   C34       1.0  0.9057460347424502  0.4079225325568779  0.7193955594502439  1.0000
  C   C35       1.0  0.9072723425266092  0.42253245574655557  0.19229433207417831  1.0000
  C   C36       1.0  0.9065159334613762  0.6524889438620433  0.45000777343811776  1.0000
  C   C37       1.0  0.9065023874737662  0.17796448455164818  0.4616821926031391  1.0000
  O   O1        1.0  0.9695821294348628  0.4225077250247111  0.24937866061875003  1.0000
  O   O2        1.0  0.968368201619579  0.4053035642941414  0.6689573026050759  1.0000
  O   O3        1.0  0.9689890581348418  0.6027940400726217  0.45142471414015173  1.0000
  O   O4        1.0  0.9689612170642571  0.2250172606000416  0.46691113789867383  1.0000
  O   O5        1.0  0.8440553070146303  0.6054361292799233  0.44477851397587415  1.0000
  O   O6        1.0  0.8434344506614437  0.40794721458088024  0.6623110249279822  1.0000
  O   O7        1.0  0.8446483835599942  0.4251513440728747  0.24273064808283348  1.0000
  O   O8        1.0  0.8440274708728904  0.22766086948409006  0.46026323355177623  1.0000
