data_image0
_chemical_formula_structural       NC6NCNCH5C6NH5C7F3H4Zn2C4O8
_chemical_formula_sum              "N4 C25 H14 F3 Zn2 O8"
_cell_length_a       14.933214217465613
_cell_length_b       9.274771166103582
_cell_length_c       10.299327507215196
_cell_angle_alpha    85.44807283694688
_cell_angle_beta     89.947286011659
_cell_angle_gamma    90.63112361825276

_space_group_name_H-M_alt    "P 1"
_space_group_IT_number       1

loop_
  _space_group_symop_operation_xyz
  'x, y, z'

loop_
  _atom_site_type_symbol
  _atom_site_label
  _atom_site_symmetry_multiplicity
  _atom_site_fract_x
  _atom_site_fract_y
  _atom_site_fract_z
  _atom_site_occupancy
  N   N1        1.0  0.8537816742066222  0.5797683658143538  0.5640449421542062  1.0000
  C   C1        1.0  0.7762980675970479  0.5807654900364294  0.5631508668695122  1.0000
  C   C2        1.0  0.6799079219861951  0.5820086492489194  0.5620360657051839  1.0000
  C   C3        1.0  0.6314442552651804  0.4862031732246135  0.6479577873725217  1.0000
  C   C4        1.0  0.5379180592718894  0.48728652668899514  0.6469862244679472  1.0000
  C   C5        1.0  0.4919528097647947  0.584120464430864  0.5601421751568174  1.0000
  C   C6        1.0  0.39536320538183767  0.5820108068693057  0.562034196353097  1.0000
  N   N2        1.0  0.3178658205143912  0.5802508864312451  0.5636122237912029  1.0000
  C   C7        1.0  0.5405233146709646  0.6811357023529603  0.4731356117872955  1.0000
  N   N3        1.0  0.4958832207418614  0.7817833630627065  0.3828714930499899  1.0000
  C   C8        1.0  0.634523419169153  0.6790857876738763  0.47497415215088545  1.0000
  H   H1        1.0  0.6659378176595496  0.4106669985288749  0.7157012477951352  1.0000
  H   H2        1.0  0.501334855788456  0.4123857740829127  0.7141597009239466  1.0000
  H   H3        1.0  0.5327131345212328  0.8528704129614119  0.31911808891387006  1.0000
  H   H4        1.0  0.42617747884773677  0.7871386769840596  0.37806872342641284  1.0000
  H   H5        1.0  0.6722260304460652  0.7532329154951805  0.40847640494986903  1.0000
  C   C9        1.0  0.08307861940451211  0.15641009293062313  0.5645390535424726  1.0000
  C   C10       1.0  0.06249857123297775  0.23971528871174927  0.44841777985223596  1.0000
  C   C11       1.0  0.05027953185556644  0.1746711530600904  0.33155184990945075  1.0000
  C   C12       1.0  0.058687678377037394  0.024944527670238695  0.32996059634328323  1.0000
  C   C13       1.0  0.07761217570962842  0.9403184276825273  0.4444879832088666  1.0000
  C   C14       1.0  0.08857737338916641  0.003598064229613392  0.5631294128342035  1.0000
  N   N4        1.0  0.030249955235678767  0.26107661519353864  0.21415361201983837  1.0000
  H   H6        1.0  0.18379411052020478  0.2361314564714416  0.8486765916392649  1.0000
  H   H7        1.0  0.04971019135678503  0.9734617850020991  0.24004365872776123  1.0000
  H   H8        1.0  0.15278337498318761  0.7065687986668105  0.7564475668421056  1.0000
  H   H9        1.0  0.02408015525016772  0.3731441084698697  0.2141171818142131  1.0000
  H   H10       1.0  0.02135628828517877  0.2136108393129046  0.126372429308935  1.0000
  C   C15       1.0  0.08591412424302347  0.5800627397279221  0.18245246049112152  1.0000
  C   C16       1.0  0.17331110923335774  0.6379920388097939  0.17700461397818756  1.0000
  C   C17       1.0  0.2167614411953318  0.6696627933380075  0.05695667764130263  1.0000
  C   C18       1.0  0.17308494055746027  0.6378388394087136  0.9417676207873202  1.0000
  C   C19       1.0  0.08574188387026793  0.5799454037565466  0.9452159916099326  1.0000
  C   C20       1.0  0.042533484617574696  0.5519277258245421  0.06603021306991952  1.0000
  C   C21       1.0  0.3117797028096574  0.7269628589223289  0.05251091902018601  1.0000
  F   F1        1.0  0.327968486565694  0.8112155814462589  0.15524733396866264  1.0000
  F   F2        1.0  0.37018352990888537  0.6120142817172735  0.06051609774421074  1.0000
  F   F3        1.0  0.3277223526221106  0.8111957544100468  0.9376041922310434  1.0000
  H   H11       1.0  0.9215775909931465  0.4683322902435676  0.4001427258621472  1.0000
  H   H12       1.0  0.20778420527374897  0.6583162669279865  0.26633536741235275  1.0000
  H   H13       1.0  0.2074028792005138  0.6580541034280347  0.8493221363554246  1.0000
  H   H14       1.0  0.975171758669923  0.507281953272948  0.0694241873333521  1.0000
  Zn  Zn1       1.0  0.9877063078500778  0.5799037391184096  0.5639275831402644  1.0000
  Zn  Zn2       1.0  0.18394109299116895  0.580103677605712  0.5637402677468237  1.0000
  C   C22       1.0  0.08573511992339268  0.5742209790721322  0.8010469042792103  1.0000
  C   C23       1.0  0.08591443558013134  0.5857882598865727  0.32662106900465804  1.0000
  C   C24       1.0  0.08753454046662967  0.8434622648271632  0.5582205009008396  1.0000
  C   C25       1.0  0.08411493681133721  0.31654524097116643  0.5694475445716489  1.0000
  O   O1        1.0  0.16038457749649615  0.5877793792360577  0.3749342962740789  1.0000
  O   O2        1.0  0.16020263238658217  0.5723805202544431  0.7525911369124418  1.0000
  O   O3        1.0  0.16165468303475716  0.7897962622918042  0.5565070966098757  1.0000
  O   O4        1.0  0.15893245997565086  0.3703636474644221  0.5710182392454457  1.0000
  O   O5        1.0  0.012714873900306456  0.7896437691930417  0.5566496116987298  1.0000
  O   O6        1.0  0.011262834512399296  0.5722297602493978  0.7527335798697639  1.0000
  O   O7        1.0  0.011444779708259079  0.5876285692039709  0.3750751778617132  1.0000
  O   O8        1.0  0.009992662094794545  0.37021282709995224  0.5711592182213676  1.0000
