data_image0
_chemical_formula_structural       NC5NC4H6C6H6C12H10Zn2C4O8
_chemical_formula_sum              "N2 C31 H22 Zn2 O8"
_cell_length_a       13.854160002989762
_cell_length_b       10.681118228259553
_cell_length_c       14.389300134226545
_cell_angle_alpha    83.1335448611894
_cell_angle_beta     90.22201772561286
_cell_angle_gamma    89.99830476723527

_space_group_name_H-M_alt    "P 1"
_space_group_IT_number       1

loop_
  _space_group_symop_operation_xyz
  'x, y, z'

loop_
  _atom_site_type_symbol
  _atom_site_label
  _atom_site_symmetry_multiplicity
  _atom_site_fract_x
  _atom_site_fract_y
  _atom_site_fract_z
  _atom_site_occupancy
  N   N1        1.0  0.9047322005634791  0.42945313287360937  0.9703342058193911  1.0000
  C   C1        1.0  0.8322450865923844  0.45353343534174506  0.9320988009580644  1.0000
  C   C2        1.0  0.7420700926732882  0.4834900091785712  0.8845324932866172  1.0000
  C   C3        1.0  0.6546864439691015  0.4552310153563508  0.930976774425717  1.0000
  C   C4        1.0  0.5669276802413433  0.4834900224799277  0.8845324782812858  1.0000
  C   C5        1.0  0.4771369454697708  0.4535333040250884  0.9320988602865976  1.0000
  N   N2        1.0  0.4049586299666827  0.4294530777407324  0.9703342057626256  1.0000
  C   C6        1.0  0.5665852371137208  0.5405338639039765  0.7916562073112778  1.0000
  C   C7        1.0  0.6539358409099141  0.570663701683562  0.74514496565503  1.0000
  C   C8        1.0  0.6535307937148838  0.6283426887143762  0.6448289624571948  1.0000
  C   C9        1.0  0.7416623259140614  0.5405338660986957  0.7916561488513334  1.0000
  H   H1        1.0  0.6549767955483747  0.4109835450240886  0.0028613016379859255  1.0000
  H   H2        1.0  0.4985667603272235  0.5615139018196823  0.7556203821578708  1.0000
  H   H3        1.0  0.7183217032831587  0.6884098731182567  0.6294265531514653  1.0000
  H   H4        1.0  0.5886132257941228  0.688409872336065  0.6294265952973606  1.0000
  H   H5        1.0  0.6533460843453278  0.5523896202060053  0.5984929273420625  1.0000
  H   H6        1.0  0.8093897191842924  0.561514002657916  0.7556203268409396  1.0000
  C   C10       1.0  0.15485006700031057  0.0617028657284311  0.9703382337110908  1.0000
  C   C11       1.0  0.1975214139297472  0.9829473002814166  0.04447259249992341  1.0000
  C   C12       1.0  0.19752139900073862  0.8520650645478807  0.04447254982131077  1.0000
  C   C13       1.0  0.1548500509571448  0.7971932673760557  0.9703382740645131  1.0000
  C   C14       1.0  0.11221402708340418  0.8759339273145857  0.8962651779885134  1.0000
  C   C15       1.0  0.11221404194478057  0.006826183245382206  0.8962652158752735  1.0000
  H   H7        1.0  0.11169752611867317  0.3724890724073096  0.8953687107307553  1.0000
  H   H8        1.0  0.23096928592541865  0.02239760774433753  0.1025825727731587  1.0000
  H   H9        1.0  0.23096916718634763  0.7938935800922023  0.10258255628379005  1.0000
  H   H10       1.0  0.07876179390698423  0.8365295970873622  0.8381476103468897  1.0000
  H   H11       1.0  0.07876176857551997  0.06495403655561745  0.8381476027564533  1.0000
  H   H12       1.0  0.1116978804737967  0.5105597359678984  0.8953684582137664  1.0000
  C   C16       1.0  0.15374582902563008  0.4451346900868579  0.6962131154901328  1.0000
  C   C17       1.0  0.2062941769252281  0.5193198275770694  0.6266699772946973  1.0000
  C   C18       1.0  0.20841688997036795  0.48836550147070157  0.5350253062953969  1.0000
  C   C19       1.0  0.15810643201697022  0.38253301894705577  0.5109175786912035  1.0000
  C   C20       1.0  0.1056348902515387  0.30836615319349403  0.5805531617986364  1.0000
  C   C21       1.0  0.10344615487575193  0.3393767067143203  0.6721854693771891  1.0000
  C   C22       1.0  0.1603906507246255  0.349582977054649  0.41353595068831295  1.0000
  C   C23       1.0  0.15375845024862975  0.4443552993008284  0.3368963205742177  1.0000
  C   C24       1.0  0.1559542541321816  0.4137613896841943  0.24446341062619512  1.0000
  C   C25       1.0  0.16490740337452836  0.28678182976255684  0.22935485286910204  1.0000
  C   C26       1.0  0.17147344859266633  0.1923228878480174  0.30504008679446604  1.0000
  C   C27       1.0  0.16921699884051872  0.22320801873170537  0.39656088981613646  1.0000
  H   H13       1.0  0.09686584908279605  0.4247924977009272  0.9284168844842322  1.0000
  H   H14       1.0  0.2460492656252652  0.6012230173191722  0.6430635248462331  1.0000
  H   H15       1.0  0.25054168829862333  0.5463713505376693  0.4832485945944276  1.0000
  H   H16       1.0  0.0651621250225689  0.22718040096784378  0.5638913657241633  1.0000
  H   H17       1.0  0.06209639302833089  0.28055094877002046  0.7241153131035829  1.0000
  H   H18       1.0  0.14555852748008055  0.541810833643855  0.3493389039428667  1.0000
  H   H19       1.0  0.14573953768073045  0.5499237330139339  0.01727889821988282  1.0000
  H   H20       1.0  0.16685716202851503  0.26027810189481687  0.1590715923365098  1.0000
  H   H21       1.0  0.1786106563454743  0.094753839634256  0.29270599599422287  1.0000
  H   H22       1.0  0.17567105678233957  0.148400875113909  0.4540656229383627  1.0000
  Zn  Zn1       1.0  0.0490867698950259  0.4294494553456709  0.9703396022978383  1.0000
  Zn  Zn2       1.0  0.26060409269233964  0.42944606873450625  0.970336475757956  1.0000
  C   C28       1.0  0.15553467859455217  0.4147027096997747  0.14083234960740942  1.0000
  C   C29       1.0  0.15415849412441096  0.444194389203892  0.7998438200362651  1.0000
  C   C30       1.0  0.15483009186648777  0.6583827676171874  0.9666183910853077  1.0000
  C   C31       1.0  0.1548630088769293  0.2005128238564571  0.9740578283275638  1.0000
  O   O1        1.0  0.23456670997129905  0.44387206702218984  0.8346220446542365  1.0000
  O   O2        1.0  0.23566321549072078  0.4150215321631543  0.10605148330021075  1.0000
  O   O3        1.0  0.23509317463277304  0.6117962051592619  0.9653724792170185  1.0000
  O   O4        1.0  0.2351366783707711  0.2470974069909593  0.9753009787463094  1.0000
  O   O5        1.0  0.0745541120360933  0.6117981170920184  0.9653750993056416  1.0000
  O   O6        1.0  0.07512415268908601  0.41502495152873237  0.10605405361579301  1.0000
  O   O7        1.0  0.07402764271294758  0.4438755069721606  0.834623492646621  1.0000
  O   O8        1.0  0.07459761139039407  0.2471008339788528  0.9753024967259698  1.0000
