data_image0
_chemical_formula_structural       NC11NC3H8C6SCOC6H9C6SCOC6H10Zn2C4O8
_chemical_formula_sum              "N2 C44 H27 S2 O10 Zn2"
_cell_length_a       17.807433833752565
_cell_length_b       10.302038109246572
_cell_length_c       10.302041481415108
_cell_angle_alpha    85.54819663174399
_cell_angle_beta     88.52108606055918
_cell_angle_gamma    90.70325301409062

_space_group_name_H-M_alt    "P 1"
_space_group_IT_number       1

loop_
  _space_group_symop_operation_xyz
  'x, y, z'

loop_
  _atom_site_type_symbol
  _atom_site_label
  _atom_site_symmetry_multiplicity
  _atom_site_fract_x
  _atom_site_fract_y
  _atom_site_fract_z
  _atom_site_occupancy
  N   N1        1.0  0.707733726170864  0.43863932103851305  0.5351563859137012  1.0000
  C   C1        1.0  0.6569053970831215  0.4038979957554565  0.6016997668197095  1.0000
  C   C2        1.0  0.5936698309101149  0.3606826518077231  0.6844712406037872  1.0000
  C   C3        1.0  0.6053807159594503  0.29710540960448295  0.8071547473057039  1.0000
  C   C4        1.0  0.5440529379468718  0.25557022672197854  0.8876430039724015  1.0000
  C   C5        1.0  0.4708598459535862  0.27729887198021563  0.8460883696102541  1.0000
  C   C6        1.0  0.45817221282935755  0.34103078669156955  0.7229447862983596  1.0000
  C   C7        1.0  0.38041124914732316  0.36409018954418887  0.6786102787182244  1.0000
  C   C8        1.0  0.3616291385272827  0.34726625385368753  0.5490562868439102  1.0000
  C   C9        1.0  0.2884060983486617  0.3689561953203739  0.5074575858008876  1.0000
  C   C10       1.0  0.2330221837431846  0.4077888055177048  0.5945928226651533  1.0000
  C   C11       1.0  0.15766259370858068  0.43013752253606724  0.5516332089188308  1.0000
  N   N2        1.0  0.09707885634148078  0.44810423071459876  0.5170968060547381  1.0000
  C   C12       1.0  0.2511127891530984  0.42482345022394  0.7236158235642927  1.0000
  C   C13       1.0  0.3242830519782923  0.4030984996383426  0.7654698934094657  1.0000
  C   C14       1.0  0.5203573012889623  0.3825614001044154  0.6424729412804175  1.0000
  H   H1        1.0  0.6618420627445454  0.27968362963427923  0.8405107747834085  1.0000
  H   H2        1.0  0.5532384157754149  0.20609721722458138  0.9823521342914588  1.0000
  H   H3        1.0  0.4242118635436146  0.24272930194960726  0.9095091744970556  1.0000
  H   H4        1.0  0.4033040287716251  0.31565540905734646  0.48035092007766395  1.0000
  H   H5        1.0  0.2749655895951052  0.3551129647960285  0.4074433152341508  1.0000
  H   H6        1.0  0.208720905299986  0.45521173402003945  0.7918063819831893  1.0000
  H   H7        1.0  0.337195423523968  0.41848683582109847  0.8653016431393007  1.0000
  H   H8        1.0  0.511870547081037  0.43339635933885856  0.5479982459357329  1.0000
  C   C15       1.0  0.9023387285307118  0.06209170802226938  0.5260895557785119  1.0000
  C   C16       1.0  0.8381176194353068  0.06532736974525122  0.44956630165833333  1.0000
  C   C17       1.0  0.8065172609571155  0.9499875474038713  0.4109913024200751  1.0000
  C   C18       1.0  0.8383592598620984  0.8302006641777956  0.4495010989524398  1.0000
  C   C19       1.0  0.9024810560515604  0.8246420340714672  0.5261745082647531  1.0000
  C   C20       1.0  0.9341787760054231  0.9412338065317232  0.5639842679355077  1.0000
  S   S1        1.0  0.7249998441455889  0.9555760426565009  0.31218588249940044  1.0000
  C   C21       1.0  0.780238165032394  0.9654636148597062  0.1632338211030291  1.0000
  O   O1        1.0  0.7983543332598622  0.860652188989747  0.1160536304543527  1.0000
  C   C22       1.0  0.8050172846162087  0.09225464993167452  0.09660126524076862  1.0000
  C   C23       1.0  0.8581366832449682  0.09592007539721514  0.9926530761959191  1.0000
  C   C24       1.0  0.8822838736464657  0.21486444964207907  0.9298234629040848  1.0000
  C   C25       1.0  0.8537181116670254  0.3313937180563621  0.9696412975183964  1.0000
  C   C26       1.0  0.800824697832604  0.3292068338448373  0.07222625709688701  1.0000
  C   C27       1.0  0.7764270869476918  0.21055989969944888  0.13538758839741893  1.0000
  H   H9        1.0  0.812559274997887  0.15723886164108444  0.41948287844918775  1.0000
  H   H10       1.0  0.8130429623958751  0.741844674428292  0.4189180245970079  1.0000
  H   H11       1.0  0.983689050241015  0.9378190338657628  0.6229752650132676  1.0000
  H   H12       1.0  0.9269911784778536  0.49521741515613493  0.554997619599864  1.0000
  H   H13       1.0  0.8813774219132061  0.006931317833766874  0.960284353670165  1.0000
  H   H14       1.0  0.9232675817456456  0.21664096858273615  0.8502418897350356  1.0000
  H   H15       1.0  0.8724981602284901  0.4233711642523174  0.9209064072327716  1.0000
  H   H16       1.0  0.7785686211110432  0.41960302217972667  0.10278903867421851  1.0000
  H   H17       1.0  0.735003338487569  0.21216078172211184  0.21385748310063815  1.0000
  C   C28       1.0  0.9024239890532605  0.4434964467309454  0.14484434991411968  1.0000
  C   C29       1.0  0.9368883941848908  0.5674032854959085  0.1323475300527357  1.0000
  C   C30       1.0  0.9543708883391883  0.6285398844142494  0.009158587023698091  1.0000
  C   C31       1.0  0.9369596198240069  0.5670012508897078  0.8972387658835431  1.0000
  C   C32       1.0  0.9023957924812404  0.4432372641904321  0.907419717683235  1.0000
  C   C33       1.0  0.8853623184024851  0.38207303462553166  0.031781254990953085  1.0000
  S   S2        1.0  0.9990688984015137  0.7861220006028175  0.9945815372635513  1.0000
  C   C34       1.0  0.0916008928182317  0.7185874014769402  0.9928495113976626  1.0000
  O   O2        1.0  0.12099764845856842  0.6961348093087769  0.8844229076723593  1.0000
  C   C35       1.0  0.13300409298852783  0.6882587061053971  0.11444978702525456  1.0000
  C   C36       1.0  0.19963584872824924  0.6161727480031303  0.11154252385638098  1.0000
  C   C37       1.0  0.23878640858812084  0.5862351210207134  0.22567490644000637  1.0000
  C   C38       1.0  0.2121025865655688  0.6279238532178704  0.3438552789648457  1.0000
  C   C39       1.0  0.14627824952256296  0.6998706666239807  0.34810533805849353  1.0000
  C   C40       1.0  0.10690351993869007  0.7301768894058007  0.23428280438413168  1.0000
  H   H18       1.0  0.8373520486673437  0.21006407324936902  0.3757122678023324  1.0000
  H   H19       1.0  0.9503933906029939  0.6166476822819263  0.21804131124927584  1.0000
  H   H20       1.0  0.9507829844140878  0.6159219360332114  0.8026320397616532  1.0000
  H   H21       1.0  0.8587944625662381  0.28654951662119993  0.04049477671733003  1.0000
  H   H22       1.0  0.8894597329591797  0.39601735887753775  0.5839548568827788  1.0000
  H   H23       1.0  0.2213304141402166  0.5822504661322931  0.021213442407362226  1.0000
  H   H24       1.0  0.2898435992964514  0.5305054413971064  0.2224527830928429  1.0000
  H   H25       1.0  0.24247745365708484  0.6046168278811382  0.4321055349674423  1.0000
  H   H26       1.0  0.12574998755581746  0.7324345944621866  0.43973419257151924  1.0000
  H   H27       1.0  0.05641662685414328  0.7868622647975922  0.24070584625111113  1.0000
  Zn  Zn1       1.0  0.8200903192940037  0.4413672131445762  0.5299522638122844  1.0000
  Zn  Zn2       1.0  0.9847222460848131  0.4453657178915473  0.5223115107320531  1.0000
  C   C41       1.0  0.9023984613878312  0.4381137556429921  0.7632761218399287  1.0000
  C   C42       1.0  0.9024159020675071  0.448620857251546  0.28898769688937165  1.0000
  C   C43       1.0  0.9024504566634646  0.6805054451897949  0.5209845394109891  1.0000
  C   C44       1.0  0.9023638503208375  0.20622760637740395  0.531279350975713  1.0000
  O   O3        1.0  0.9648901451747736  0.4518524035247631  0.3344638942953182  1.0000
  O   O4        1.0  0.9648760412223527  0.4379160025861883  0.7120003957655987  1.0000
  O   O5        1.0  0.9649171857957554  0.6336503364422653  0.5163482679403535  1.0000
  O   O6        1.0  0.9648489444289824  0.2561180776254124  0.5301159273749458  1.0000
  O   O7        1.0  0.8399635647690381  0.6306148520476338  0.5221478497699763  1.0000
  O   O8        1.0  0.8399224204858754  0.4348820781558176  0.7177999085384044  1.0000
  O   O9        1.0  0.8399365245375866  0.4488184343807075  0.34026184599271625  1.0000
  O   O10       1.0  0.8398953237833879  0.25308409916155256  0.5359139764185459  1.0000
