data_image0
_chemical_formula_structural       NC8NC6H8C6SCOC6H9C6OC6OH11Zn2C4O8
_chemical_formula_sum              "N2 C43 H28 S1 O11 Zn2"
_cell_length_a       17.457602349358154
_cell_length_b       10.302038109246572
_cell_length_c       10.299362532796529
_cell_angle_alpha    85.5856087193975
_cell_angle_beta     92.89066602148195
_cell_angle_gamma    91.70619204985762

_space_group_name_H-M_alt    "P 1"
_space_group_IT_number       1

loop_
  _space_group_symop_operation_xyz
  'x, y, z'

loop_
  _atom_site_type_symbol
  _atom_site_label
  _atom_site_symmetry_multiplicity
  _atom_site_fract_x
  _atom_site_fract_y
  _atom_site_fract_z
  _atom_site_occupancy
  N   N1        1.0  0.7224860519027718  0.4520506921669758  0.6266910786253539  1.0000
  C   C1        1.0  0.661397700686951  0.40613285871484067  0.6160690370134045  1.0000
  C   C2        1.0  0.585401211329085  0.34901678999836183  0.6028647600644914  1.0000
  C   C3        1.0  0.5268920004718134  0.3891932304159167  0.6777685248761136  1.0000
  C   C4        1.0  0.45233409399958213  0.334195123906015  0.6651789784357618  1.0000
  C   C5        1.0  0.3902351088290108  0.3766156042971564  0.7445048888683692  1.0000
  C   C6        1.0  0.3156832044433104  0.3950617853676292  0.6887434057815092  1.0000
  C   C7        1.0  0.2571739726557923  0.43505437813530884  0.7637551002625813  1.0000
  C   C8        1.0  0.1811836803715726  0.4541055594811305  0.7057782193892648  1.0000
  N   N2        1.0  0.1201004006904925  0.46941633113306835  0.6591649573512481  1.0000
  C   C9        1.0  0.2727246087602426  0.4568440372739473  0.8950368327470091  1.0000
  C   C10       1.0  0.3464919441397744  0.43878687581496106  0.9511859700058672  1.0000
  C   C11       1.0  0.40498967721711576  0.3989744418559306  0.8766320251648503  1.0000
  C   C12       1.0  0.43757369005119134  0.23834285714879952  0.5762526433820969  1.0000
  C   C13       1.0  0.49607129869683314  0.19844515953892847  0.5017489230949497  1.0000
  C   C14       1.0  0.5698445473119179  0.2535557916154871  0.5148884392766375  1.0000
  H   H1        1.0  0.5392608349433254  0.4643912704481904  0.7444100013516046  1.0000
  H   H2        1.0  0.303319324317782  0.3800623095489098  0.5867160228419401  1.0000
  H   H3        1.0  0.22787876361786127  0.48773842065882556  0.9538773594333524  1.0000
  H   H4        1.0  0.3583423514056827  0.4553435265350104  0.05284030041068554  1.0000
  H   H5        1.0  0.4614796776505186  0.384000937332492  0.9227368396530118  1.0000
  H   H6        1.0  0.38107872354295724  0.1930145417692761  0.5655945645193065  1.0000
  H   H7        1.0  0.4842162985139472  0.12436293460239753  0.433909266508776  1.0000
  H   H8        1.0  0.6146903509402971  0.22179207843548007  0.4565589240062368  1.0000
  C   C15       1.0  0.9212242212043124  0.07945203218451247  0.6428822239039036  1.0000
  C   C16       1.0  0.8556236394779488  0.08133175029823005  0.558005724576436  1.0000
  C   C17       1.0  0.8233443241711152  0.9653241169705448  0.5153202563053028  1.0000
  C   C18       1.0  0.8558704015321807  0.8462099123406219  0.5579718724601905  1.0000
  C   C19       1.0  0.9213695894322834  0.842005307131463  0.6429856698640424  1.0000
  C   C20       1.0  0.9537481857990795  0.9592663615143743  0.6849183637349563  1.0000
  S   S1        1.0  0.7400755832076186  0.9691903702119715  0.40591148190978327  1.0000
  C   C21       1.0  0.7964585696092333  0.9801017223990174  0.26409586066707  1.0000
  O   O1        1.0  0.8149504722565718  0.8756271678019851  0.21925654046959608  1.0000
  C   C22       1.0  0.8217512058424712  0.10735213339467607  0.20066465139240997  1.0000
  C   C23       1.0  0.8759790181870855  0.11202813653279131  0.10358800783192823  1.0000
  C   C24       1.0  0.9006270392610031  0.23142156727039162  0.04387857302280906  1.0000
  C   C25       1.0  0.8714620768403709  0.34739671167687297  0.079997504755978  1.0000
  C   C26       1.0  0.8174647852998947  0.34420293797415447  0.17573994471922894  1.0000
  C   C27       1.0  0.7925610874985237  0.22510207812503988  0.2357486673598026  1.0000
  H   H9        1.0  0.04478480670064712  0.2832091841901198  0.8030259822613924  1.0000
  H   H10       1.0  0.8295163728010418  0.17270385769150426  0.5245980088959059  1.0000
  H   H11       1.0  0.8300102274234477  0.7573191256982811  0.5240958110614267  1.0000
  H   H12       1.0  0.004321942530358885  0.9568969304018407  0.7503491656867733  1.0000
  H   H13       1.0  0.899707263848072  0.023490224798310866  0.07422867137811061  1.0000
  H   H14       1.0  0.9424660527432863  0.23397819710133952  0.9695988072550414  1.0000
  H   H15       1.0  0.8906316628461958  0.4397234896611223  0.03368930712363927  1.0000
  H   H16       1.0  0.7947417715593255  0.4341670935571979  0.2034207437240916  1.0000
  H   H17       1.0  0.7502724671001928  0.22591316867754171  0.30885938617712805  1.0000
  C   C28       1.0  0.9212369933331754  0.46060554235343204  0.2615621461823569  1.0000
  C   C29       1.0  0.8483973612811808  0.3987577724196522  0.25889381575269743  1.0000
  C   C30       1.0  0.8486134502842104  0.3989307285725749  0.02365718390196392  1.0000
  C   C31       1.0  0.9213568023810844  0.4608517714408084  0.02430573521812751  1.0000
  C   C32       1.0  0.9571858804527269  0.4915847097162635  0.14375761992194835  1.0000
  C   C33       1.0  0.7348016891771907  0.30224731779070835  0.13989476225222486  1.0000
  O   O2        1.0  0.7191116189870126  0.22237447549612077  0.23450038192579226  1.0000
  C   C34       1.0  0.676077398547293  0.32622741286012763  0.03218702081895519  1.0000
  C   C35       1.0  0.6702009611187449  0.4493137069064411  0.9638684913165226  1.0000
  C   C36       1.0  0.6140485713307238  0.47103508213066503  0.8635897397118364  1.0000
  C   C37       1.0  0.562420850701607  0.3711394087345654  0.8303126790606462  1.0000
  C   C38       1.0  0.567490473111778  0.24821138549614583  0.899483553787407  1.0000
  C   C39       1.0  0.6236359632588827  0.22636254034576786  0.999834131628139  1.0000
  O   O3        1.0  0.5071962229853548  0.3978800891396112  0.7288213355043403  1.0000
  H   H18       1.0  0.05881620686263812  0.5768266682550424  0.47391602905921393  1.0000
  H   H19       1.0  0.8199863036593614  0.37478145427007775  0.3491047847561901  1.0000
  H   H20       1.0  0.8211822581252128  0.3726586328548951  0.9323597459436064  1.0000
  H   H21       1.0  0.013302271026725432  0.5393481133853693  0.14499072869749297  1.0000
  H   H22       1.0  0.7084572157277996  0.5292164686913003  0.9888265468380966  1.0000
  H   H23       1.0  0.610411235856161  0.5663126964954461  0.8117404940985984  1.0000
  H   H24       1.0  0.5283530559028496  0.1689557631974754  0.8765503901815559  1.0000
  H   H25       1.0  0.6265278475346143  0.13087054408821497  0.05150928091529549  1.0000
  H   H26       1.0  0.41521165889083583  0.3528063886798578  0.6038478456234633  1.0000
  H   H27       1.0  0.41376950737599794  0.2718547412393379  0.765353421886132  1.0000
  H   H28       1.0  0.4798235730413853  0.22164542261668596  0.6485363013758905  1.0000
  Zn  Zn1       1.0  0.8372289645666029  0.45705856096963204  0.6360698366040234  1.0000
  Zn  Zn2       1.0  0.005357473417711524  0.4643978203803439  0.6497968305363738  1.0000
  C   C40       1.0  0.9213314479952615  0.4556326702193063  0.8801300090452215  1.0000
  C   C41       1.0  0.9212568262794099  0.46582542956081746  0.40573693568310976  1.0000
  C   C42       1.0  0.9213373284125959  0.697864652762846  0.6377905592616808  1.0000
  C   C43       1.0  0.9212508882051177  0.2235918845898195  0.6480764498101805  1.0000
  O   O4        1.0  0.9850673742176126  0.4703568176448084  0.45933263398282165  1.0000
  O   O5        1.0  0.9851265478007585  0.456670630590201  0.8369524075374569  1.0000
  O   O6        1.0  0.9851304364172231  0.6522759828256262  0.6412615172033482  1.0000
  O   O7        1.0  0.9850634282167532  0.27475147216165086  0.6550234222586961  1.0000
  O   O8        1.0  0.8575229523935524  0.6467049066852077  0.6308432401905206  1.0000
  O   O9        1.0  0.8575190640600358  0.4511011143741222  0.8265340614899197  1.0000
  O   O10       1.0  0.8574598902740561  0.46478725568126866  0.4489127265208725  1.0000
  O   O11       1.0  0.8574559442835819  0.26918190094272565  0.6446036121638019  1.0000
