data_image0
_chemical_formula_structural       NC8NH4C6BrH5C7F3H5Zn2C4O8
_chemical_formula_sum              "N2 C25 H14 Br1 F3 Zn2 O8"
_cell_length_a       13.859017124695912
_cell_length_b       9.276564384272257
_cell_length_c       10.299327507215196
_cell_angle_alpha    85.50433020317719
_cell_angle_beta     89.98117985165102
_cell_angle_gamma    90.58596084768166

_space_group_name_H-M_alt    "P 1"
_space_group_IT_number       1

loop_
  _space_group_symop_operation_xyz
  'x, y, z'

loop_
  _atom_site_type_symbol
  _atom_site_label
  _atom_site_symmetry_multiplicity
  _atom_site_fract_x
  _atom_site_fract_y
  _atom_site_fract_z
  _atom_site_occupancy
  N   N1        1.0  0.9197443785768734  0.5784503384780756  0.5662413110626652  1.0000
  C   C1        1.0  0.8472457995590875  0.5555997938290462  0.5156534027254012  1.0000
  C   C2        1.0  0.7570618844810448  0.527177060289213  0.45272854603729  1.0000
  C   C3        1.0  0.6696213973413223  0.5548863506190316  0.5140723638775924  1.0000
  C   C4        1.0  0.5818315731400812  0.5271782861507124  0.45272802313243016  1.0000
  C   C5        1.0  0.5816645982995909  0.4717534347146662  0.3300210338434486  1.0000
  C   C6        1.0  0.6689231965671951  0.44415064351849365  0.26891334490001984  1.0000
  C   C7        1.0  0.7565299408318168  0.4717510851747342  0.33002209737229427  1.0000
  C   C8        1.0  0.49200596729322005  0.5556007204194748  0.5156529532871666  1.0000
  N   N2        1.0  0.4197955064211601  0.5784506611068712  0.5662411161840448  1.0000
  H   H1        1.0  0.6698918486507338  0.5977873512853487  0.6090505127574424  1.0000
  H   H2        1.0  0.514231678689243  0.44994520378544484  0.2817367324113797  1.0000
  H   H3        1.0  0.6686533641368149  0.4013372755032887  0.17412754224150492  1.0000
  H   H4        1.0  0.8236878643668218  0.4499407534516382  0.28173869788361783  1.0000
  C   C9        1.0  0.16686740006786982  0.15496949642683178  0.566573333406192  1.0000
  C   C10       1.0  0.15453115680373156  0.23848701002555317  0.44787231052771403  1.0000
  C   C11       1.0  0.15117443872164424  0.17351620204630858  0.3302800112892172  1.0000
  C   C12       1.0  0.16013306911903127  0.024109220504785256  0.3291558997245019  1.0000
  C   C13       1.0  0.17076991846278866  0.938898652369415  0.4460619632472291  1.0000
  C   C14       1.0  0.17268164147191212  0.001920403376840078  0.5659203080822799  1.0000
  Br  Br1       1.0  0.15625052179647336  0.9357762296838928  0.16779871911171007  1.0000
  H   H5        1.0  0.1385216331359127  0.4174894429222147  0.7777173678538106  1.0000
  H   H6        1.0  0.1497700282621801  0.35514374080139444  0.44564890877502505  1.0000
  H   H7        1.0  0.14252574818517894  0.23975032508353178  0.23981529116555728  1.0000
  H   H8        1.0  0.1752350220442329  0.822659103238746  0.44326190383246916  1.0000
  H   H9        1.0  0.22586027700218958  0.7039567077096778  0.7681950289472971  1.0000
  C   C15       1.0  0.169867321068144  0.5785035384358188  0.18486521577903248  1.0000
  C   C16       1.0  0.2640301056644536  0.63632625163656  0.17955013047815302  1.0000
  C   C17       1.0  0.310843751224571  0.6679432321810314  0.05957074436918686  1.0000
  C   C18       1.0  0.2637864286683207  0.6361733289594667  0.9443127908066259  1.0000
  C   C19       1.0  0.16968174719586715  0.5783864133873631  0.9476284824423037  1.0000
  C   C20       1.0  0.12312830723201285  0.5504212608541625  0.06837761968200295  1.0000
  C   C21       1.0  0.41321855230965254  0.7251289681838395  0.05526428448173948  1.0000
  F   F1        1.0  0.43065098002942404  0.8093418754589441  0.15809051509201022  1.0000
  F   F2        1.0  0.4761637578510154  0.6101511142364904  0.06322186520438722  1.0000
  F   F3        1.0  0.43038577301300185  0.8093223094712281  0.9404471266039905  1.0000
  H   H10       1.0  0.9928091127068982  0.46697427257225493  0.40230335725561694  1.0000
  H   H11       1.0  0.3011722513464783  0.6566091272329246  0.26893101009324294  1.0000
  H   H12       1.0  0.30076140631010057  0.6563474313518671  0.851917191432045  1.0000
  H   H13       1.0  0.05055180208306287  0.5058576390064118  0.07166927064555773  1.0000
  H   H14       1.0  0.13411655364843833  0.5538031223542395  0.6216159189289785  1.0000
  Zn  Zn1       1.0  0.0640483071254918  0.5784465802225767  0.5662487616998017  1.0000
  Zn  Zn2       1.0  0.27549148688795855  0.5784426539782119  0.5662443266490989  1.0000
  C   C22       1.0  0.16967520677597858  0.572663558531757  0.8034543104987633  1.0000
  C   C23       1.0  0.16986690865051934  0.5842274951682926  0.32903890386956086  1.0000
  C   C24       1.0  0.1715789154115459  0.8418294708468567  0.5608684347818136  1.0000
  C   C25       1.0  0.16796311595321511  0.31505985024722727  0.5716248501647592  1.0000
  O   O1        1.0  0.25010831182419047  0.5861407259749405  0.37742323240753967  1.0000
  O   O2        1.0  0.24991427720246986  0.5707462599470006  0.7550662428401794  1.0000
  O   O3        1.0  0.2514504639778261  0.7881011380216878  0.559176430730056  1.0000
  O   O4        1.0  0.24857205299211427  0.36878585823263  0.5733129471333098  1.0000
  O   O5        1.0  0.0909676688661687  0.7881033759710692  0.5591801412102713  1.0000
  O   O6        1.0  0.08943149399738237  0.5707502305052583  0.7550698827368285  1.0000
  O   O7        1.0  0.08962552871824458  0.5861446465197255  0.37742531089020037  1.0000
  O   O8        1.0  0.08808926978772068  0.36878976844794886  0.5733151229950053  1.0000
