data_image0
_chemical_formula_structural       NC9NC3NH7C12H10C6OCH7Zn2C4O8
_chemical_formula_sum              "N3 C35 H24 O9 Zn2"
_cell_length_a       16.053384444249904
_cell_length_b       10.299137764757564
_cell_length_c       9.273891588657152
_cell_angle_alpha    86.05603520339396
_cell_angle_beta     89.48625385378584
_cell_angle_gamma    89.19348198390439

_space_group_name_H-M_alt    "P 1"
_space_group_IT_number       1

loop_
  _space_group_symop_operation_xyz
  'x, y, z'

loop_
  _atom_site_type_symbol
  _atom_site_label
  _atom_site_symmetry_multiplicity
  _atom_site_fract_x
  _atom_site_fract_y
  _atom_site_fract_z
  _atom_site_occupancy
  N   N1        1.0  0.789883257066253  0.390983223439884  0.40624928626803647  1.0000
  C   C1        1.0  0.7393953378018331  0.36948812049825563  0.32318671262038934  1.0000
  C   C2        1.0  0.6766525256385725  0.34278040388271624  0.22000274971204672  1.0000
  C   C3        1.0  0.6907414295754184  0.32951141114636656  0.07491147156440703  1.0000
  C   C4        1.0  0.6143015158044522  0.30370672533455867  0.016927026066886345  1.0000
  C   C5        1.0  0.5568369042289543  0.30266783698277244  0.12976951894352773  1.0000
  C   C6        1.0  0.4662166963507105  0.2787515127059452  0.11840635835729829  1.0000
  C   C7        1.0  0.4099890274591637  0.32232231241917453  0.2226134908333475  1.0000
  C   C8        1.0  0.3244714037296406  0.29963903106887013  0.21172964188307342  1.0000
  C   C9        1.0  0.26745542412521073  0.34497640687783626  0.3185685809849854  1.0000
  N   N2        1.0  0.2216312928646709  0.3814212500478384  0.4044503563449888  1.0000
  C   C10       1.0  0.2944553460450941  0.23327308306637828  0.09665392096737446  1.0000
  C   C11       1.0  0.3496737201119187  0.18982383308709208  0.9926816649946342  1.0000
  C   C12       1.0  0.4349867821169135  0.21233776586465924  0.0031254260848538845  1.0000
  N   N3        1.0  0.595625668596431  0.32665740254584597  0.2535712925187741  1.0000
  H   H1        1.0  0.7496648950101825  0.3376770550551551  0.01762132814789807  1.0000
  H   H2        1.0  0.6024052599589541  0.2890110869762738  0.9046415636167215  1.0000
  H   H3        1.0  0.4320282281718818  0.3755112788570239  0.3111581842678899  1.0000
  H   H4        1.0  0.2284599377062906  0.21522837140855544  0.08730203150061011  1.0000
  H   H5        1.0  0.3263453722401756  0.13827461057819065  0.9038767806780955  1.0000
  H   H6        1.0  0.476364314578156  0.17622409011685705  0.9218443026543959  1.0000
  H   H7        1.0  0.5691257458639315  0.32986992781241553  0.35652046214260613  1.0000
  C   C13       1.0  0.005680562237002418  0.004805331460612243  0.4055072616239752  1.0000
  C   C14       1.0  0.006132740221157064  0.01341462625849088  0.2537335420910327  1.0000
  C   C15       1.0  0.006444861499453005  0.900645051143563  0.17662243932873192  1.0000
  C   C16       1.0  0.006298642951873433  0.7781525399989919  0.25333648793388863  1.0000
  C   C17       1.0  0.005841891424599678  0.7675891092545096  0.4052048124185381  1.0000
  C   C18       1.0  0.005537059688165642  0.8814253248469215  0.48035522836547284  1.0000
  C   C19       1.0  0.0069222345153427955  0.9107977698567759  0.016060843215528253  1.0000
  C   C20       1.0  0.057416557294967197  0.8267344856095528  0.9383099828715382  1.0000
  C   C21       1.0  0.05776236557849912  0.8365438478141889  0.7871749932028131  1.0000
  C   C22       1.0  0.007828348967282794  0.9300249790636551  0.7120814291678137  1.0000
  C   C23       1.0  0.9574443496386544  0.013956354419839117  0.7879704369455527  1.0000
  C   C24       1.0  0.9568890652282297  0.004646536239530924  0.9391072734084883  1.0000
  H   H8        1.0  0.005464108523137501  0.3289705060125585  0.46388964772874774  1.0000
  H   H9        1.0  0.0073961228881658245  0.10803692477087812  0.1951264305002247  1.0000
  H   H10       1.0  0.005389971381967837  0.690925159563069  0.19446486981258015  1.0000
  H   H11       1.0  0.00518600374785816  0.8740692992203203  0.5974217904586723  1.0000
  H   H12       1.0  0.004450065189030678  0.5403713537004782  0.6918505159283017  1.0000
  H   H13       1.0  0.09738942737745626  0.7546416484188978  0.9943263525317071  1.0000
  H   H14       1.0  0.0969562757407949  0.7717892706385522  0.7282406795458689  1.0000
  H   H15       1.0  0.00817716837449156  0.9374248489365107  0.5950922630155171  1.0000
  H   H16       1.0  0.9186000535898463  0.08612730285928638  0.7296534340339114  1.0000
  H   H17       1.0  0.9165806542370595  0.06961462211035731  0.9957516670564245  1.0000
  C   C25       1.0  0.007125289981690709  0.3827272597653153  0.9820763738474466  1.0000
  C   C26       1.0  0.075361804794849  0.43607384546518424  0.050344052315425936  1.0000
  C   C27       1.0  0.1388748340861352  0.4992233683197957  0.9702441288111285  1.0000
  C   C28       1.0  0.13437848402630448  0.5093467195829191  0.8188182848335219  1.0000
  C   C29       1.0  0.06789205344919069  0.45517495935999097  0.7492014276358252  1.0000
  C   C30       1.0  0.004397152317478838  0.3896671353907408  0.8286356598812037  1.0000
  O   O1        1.0  0.2048358647335491  0.5510212443712141  0.04515482883766908  1.0000
  C   C31       1.0  0.2734535852072466  0.6178542442710022  0.9777655084035616  1.0000
  H   H18       1.0  0.80895017340837  0.3073454825620694  0.0939508996520495  1.0000
  H   H19       1.0  0.18237960086397176  0.5578789767896273  0.7536765230537323  1.0000
  H   H20       1.0  0.06722126055659627  0.4618835881113821  0.6321203980643166  1.0000
  H   H21       1.0  0.8722394519975478  0.3337390719029394  0.5537669519199375  1.0000
  H   H22       1.0  0.2511093930873365  0.7062391958870429  0.9134282570456521  1.0000
  H   H23       1.0  0.30817653549714263  0.5526265756205342  0.9072336653690023  1.0000
  H   H24       1.0  0.3161055208702226  0.6479540268021302  0.06241905523532964  1.0000
  Zn  Zn1       1.0  0.9144763841245376  0.3882204488627747  0.4057384715922776  1.0000
  Zn  Zn2       1.0  0.09703810214407849  0.38417354002407716  0.4049729559230073  1.0000
  C   C32       1.0  0.004909889738911483  0.38318137167065025  0.6686199055619011  1.0000
  C   C33       1.0  0.006606589988683575  0.38921421292360886  0.14209165441861216  1.0000
  C   C34       1.0  0.005825624834205234  0.6233597472131811  0.3995180856314604  1.0000
  C   C35       1.0  0.005690792020142775  0.14903427897498672  0.4111935520766674  1.0000
  O   O2        1.0  0.07571372889422423  0.3898498466920394  0.19550373737576532  1.0000
  O   O3        1.0  0.07436287174950817  0.37947324453688475  0.6146263993830727  1.0000
  O   O4        1.0  0.07510140064604909  0.5734203532473741  0.3973247792299841  1.0000
  O   O5        1.0  0.07497513805198519  0.19590274776740624  0.41280524971067956  1.0000
  O   O6        1.0  0.9365392859173011  0.5764912425018092  0.397906178058256  1.0000
  O   O7        1.0  0.9358007575946777  0.38254569357977375  0.6152077207373805  1.0000
  O   O8        1.0  0.9371516203699614  0.39292223626769984  0.1960833257561423  1.0000
  O   O9        1.0  0.9364130291740909  0.19897512893957336  0.4133849461628818  1.0000
