data_image0
_chemical_formula_structural       NC11NC3H8C6NCOC6H11C7OC3NC3H11Zn2C4O8
_chemical_formula_sum              "N4 C44 H30 O10 Zn2"
_cell_length_a       17.807433833752565
_cell_length_b       10.29965916528486
_cell_length_c       10.298749378158433
_cell_angle_alpha    85.57464278776025
_cell_angle_beta     88.5335258425568
_cell_angle_gamma    90.70223866869796

_space_group_name_H-M_alt    "P 1"
_space_group_IT_number       1

loop_
  _space_group_symop_operation_xyz
  'x, y, z'

loop_
  _atom_site_type_symbol
  _atom_site_label
  _atom_site_symmetry_multiplicity
  _atom_site_fract_x
  _atom_site_fract_y
  _atom_site_fract_z
  _atom_site_occupancy
  N   N1        1.0  0.7075273173527251  0.43855559090188156  0.5350119800774563  1.0000
  C   C1        1.0  0.6567079581156685  0.4038246624326236  0.6015679873123791  1.0000
  C   C2        1.0  0.5934835493130529  0.36062225045653745  0.6843551663273839  1.0000
  C   C3        1.0  0.6052109654384589  0.2970642785601388  0.807062045651133  1.0000
  C   C4        1.0  0.5438940305406524  0.25554177605064776  0.8875656710514638  1.0000
  C   C5        1.0  0.47069533665962277  0.27726393599765387  0.8460031585252301  1.0000
  C   C6        1.0  0.4579911115785726  0.3409764900983332  0.7228360983447792  1.0000
  C   C7        1.0  0.38022417289192306  0.364028947339768  0.6784931612367759  1.0000
  C   C8        1.0  0.3614257208484971  0.3471665783383049  0.5488978488971478  1.0000
  C   C9        1.0  0.2881970736618894  0.36885001431742076  0.5072912490992323  1.0000
  C   C10       1.0  0.2328237843844005  0.40771440064805864  0.5944597303909411  1.0000
  C   C11       1.0  0.15745840458212912  0.4300563884050568  0.5514919494093238  1.0000
  N   N2        1.0  0.0968700126636506  0.44801768673993164  0.5169489806757706  1.0000
  C   C12       1.0  0.2509306605253149  0.42478738137677596  0.7235239378208621  1.0000
  C   C13       1.0  0.3241065634753469  0.4030689973532027  0.7653859743595248  1.0000
  C   C14       1.0  0.5201653590825234  0.38249442656361277  0.6423488884997026  1.0000
  H   H1        1.0  0.6616768086114176  0.27964770864750577  0.8404244008915981  1.0000
  H   H2        1.0  0.553092275234979  0.20608355825255265  0.9822927667300341  1.0000
  H   H3        1.0  0.4240559225623009  0.24270396077197118  0.9094357082104322  1.0000
  H   H4        1.0  0.40309224628958995  0.31553046475190705  0.480166072669586  1.0000
  H   H5        1.0  0.2747439608705175  0.3549769294716454  0.4072449100788411  1.0000
  H   H6        1.0  0.20854709189303694  0.45520053232174035  0.7917405124758055  1.0000
  H   H7        1.0  0.3370314951949421  0.41848747160425326  0.865250045224691  1.0000
  H   H8        1.0  0.5116658498905917  0.43331495042854756  0.5478565664358463  1.0000
  C   C15       1.0  0.9021361628118666  0.06192444008581876  0.5258678698391215  1.0000
  C   C16       1.0  0.9026344545122621  0.07122844965223908  0.3890192339247669  1.0000
  C   C17       1.0  0.9039932929244696  0.9591064236116938  0.3201158046386452  1.0000
  C   C18       1.0  0.9027760289644946  0.8360415737638145  0.38930907069888554  1.0000
  C   C19       1.0  0.9022683329777463  0.824638981592508  0.5261039155343878  1.0000
  C   C20       1.0  0.9022156236498448  0.9381948312679336  0.5935989256399017  1.0000
  N   N3        1.0  0.9033485958191602  0.9721747670213785  0.18006983170674618  1.0000
  C   C21       1.0  0.9385567760821626  0.8819079443233191  0.09870473319690376  1.0000
  O   O1        1.0  0.9903867971352268  0.8103451365080077  0.14328145775687684  1.0000
  C   C22       1.0  0.9167077577178028  0.8751914542950628  0.96134253531664  1.0000
  C   C23       1.0  0.8472357460976118  0.9233641172662199  0.9182166089084943  1.0000
  C   C24       1.0  0.8270929145360915  0.9158717213953039  0.788619408536261  1.0000
  C   C25       1.0  0.8757221988260001  0.8599734428431008  0.7009007629341699  1.0000
  C   C26       1.0  0.9445327518577507  0.8109972942057311  0.7426810620960378  1.0000
  C   C27       1.0  0.9649623741570679  0.8181403357619933  0.8721604753559772  1.0000
  H   H9        1.0  0.9004791693671863  0.25162051934864077  0.7840415316649499  1.0000
  H   H10       1.0  0.9025431762924258  0.16583986640438653  0.33519675203052013  1.0000
  H   H11       1.0  0.9009055839072683  0.7492097676775925  0.3365868619879344  1.0000
  H   H12       1.0  0.9018415424616452  0.9301573459598056  0.6990933149977766  1.0000
  H   H13       1.0  0.9010740998661481  0.49279157553262887  0.5786244329834473  1.0000
  H   H14       1.0  0.8819088981857338  0.05779036515857294  0.13512090128568954  1.0000
  H   H15       1.0  0.8078737934053699  0.9650991304945548  0.9845295561677481  1.0000
  H   H16       1.0  0.7735494989977532  0.9530065946775654  0.7563153449454892  1.0000
  H   H17       1.0  0.8599803760116985  0.8542417211377591  0.600666630694223  1.0000
  H   H18       1.0  0.9821170274895463  0.7674234468403903  0.674686747062291  1.0000
  H   H19       1.0  0.01869371833782307  0.7798240890390863  0.9022369592042349  1.0000
  C   C28       1.0  0.902167609947295  0.44330889017394126  0.14458646357794103  1.0000
  C   C29       1.0  0.9432240252034778  0.5611687578464768  0.13269913208405582  1.0000
  C   C30       1.0  0.96323098150271  0.6215494092247222  0.00948462843262487  1.0000
  C   C31       1.0  0.9432270194048096  0.5612176909224615  0.8974549792672222  1.0000
  C   C32       1.0  0.9022368764512497  0.4432545424815242  0.9073853420051335  1.0000
  C   C33       1.0  0.8817947418914929  0.38522509028959173  0.0313695010388666  1.0000
  C   C34       1.0  0.007195360524885115  0.7453830127134571  0.9968038090409559  1.0000
  O   O2        1.0  0.05414067080988771  0.7648662922983083  0.903284753777032  1.0000
  C   C35       1.0  0.9979044299247445  0.8471056997174765  0.09015691077319321  1.0000
  C   C36       1.0  0.9276253149925103  0.8679712177174802  0.1501288548485948  1.0000
  C   C37       1.0  0.9192387248441581  0.9652671995728795  0.23724917609610882  1.0000
  N   N4        1.0  0.8477168329293711  0.9853801547116554  0.2982464332874786  1.0000
  C   C38       1.0  0.9812434626784  0.04302344969439131  0.2637944353229449  1.0000
  C   C39       1.0  0.05093090817912737  0.02409415910299373  0.20339122628755654  1.0000
  C   C40       1.0  0.059274258304556904  0.9271087897824339  0.11664981471072955  1.0000
  H   H20       1.0  0.8255866687400144  0.21962229594627014  0.37444157931268673  1.0000
  H   H21       1.0  0.9603885727419206  0.6054307081905319  0.21946287922544627  1.0000
  H   H22       1.0  0.9590787497210624  0.6071238522458213  0.8023277017657109  1.0000
  H   H23       1.0  0.8501512306177003  0.29437409404791515  0.03978053171539586  1.0000
  H   H24       1.0  0.8250580453369527  0.2201323932000856  0.7188517659412552  1.0000
  H   H25       1.0  0.8791421848349777  0.809787025079359  0.12831706644141883  1.0000
  H   H26       1.0  0.8011221058984578  0.9279770153206557  0.2791622616897617  1.0000
  H   H27       1.0  0.8408460603037929  0.05772989931642369  0.3630759452908361  1.0000
  H   H28       1.0  0.9754838666463177  0.11849608676387113  0.33081872088879866  1.0000
  H   H29       1.0  0.09861189132827408  0.08471861715616802  0.22383436637369614  1.0000
  H   H30       1.0  0.1138491032079514  0.9137907482061907  0.07111277315461617  1.0000
  Zn  Zn1       1.0  0.819883208830863  0.4412826722567964  0.5298068726749006  1.0000
  Zn  Zn2       1.0  0.9845141055461801  0.4452799852239369  0.5221646716523918  1.0000
  C   C41       1.0  0.9022212272126906  0.4380912055773498  0.7631984986396426  1.0000
  C   C42       1.0  0.9021778852241804  0.4484731341359125  0.288773090218867  1.0000
  C   C43       1.0  0.9022390226504353  0.6804700008843478  0.5208839096311662  1.0000
  C   C44       1.0  0.9021600333453047  0.20609277718454685  0.5310877505963427  1.0000
  O   O3        1.0  0.9646579000414192  0.45171759538151685  0.33426326206670853  1.0000
  O   O4        1.0  0.9646922534989821  0.43787963270344843  0.7119076988650239  1.0000
  O   O5        1.0  0.964705781448673  0.633603554666567  0.516236993339021  1.0000
  O   O6        1.0  0.9646443159071196  0.2559936813513817  0.5299338728208907  1.0000
  O   O7        1.0  0.8397529422894777  0.6305689747666794  0.5220376741074786  1.0000
  O   O8        1.0  0.839739414600473  0.4348466130852557  0.7177083108655595  1.0000
  O   O9        1.0  0.8397050610431938  0.4486845306205649  0.34006231252525354  1.0000
  O   O10       1.0  0.8396914769130575  0.2529606072947741  0.5357330206523336  1.0000
