data_image0
_chemical_formula_structural       NC12NC2H8C6OCH8C6NO2H5Zn2C4O8
_chemical_formula_sum              "N3 C31 H21 O11 Zn2"
_cell_length_a       17.80743265337812
_cell_length_b       9.273888216677431
_cell_length_c       9.27342699604674
_cell_angle_alpha    85.35685117881545
_cell_angle_beta     91.97882923782456
_cell_angle_gamma    88.85715842325122

_space_group_name_H-M_alt    "P 1"
_space_group_IT_number       1

loop_
  _space_group_symop_operation_xyz
  'x, y, z'

loop_
  _atom_site_type_symbol
  _atom_site_label
  _atom_site_symmetry_multiplicity
  _atom_site_fract_x
  _atom_site_fract_y
  _atom_site_fract_z
  _atom_site_occupancy
  N   N1        1.0  0.6928800609634341  0.5733116194716528  0.450406678532847  1.0000
  C   C1        1.0  0.6415740962930807  0.6066869884590858  0.374152516046445  1.0000
  C   C2        1.0  0.5777445135675267  0.6482034954805818  0.2793019426885277  1.0000
  C   C3        1.0  0.588577811717027  0.7092077803792864  0.13875500980780986  1.0000
  C   C4        1.0  0.5266752656631511  0.7490353660317688  0.04656222390073884  1.0000
  C   C5        1.0  0.4537805666448423  0.7281565307206248  0.0941838195559337  1.0000
  C   C6        1.0  0.4419733313297611  0.6670165635249488  0.23525067853482878  1.0000
  C   C7        1.0  0.5047330988487124  0.6271927236677883  0.3274251229399703  1.0000
  C   C8        1.0  0.3645299945088175  0.6448775755102361  0.286047559984257  1.0000
  C   C9        1.0  0.3461710876290459  0.6740489450080434  0.4273590879312128  1.0000
  C   C10       1.0  0.2732463890995985  0.6532159508811308  0.47502592028891516  1.0000
  C   C11       1.0  0.21774294757099405  0.6029225049683744  0.38231173498026516  1.0000
  C   C12       1.0  0.14269127465505113  0.5814643767318217  0.43153374710401726  1.0000
  N   N2        1.0  0.0823550452862169  0.5642134853377123  0.47110485860051626  1.0000
  C   C13       1.0  0.23541383232660695  0.5735592082411731  0.24160312493557615  1.0000
  C   C14       1.0  0.30828441407904394  0.5944106727896559  0.1936519198878135  1.0000
  H   H1        1.0  0.6447995984812483  0.72594537508441  0.10053069654473434  1.0000
  H   H2        1.0  0.5351808107053105  0.7965672543166232  0.9380296151421562  1.0000
  H   H3        1.0  0.4066685992252739  0.7615920564273717  0.021384506810030457  1.0000
  H   H4        1.0  0.4969333656702544  0.5781234733777052  0.43581441506201113  1.0000
  H   H5        1.0  0.3879342294798564  0.714810158972089  0.5003795054179478  1.0000
  H   H6        1.0  0.2601274350284031  0.6766893274140255  0.584044410047407  1.0000
  H   H7        1.0  0.1929283907125476  0.5342019771076121  0.1690462849781436  1.0000
  H   H8        1.0  0.32088523697705823  0.5692296675609119  0.08496506346021859  1.0000
  C   C15       1.0  0.8898216637428401  0.1452595005834589  0.4593983665349046  1.0000
  C   C16       1.0  0.8717404512892337  0.2298659494103794  0.3295295397348375  1.0000
  C   C17       1.0  0.8472892316816165  0.16659331392603938  0.20498429119645034  1.0000
  C   C18       1.0  0.8407783278875339  0.015727369580274653  0.2098369092322028  1.0000
  C   C19       1.0  0.8596344986828558  0.929927554475153  0.3369707911224405  1.0000
  C   C20       1.0  0.8854207279781198  0.9922542749596012  0.46212595940383455  1.0000
  O   O1        1.0  0.82968101077117  0.25732549069034727  0.07938360761092267  1.0000
  C   C21       1.0  0.8040507124174934  0.2079488151508577  0.9452065573069791  1.0000
  H   H9        1.0  0.8974083163666412  0.2192285845027722  0.8149589224931548  1.0000
  H   H10       1.0  0.8748968238250722  0.3466983591083713  0.32541949052781644  1.0000
  H   H11       1.0  0.8218437038636195  0.9633998197110198  0.11549072732711618  1.0000
  H   H12       1.0  0.855727367072578  0.8135538408648486  0.3362825838560588  1.0000
  H   H13       1.0  0.893675439409161  0.6914283183374174  0.7007768380624408  1.0000
  H   H14       1.0  0.75019079875188  0.1509640874420981  0.958977212450473  1.0000
  H   H15       1.0  0.8470177413284553  0.13464608857703483  0.9042146643251573  1.0000
  H   H16       1.0  0.7945814736420876  0.3024256862289616  0.8649122290047955  1.0000
  C   C22       1.0  0.8858719118597183  0.5718267351967601  0.03685296448438381  1.0000
  C   C23       1.0  0.928958293829007  0.6738911376314385  0.10523589897261743  1.0000
  C   C24       1.0  0.9770332400651377  0.766375145464901  0.026604246931424946  1.0000
  C   C25       1.0  0.9818590487256963  0.7558679131735762  0.8771820287426594  1.0000
  C   C26       1.0  0.9385965551325814  0.6569578280630026  0.807317201215368  1.0000
  C   C27       1.0  0.8893704761890336  0.5656869831817433  0.884671409646828  1.0000
  N   N3        1.0  0.021179736656389503  0.8693084782224072  0.09872861289352808  1.0000
  O   O2        1.0  0.01629604822409792  0.8797367169931908  0.2453201120149502  1.0000
  O   O3        1.0  0.06443333859428303  0.951057433844869  0.029469100724621278  1.0000
  H   H17       1.0  0.781455186992692  0.4455099648970083  0.3203375778181757  1.0000
  H   H18       1.0  0.9263477822517685  0.6789570503466147  0.22122628998704297  1.0000
  H   H19       1.0  0.018625546938020775  0.8253286578417849  0.8137357916704897  1.0000
  H   H20       1.0  0.9423402799654765  0.6542709378044465  0.6911971495865817  1.0000
  H   H21       1.0  0.7326011799673283  0.3848320239528158  0.78607821920409  1.0000
  Zn  Zn1       1.0  0.8052741860027014  0.5706821838760654  0.4563880358675479  1.0000
  Zn  Zn2       1.0  0.9699610274660264  0.5668310718289931  0.4651352380489982  1.0000
  C   C28       1.0  0.8887373633292227  0.5611023422428518  0.7243969363979659  1.0000
  C   C29       1.0  0.8864996396445748  0.5764126900380342  0.197126580582478  1.0000
  C   C30       1.0  0.8862250058053505  0.8321959819442275  0.4558577348854149  1.0000
  C   C31       1.0  0.8890119502928319  0.3053173184070792  0.4656658504923674  1.0000
  O   O4        1.0  0.949208141577357  0.5764840097262109  0.25423536764275134  1.0000
  O   O5        1.0  0.9510223674111709  0.5581070326656894  0.6739266543461813  1.0000
  O   O6        1.0  0.948992770631365  0.7770185840030102  0.4570793092450625  1.0000
  O   O7        1.0  0.9512376816604492  0.35757247080345134  0.47108260155581627  1.0000
  O   O8        1.0  0.8239974756087022  0.7799407862174275  0.45044066936815064  1.0000
  O   O9        1.0  0.8260270630645471  0.5610309681255063  0.6672879430793526  1.0000
  O   O10       1.0  0.8242128303798892  0.5794079074975378  0.2475949206476216  1.0000
  O   O11       1.0  0.8262423709601191  0.36049635747603764  0.4644422627561622  1.0000
