data_image0
_chemical_formula_structural       NC5NC4H6C7NH5C6FH3Zn2C4O8
_chemical_formula_sum              "N3 C26 H14 F1 Zn2 O8"
_cell_length_a       13.854160002989762
_cell_length_b       9.275154477615127
_cell_length_c       9.275646106892307
_cell_angle_alpha    85.17883559390603
_cell_angle_beta     90.02253834339291
_cell_angle_gamma    89.43370676253429

_space_group_name_H-M_alt    "P 1"
_space_group_IT_number       1

loop_
  _space_group_symop_operation_xyz
  'x, y, z'

loop_
  _atom_site_type_symbol
  _atom_site_label
  _atom_site_symmetry_multiplicity
  _atom_site_fract_x
  _atom_site_fract_y
  _atom_site_fract_z
  _atom_site_occupancy
  N   N1        1.0  0.8979387893030554  0.5947708901323518  0.41428963680920705  1.0000
  C   C1        1.0  0.8254196314277304  0.6206037683358283  0.35527398969751434  1.0000
  C   C2        1.0  0.7352047755211792  0.6527405765186853  0.28185626388207474  1.0000
  C   C3        1.0  0.6478525236343682  0.622502655462364  0.3535466792808546  1.0000
  C   C4        1.0  0.5600623630474153  0.6527405910903104  0.281856240739175  1.0000
  C   C5        1.0  0.47031149106827796  0.6206036200896974  0.3552740808417578  1.0000
  N   N2        1.0  0.39816521912514274  0.5947708266579339  0.4142896364701161  1.0000
  C   C6        1.0  0.5596530846559163  0.7138224287135531  0.13849681363151034  1.0000
  C   C7        1.0  0.6469583492209303  0.7462108460204033  0.06671138152648615  1.0000
  C   C8        1.0  0.6465109885196009  0.8076562362804247  0.9118504014038306  1.0000
  C   C9        1.0  0.734730173670177  0.7138224283512393  0.1384967232418366  1.0000
  H   H1        1.0  0.6481953379137663  0.5751152419509001  0.4645038014971865  1.0000
  H   H2        1.0  0.49161743039117844  0.7361948326946872  0.08286836008852738  1.0000
  H   H3        1.0  0.7109065214169127  0.8760473026702758  0.8883066517536999  1.0000
  H   H4        1.0  0.5811980437675788  0.8760473038525486  0.8883067169225428  1.0000
  H   H5        1.0  0.6470858049996563  0.7179255812098362  0.8398523434561547  1.0000
  H   H6        1.0  0.8024403887007061  0.7361949460508415  0.0828682750087042  1.0000
  C   C10       1.0  0.15084920560618698  0.1713993398448599  0.4126195520942435  1.0000
  C   C11       1.0  0.124312261781889  0.2559332747697993  0.28536861816753567  1.0000
  C   C12       1.0  0.08992650377920408  0.19117793282960238  0.16485835522183104  1.0000
  C   C13       1.0  0.08151170191215273  0.04100075196153452  0.17017975653568929  1.0000
  C   C14       1.0  0.10894227293067545  0.955290024529973  0.2945301068749995  1.0000
  C   C15       1.0  0.145264128473799  0.01813116248628077  0.41597223775706516  1.0000
  C   C16       1.0  0.06210489826871557  0.279310009677624  0.036073715638236255  1.0000
  N   N3        1.0  0.03974404375129568  0.35015194219855467  0.9325638533018452  1.0000
  H   H7        1.0  0.16968338887266599  0.24429852302837166  0.7668841945244486  1.0000
  H   H8        1.0  0.12825273851866537  0.37293826831620214  0.2810863254628298  1.0000
  H   H9        1.0  0.05456977471519342  0.9898603061860448  0.07756005077697004  1.0000
  H   H10       1.0  0.10387374469552424  0.8388237814888804  0.29440309291643674  1.0000
  H   H11       1.0  0.1620413123254409  0.7168336534337483  0.6533396254435246  1.0000
  C   C17       1.0  0.14791456417892013  0.5992777067418966  0.9904732969585117  1.0000
  C   C18       1.0  0.2361936012977313  0.614345890127205  0.06259381948914512  1.0000
  C   C19       1.0  0.323365509733343  0.6158768312614045  0.9871540706859623  1.0000
  C   C20       1.0  0.3237902692967771  0.6022217733105908  0.8387237488227295  1.0000
  C   C21       1.0  0.2370079005263678  0.5895574604078293  0.7646807855416645  1.0000
  C   C22       1.0  0.148198727380872  0.5902527930182979  0.8381184456934752  1.0000
  F   F1        1.0  0.40780704590507644  0.6288931330545042  0.05864082952585892  1.0000
  H   H12       1.0  0.9248702227869405  0.4821481691507746  0.10316240997024709  1.0000
  H   H13       1.0  0.3914722902082638  0.6028249003334627  0.780410780036938  1.0000
  H   H14       1.0  0.9971554980808054  0.5173247780227384  0.5629839201708706  1.0000
  Zn  Zn1       1.0  0.04229336527490934  0.594766923069499  0.4142979649036538  1.0000
  Zn  Zn2       1.0  0.25381072612108757  0.5947628697325924  0.4142931147338672  1.0000
  C   C23       1.0  0.14818077429106324  0.5862151902305712  0.677872623271772  1.0000
  C   C24       1.0  0.14792561491662345  0.6033164201099683  0.15071860517139846  1.0000
  C   C25       1.0  0.14631292618114644  0.8581420393984233  0.40958720579192104  1.0000
  C   C26       1.0  0.14979340230157878  0.3313878379758588  0.4190040927406638  1.0000
  O   O1        1.0  0.22819910124172882  0.6046640212454721  0.20449652894815662  1.0000
  O   O2        1.0  0.2284440777043597  0.5848634295041741  0.6240905985596534  1.0000
  O   O3        1.0  0.22693468516216075  0.8044477832342323  0.4074482317412616  1.0000
  O   O4        1.0  0.22970842150307041  0.3850796789823743  0.42113878759470724  1.0000
  O   O5        1.0  0.06639559771241908  0.8044501138227507  0.4074522920368837  1.0000
  O   O6        1.0  0.0679049787990722  0.5848674930619826  0.6240945887599316  1.0000
  O   O7        1.0  0.06766000215023782  0.604668053037938  0.20449878373503272  1.0000
  O   O8        1.0  0.06916932251192942  0.38508369931091324  0.4211411505474947  1.0000
