data_image0
_chemical_formula_structural       NC5N2C2NH4C6NH7C6NH7Zn2C4O8
_chemical_formula_sum              "N6 C23 H18 Zn2 O8"
_cell_length_a       13.87973921873968
_cell_length_b       9.274771166103582
_cell_length_c       9.274774538082514
_cell_angle_alpha    84.9550519661537
_cell_angle_beta     90.34966886769374
_cell_angle_gamma    90.59705032410349

_space_group_name_H-M_alt    "P 1"
_space_group_IT_number       1

loop_
  _space_group_symop_operation_xyz
  'x, y, z'

loop_
  _atom_site_type_symbol
  _atom_site_label
  _atom_site_symmetry_multiplicity
  _atom_site_fract_x
  _atom_site_fract_y
  _atom_site_fract_z
  _atom_site_occupancy
  N   N1        1.0  0.9118187491740103  0.5925437340211657  0.4051316530917374  1.0000
  C   C1        1.0  0.838652487734962  0.617579608329953  0.348379044323229  1.0000
  C   C2        1.0  0.7477826561692189  0.648676617064174  0.2778861718232484  1.0000
  C   C3        1.0  0.6614238135637617  0.6173343004564462  0.35123012007354126  1.0000
  C   C4        1.0  0.5749032547272238  0.6486765520712765  0.2778862118933907  1.0000
  C   C5        1.0  0.48417536457627414  0.617579464491798  0.34837894123544233  1.0000
  N   N2        1.0  0.411123317811274  0.592543709487427  0.4051316421300299  1.0000
  N   N3        1.0  0.5763913884271987  0.708542178109836  0.13885296972913627  1.0000
  C   C6        1.0  0.6611276909728039  0.7397750273952948  0.06955738547721046  1.0000
  C   C7        1.0  0.6609304054905234  0.8016473173158967  0.9155092724934439  1.0000
  N   N4        1.0  0.7459942868072773  0.7085421313404558  0.13885298057870998  1.0000
  H   H1        1.0  0.6615427999764347  0.5694363864734997  0.462181396294147  1.0000
  H   H2        1.0  0.7263144496143144  0.8697318824434935  0.8929615791480868  1.0000
  H   H3        1.0  0.6600150068091173  0.7123108953810199  0.8433651545440046  1.0000
  H   H4        1.0  0.5963096118511777  0.8697298248634875  0.8929608159766493  1.0000
  C   C8        1.0  0.15852090579086253  0.16894031217625358  0.4059183270377748  1.0000
  C   C9        1.0  0.1358320654501306  0.25337259275721924  0.27685336514417314  1.0000
  C   C10       1.0  0.12213530028436125  0.18945386371919315  0.14696954205122847  1.0000
  C   C11       1.0  0.13117410401947494  0.03973357053637949  0.14520992018753387  1.0000
  C   C12       1.0  0.1520742367786545  0.9539972959989408  0.2725019068532111  1.0000
  C   C13       1.0  0.16443035890196597  0.01613593752273924  0.40435751407819387  1.0000
  N   N5        1.0  0.10003269704281913  0.2769979904435369  0.016486081443776165  1.0000
  H   H5        1.0  0.2682184220162416  0.24585100169136886  0.7217799960466775  1.0000
  H   H6        1.0  0.13097200415670995  0.3699701273530793  0.2762989679790815  1.0000
  H   H7        1.0  0.12109182161224719  0.9891162740400796  0.04527742233130349  1.0000
  H   H8        1.0  0.15630355301579324  0.8378692623510642  0.2683684771045727  1.0000
  H   H9        1.0  0.2344197519427728  0.7171989061793056  0.6192552853828805  1.0000
  H   H10       1.0  0.09339445795933375  0.38907230030779705  0.016439204589264962  1.0000
  H   H11       1.0  0.0900506539937671  0.23037723990718637  0.9189270993126777  1.0000
  C   C14       1.0  0.15977230761144212  0.5962275475921028  0.9813147934140324  1.0000
  C   C15       1.0  0.2286342910682242  0.681352970306152  0.04789446870102387  1.0000
  C   C16       1.0  0.30173571772385727  0.7545958156120158  0.96699460971349  1.0000
  C   C17       1.0  0.3065653966073738  0.7430454209121742  0.8180384745028357  1.0000
  C   C18       1.0  0.23803468229409797  0.6610977097626837  0.7497503821352827  1.0000
  C   C19       1.0  0.1631789335613445  0.5888486260981003  0.8289610144135775  1.0000
  N   N6        1.0  0.37170234865197455  0.839520553222495  0.03657989985995669  1.0000
  H   H12       1.0  0.013793172806415562  0.3142416001733241  0.1077546327048946  1.0000
  H   H13       1.0  0.2269477552925525  0.6881944157330822  0.1639019936263102  1.0000
  H   H14       1.0  0.3629994973884291  0.7987783410002463  0.754405021929891  1.0000
  H   H15       1.0  0.24230290479634228  0.6570851898543406  0.6335847250475619  1.0000
  H   H16       1.0  0.06192855020241361  0.4033126020660323  0.5632210607923698  1.0000
  H   H17       1.0  0.3689676923077603  0.84856650153965  0.1479331568342297  1.0000
  H   H18       1.0  0.4267379287264796  0.8941191075097404  0.9772372218802556  1.0000
  Zn  Zn1       1.0  0.05590726971135406  0.5925397888371116  0.4051399942314719  1.0000
  Zn  Zn2       1.0  0.2670347480296482  0.5925357352950602  0.4051351539989789  1.0000
  C   C20       1.0  0.16249278027926328  0.5844967975024926  0.6687483176066904  1.0000
  C   C21       1.0  0.1604515562321882  0.6005805454395958  0.14152696887372618  1.0000
  C   C22       1.0  0.16328526151534772  0.8560479657493343  0.39890124146271594  1.0000
  C   C23       1.0  0.1596589911734323  0.32902764342715374  0.41137412515866223  1.0000
  O   O1        1.0  0.2408012520991647  0.6020336197944256  0.19529381326564366  1.0000
  O   O2        1.0  0.24238394603818136  0.5830395619985438  0.6149773861324268  1.0000
  O   O3        1.0  0.243022810609963  0.8023205515479861  0.3970739601947323  1.0000
  O   O4        1.0  0.24016231512094732  0.3827526415074498  0.41319713097150806  1.0000
  O   O5        1.0  0.08277963057258896  0.8023228826277418  0.39707801725299996  1.0000
  O   O6        1.0  0.08214077777601236  0.5830436268469188  0.6149813630437901  1.0000
  O   O7        1.0  0.08055807657671843  0.6020376494803075  0.195296055052949  1.0000
  O   O8        1.0  0.07991913995747013  0.3827566599338847  0.4131994809847005  1.0000
