data_image0
_chemical_formula_structural       NC8NH4C7NH5C6FH3Zn2C4O8
_chemical_formula_sum              "N3 C25 H12 F1 Zn2 O8"
_cell_length_a       13.859017124695912
_cell_length_b       9.275154477615127
_cell_length_c       9.275646106892307
_cell_angle_alpha    85.17883559390603
_cell_angle_beta     90.02252343401597
_cell_angle_gamma    89.43373790894346

_space_group_name_H-M_alt    "P 1"
_space_group_IT_number       1

loop_
  _space_group_symop_operation_xyz
  'x, y, z'

loop_
  _atom_site_type_symbol
  _atom_site_label
  _atom_site_symmetry_multiplicity
  _atom_site_fract_x
  _atom_site_fract_y
  _atom_site_fract_z
  _atom_site_occupancy
  N   N1        1.0  0.8976240866458783  0.5947716540089871  0.41428922361354603  1.0000
  C   C1        1.0  0.8254019478324608  0.5725180107556047  0.3579617176709984  1.0000
  C   C2        1.0  0.7355618833602251  0.5448377457323561  0.2878975411454716  1.0000
  C   C3        1.0  0.6477861757062826  0.5718232224907605  0.35620130090981084  1.0000
  C   C4        1.0  0.5603315552025838  0.544838977372305  0.2878969659531183  1.0000
  C   C5        1.0  0.5608350938951269  0.4908619807762633  0.15126790889607755  1.0000
  C   C6        1.0  0.6484276244946273  0.4639802170410978  0.0832270679447289  1.0000
  C   C7        1.0  0.7357004686965601  0.49085961944514406  0.1512690794637821  1.0000
  C   C8        1.0  0.4701621028221336  0.5725189423466419  0.35796122267977726  1.0000
  N   N2        1.0  0.3976752100291208  0.5947719788272614  0.4142890086018216  1.0000
  H   H1        1.0  0.6475376222029312  0.6136035486064146  0.4619554677495481  1.0000
  H   H2        1.0  0.4936660024252333  0.4696234698417392  0.09750538079724502  1.0000
  H   H3        1.0  0.6486757357000827  0.42228525382694504  0.9776870741347962  1.0000
  H   H4        1.0  0.8031222491948163  0.4696189977460092  0.09750754356328928  1.0000
  C   C9        1.0  0.15044586485809863  0.1714003188724169  0.4126190225192843  1.0000
  C   C10       1.0  0.12391822149707754  0.25593423122237513  0.2853681008038207  1.0000
  C   C11       1.0  0.0895445147494911  0.19117886003020956  0.16485785368107164  1.0000
  C   C12       1.0  0.08113266203725811  0.04100167200366877  0.17017925886708696  1.0000
  C   C13       1.0  0.1085536194009411  0.9552909679072971  0.29452959658394096  1.0000
  C   C14       1.0  0.14486274514044206  0.018132136762611946  0.41597171075213546  1.0000
  C   C15       1.0  0.06173265994059294  0.2793109132103877  0.03607322689987181  1.0000
  N   N3        1.0  0.03937964228289825  0.35015282670893694  0.9325633748530554  1.0000
  H   H5        1.0  0.1692734472653763  0.24429951807817044  0.7668836562827481  1.0000
  H   H6        1.0  0.12785731720597718  0.37293922812094155  0.28108580628586455  1.0000
  H   H7        1.0  0.054200177239022596  0.9898612033086782  0.07755956550596976  1.0000
  H   H8        1.0  0.10348686754445026  0.8388247205544069  0.29440258495771277  1.0000
  H   H9        1.0  0.16163404905416281  0.7168346419824317  0.6533390907184033  1.0000
  C   C16       1.0  0.14751225194131146  0.5992786832729535  0.9904727687339574  1.0000
  C   C17       1.0  0.23576034970447218  0.6143469417572494  0.06259325064209409  1.0000
  C   C18       1.0  0.32290170680235125  0.6158779570486019  0.9871534617258715  1.0000
  C   C19       1.0  0.3233263174993306  0.602222899459131  0.8387231396671817  1.0000
  C   C20       1.0  0.23657436354379963  0.5895585127305982  0.7646802163199058  1.0000
  C   C21       1.0  0.14779631555193729  0.5902537697910925  0.8381179173381601  1.0000
  F   F1        1.0  0.40731364855615015  0.628894330676127  0.058640181709137096  1.0000
  H   H10       1.0  0.9245460814087945  0.48214895593798324  0.10316198438181345  1.0000
  H   H11       1.0  0.39098461773845394  0.6028260840591058  0.7804101397368202  1.0000
  H   H12       1.0  0.9968060227172248  0.5173256263030396  0.5629834613196323  1.0000
  Zn  Zn1       1.0  0.04192807033997803  0.5947678097485893  0.4142974852817678  1.0000
  Zn  Zn2       1.0  0.2533713002138782  0.5947639363495271  0.41429253778011743  1.0000
  C   C22       1.0  0.14777836875418915  0.5862161669880932  0.6778720949247183  1.0000
  C   C23       1.0  0.14752329880603754  0.6033173966504257  0.15071807694175865  1.0000
  C   C24       1.0  0.1459111752732627  0.8581430145669671  0.40958667830437645  1.0000
  C   C25       1.0  0.14939043158328455  0.3313888161052436  0.4190035636515428  1.0000
  O   O1        1.0  0.22776865149915326  0.6046650660745942  0.2044959637798569  1.0000
  O   O2        1.0  0.2280135421043239  0.5848644745416978  0.6240900332786248  1.0000
  O   O3        1.0  0.22650467856237477  0.8044488269877152  0.4074476671547951  1.0000
  O   O4        1.0  0.2292774427855777  0.38508072509547553  0.42113822173187754  1.0000
  O   O5        1.0  0.0660218556130683  0.804451021005613  0.40745180132411063  1.0000
  O   O6        1.0  0.06753070770348635  0.5848684015288759  0.624094097352601  1.0000
  O   O7        1.0  0.0672858169121775  0.6046689612964294  0.2044982924404306  1.0000
  O   O8        1.0  0.06879460829891659  0.3850846088533837  0.42114065855836325  1.0000
