data_image0
_chemical_formula_structural       NC12NC2H8C7NC2OH7C6NCOCH9Zn2C4O8
_chemical_formula_sum              "N4 C35 H24 O10 Zn2"
_cell_length_a       17.80743265337812
_cell_length_b       10.300333997791364
_cell_length_c       10.30027207537675
_cell_angle_alpha    85.54053230735862
_cell_angle_beta     91.53227337963533
_cell_angle_gamma    89.43519355652523

_space_group_name_H-M_alt    "P 1"
_space_group_IT_number       1

loop_
  _space_group_symop_operation_xyz
  'x, y, z'

loop_
  _atom_site_type_symbol
  _atom_site_label
  _atom_site_symmetry_multiplicity
  _atom_site_fract_x
  _atom_site_fract_y
  _atom_site_fract_z
  _atom_site_occupancy
  N   N1        1.0  0.7074324887803449  0.40704172344275036  0.6014366337234259  1.0000
  C   C1        1.0  0.6566132445983438  0.4366205352242951  0.5327424157180531  1.0000
  C   C2        1.0  0.5933890899780546  0.47341442886033425  0.44729545597702036  1.0000
  C   C3        1.0  0.6051168191547703  0.5274720253137876  0.3206840269552558  1.0000
  C   C4        1.0  0.5437999993216773  0.5627616599907267  0.23763288413066877  1.0000
  C   C5        1.0  0.47060115272528247  0.5442573561842582  0.2805333112678954  1.0000
  C   C6        1.0  0.4578966462847467  0.49008081536956105  0.4076128534024064  1.0000
  C   C7        1.0  0.5200707823535219  0.45479443963774185  0.49064748556030824  1.0000
  C   C8        1.0  0.3801295695350211  0.4704615444773594  0.45337338768012075  1.0000
  C   C9        1.0  0.36134273049752413  0.4976059968496959  0.5804108077610339  1.0000
  C   C10       1.0  0.288113937507543  0.47914325095937244  0.6233517961799686  1.0000
  C   C11       1.0  0.23272900987876777  0.4332815313393323  0.5400932795388571  1.0000
  C   C12       1.0  0.15736360527529897  0.4142655504793027  0.5844351037427213  1.0000
  N   N2        1.0  0.0967751570436778  0.3989779808044997  0.6200828799808122  1.0000
  C   C13       1.0  0.2508243532211016  0.40596800508262554  0.41359879429146257  1.0000
  C   C14       1.0  0.32400029252204543  0.4244456164488712  0.3704019340522247  1.0000
  H   H1        1.0  0.6615826250778426  0.5423057682934218  0.2862493043011771  1.0000
  H   H2        1.0  0.5529984434816337  0.6048870479667188  0.13986026689938647  1.0000
  H   H3        1.0  0.42396204247524033  0.5739117895542966  0.21494685912530742  1.0000
  H   H4        1.0  0.5115707315353005  0.41128386736729555  0.5882956407036162  1.0000
  H   H5        1.0  0.4030185257509705  0.5347622657776999  0.6459807292586681  1.0000
  H   H6        1.0  0.27466988715487806  0.5009564943823224  0.7213553388464935  1.0000
  H   H7        1.0  0.2084316679282038  0.37007880999192877  0.34844182493292664  1.0000
  H   H8        1.0  0.3369159575200945  0.4010968240786136  0.27270168285131  1.0000
  C   C15       1.0  0.9021078925606176  0.02166452096411886  0.6107683158579447  1.0000
  C   C16       1.0  0.8822847032616687  0.0313530492278351  0.47745432470367605  1.0000
  C   C17       1.0  0.8722832834923075  0.9191527740810344  0.4101924525788743  1.0000
  C   C18       1.0  0.882282644228791  0.7960614774860983  0.47744281952132184  1.0000
  C   C19       1.0  0.9021069667033308  0.7843450124231149  0.6107627313315016  1.0000
  C   C20       1.0  0.9119091728697394  0.8977119663005155  0.6766817752425736  1.0000
  C   C21       1.0  0.8514193941917444  0.9310936670131152  0.2698694199296945  1.0000
  N   N3        1.0  0.8407220206921254  0.8282918774404312  0.19791909593562962  1.0000
  C   C22       1.0  0.8229440436021893  0.884017940218804  0.07834789938635334  1.0000
  C   C23       1.0  0.8234490831953819  0.017212987661951337  0.0817471556646705  1.0000
  O   O1        1.0  0.841189652735676  0.043151698202799287  0.20106754306376518  1.0000
  H   H9        1.0  0.9096531431505456  0.3454011260032553  0.6615576422983149  1.0000
  H   H10       1.0  0.8745897664911665  0.12638401831062263  0.42570162997920113  1.0000
  H   H11       1.0  0.8746035291386659  0.7092878511554622  0.4258002928903921  1.0000
  H   H12       1.0  0.9271996551842687  0.8894552803985014  0.7795122511740907  1.0000
  H   H13       1.0  0.9096589956645673  0.4524509569409521  0.6615789320672412  1.0000
  H   H14       1.0  0.8104178937374887  0.8307479395216311  0.9940981927921211  1.0000
  H   H15       1.0  0.8115065270728314  0.08908758441840225  0.00142483657138892  1.0000
  C   C24       1.0  0.9021135809604524  0.4031365413808581  0.22941308691385623  1.0000
  C   C25       1.0  0.8252262215856071  0.4354486583722915  0.22229154866352507  1.0000
  C   C26       1.0  0.7867092708721855  0.4534804540087475  0.10129924950307846  1.0000
  C   C27       1.0  0.8252338154894484  0.43515242966973566  0.9871579555636961  1.0000
  C   C28       1.0  0.902101278304006  0.40287299698141593  0.9921179937076818  1.0000
  C   C29       1.0  0.9401991914226878  0.38751813674330576  0.11373291040660982  1.0000
  N   N4        1.0  0.7077260118066547  0.48456599391826555  0.09253475126393851  1.0000
  C   C30       1.0  0.6704320962877446  0.5661774300220728  0.1782000350662285  1.0000
  O   O2        1.0  0.7077221006020699  0.6348609494291797  0.2522481895486224  1.0000
  C   C31       1.0  0.5866863878672773  0.5774632437656213  0.1730768273932488  1.0000
  H   H16       1.0  0.9310993659790979  0.38898711039388445  0.5596785695976136  1.0000
  H   H17       1.0  0.7949832886206506  0.4440494273505249  0.3109862504118153  1.0000
  H   H18       1.0  0.7949357676012063  0.447316622850331  0.8943376006426212  1.0000
  H   H19       1.0  0.9995046425523859  0.36263184622874234  0.11841415567775893  1.0000
  H   H20       1.0  0.9309790212393569  0.3887454299948483  0.6667252031832547  1.0000
  H   H21       1.0  0.676337583949874  0.4528310328914664  0.014074960485556119  1.0000
  H   H22       1.0  0.5617403031679404  0.48093249650145914  0.15950705669032605  1.0000
  H   H23       1.0  0.5661020646793803  0.6125767722471267  0.265135851350675  1.0000
  H   H24       1.0  0.5686361185949425  0.6472405020915908  0.09034941542331154  1.0000
  Zn  Zn1       1.0  0.8197883757986156  0.404711231852257  0.6068250242464991  1.0000
  Zn  Zn2       1.0  0.9844192673734851  0.40129787593330607  0.6147050821286406  1.0000
  C   C32       1.0  0.9021019145459221  0.3977495258096208  0.8479503656003096  1.0000
  C   C33       1.0  0.9021075263862974  0.4082611831761198  0.37357995427376484  1.0000
  C   C34       1.0  0.902103339839554  0.640184073071529  0.6055886542230855  1.0000
  C   C35       1.0  0.9021060449164708  0.16582507684922462  0.6159417322091373  1.0000
  O   O3        1.0  0.9645820597945095  0.4086800436043837  0.42495411288083074  1.0000
  O   O4        1.0  0.9645784185507672  0.3947390276859654  0.8025566147709513  1.0000
  O   O5        1.0  0.9645787272575941  0.5905080075987073  0.6068477777614816  1.0000
  O   O6        1.0  0.9645816949118735  0.2129110741796747  0.6206628498308422  1.0000
  O   O7        1.0  0.8396258920797837  0.5930980347721152  0.6008672538483895  1.0000
  O   O8        1.0  0.8396255833687082  0.3973306150905874  0.7965760216038039  1.0000
  O   O9        1.0  0.8396292246877038  0.41127158629422106  0.41897195838318346  1.0000
  O   O10       1.0  0.839628859800434  0.21550260754770642  0.6146807926967457  1.0000
