data_image0
_chemical_formula_structural       NC6NC2H4C6NCOH7C9H9Zn2C4O8
_chemical_formula_sum              "N3 C28 H20 O9 Zn2"
_cell_length_a       14.927258858638513
_cell_length_b       9.273730183620392
_cell_length_c       10.297187173949778
_cell_angle_alpha    85.71383111101245
_cell_angle_beta     89.97408174876965
_cell_angle_gamma    90.5942620260987

_space_group_name_H-M_alt    "P 1"
_space_group_IT_number       1

loop_
  _space_group_symop_operation_xyz
  'x, y, z'

loop_
  _atom_site_type_symbol
  _atom_site_label
  _atom_site_symmetry_multiplicity
  _atom_site_fract_x
  _atom_site_fract_y
  _atom_site_fract_z
  _atom_site_occupancy
  N   N1        1.0  0.8541830446831651  0.5781073701740493  0.5708119376570802  1.0000
  C   C1        1.0  0.7766565533288392  0.5781073416645293  0.5708119471327602  1.0000
  C   C2        1.0  0.6802240465401158  0.5781074567612412  0.570811902469561  1.0000
  C   C3        1.0  0.6330545515990941  0.5544001154932654  0.4566014117603956  1.0000
  C   C4        1.0  0.5393432404581474  0.5544001411137306  0.4566012915612374  1.0000
  C   C5        1.0  0.4924079813992307  0.5781072792063493  0.5708119188468301  1.0000
  C   C6        1.0  0.39597540761899247  0.5781073943060249  0.5708118741783004  1.0000
  N   N2        1.0  0.3184489162646663  0.5781073657965052  0.5708118836539797  1.0000
  C   C7        1.0  0.5395774093487375  0.6018146204772887  0.6850224095506645  1.0000
  C   C8        1.0  0.6332887204896843  0.6018145948568234  0.6850225297498231  1.0000
  H   H1        1.0  0.6686596222262052  0.5359544673305638  0.3677390951888244  1.0000
  H   H2        1.0  0.5035559679892347  0.5359546648755094  0.367739091197266  1.0000
  H   H3        1.0  0.503972405612681  0.6202602583353445  0.7738848234932654  1.0000
  H   H4        1.0  0.6690759935526309  0.6202601684413513  0.773884829484615  1.0000
  C   C9        1.0  0.0835839904743767  0.154606608940419  0.5698454698043403  1.0000
  C   C10       1.0  0.09675798716392463  0.2380776963513949  0.4514344160687995  1.0000
  C   C11       1.0  0.11681933670036322  0.17325454220989922  0.33649218411712933  1.0000
  C   C12       1.0  0.12654659968605753  0.022799774450774624  0.3408549107603662  1.0000
  C   C13       1.0  0.11236875825774151  0.9381585260341089  0.45692963199911896  1.0000
  C   C14       1.0  0.08905650702493943  0.0015970529918527517  0.571789619121263  1.0000
  N   N3        1.0  0.1319986572076422  0.263015459908289  0.2183417589973604  1.0000
  C   C15       1.0  0.10966107304351197  0.22204322785884403  0.0907319458191258  1.0000
  O   O1        1.0  0.06361474094621578  0.1101395993856318  0.0749575565023266  1.0000
  H   H5        1.0  0.09752765777977329  0.23127972216462675  0.8890592870770793  1.0000
  H   H6        1.0  0.09277326511260564  0.35490391087097967  0.4485695120376474  1.0000
  H   H7        1.0  0.14601313361281792  0.9702940296127093  0.25501061505473666  1.0000
  H   H8        1.0  0.11813358920954303  0.8218669207231144  0.45621724928143165  1.0000
  H   H9        1.0  0.09460589950730385  0.7028084821492471  0.7865808400980385  1.0000
  H   H10       1.0  0.15525695298157663  0.36878986766826416  0.2254766434333535  1.0000
  H   H11       1.0  0.13049374015971332  0.2906457033307026  0.006287666276111328  1.0000
  C   C16       1.0  0.08643833233659381  0.5780496791791634  0.1893642514073115  1.0000
  C   C17       1.0  0.9959087325222943  0.6176613680005136  0.18597326978717965  1.0000
  C   C18       1.0  0.9495277486915031  0.6379553618528886  0.06761956562976046  1.0000
  C   C19       1.0  0.9955577917319655  0.6178143691575997  0.9507508959174132  1.0000
  C   C20       1.0  0.0862021505745798  0.5781539675726455  0.9522708004909863  1.0000
  C   C21       1.0  0.1310504705273006  0.5585291987823187  0.07196704419202793  1.0000
  C   C22       1.0  0.8516134595402237  0.6807979393557575  0.07338414596344389  1.0000
  C   C23       1.0  0.7885214663444473  0.6227917075973876  0.9729791635168037  1.0000
  C   C24       1.0  0.8161883327277095  0.7818947795408158  0.9622448527496005  1.0000
  H   H12       1.0  0.960959411301372  0.6329540145119186  0.27608652387419763  1.0000
  H   H13       1.0  0.9615782467010071  0.6326789635062191  0.8581779172963876  1.0000
  H   H14       1.0  0.20089577790036017  0.5279672313592427  0.07385590885454407  1.0000
  H   H15       1.0  0.2574003036838963  0.5032281825809246  0.7479262813194238  1.0000
  H   H16       1.0  0.820142350591324  0.6945694876247299  0.16949304074032456  1.0000
  H   H17       1.0  0.8184392505474947  0.5576991728584759  0.8983047711637414  1.0000
  H   H18       1.0  0.7187697726348565  0.6032780749456619  0.00805295775312964  1.0000
  H   H19       1.0  0.8629126636180148  0.8134484808043488  0.8810508815445557  1.0000
  H   H20       1.0  0.7626059079955674  0.855370321607971  0.9910424988789036  1.0000
  Zn  Zn1       1.0  0.9881601272147331  0.5781035055679644  0.5708194189801257  1.0000
  Zn  Zn2       1.0  0.1844717649932166  0.5780994191096287  0.5708150308479956  1.0000
  C   C25       1.0  0.0862076662786795  0.5723889896873862  0.8080519368531196  1.0000
  C   C26       1.0  0.08642638136370367  0.5838157546095071  0.3335826445983896  1.0000
  C   C27       1.0  0.08801905728561898  0.8414970869048395  0.5662457843969233  1.0000
  C   C28       1.0  0.08461491215287437  0.31470592472550685  0.5753888623329901  1.0000
  O   O2        1.0  0.1609215733071584  0.5857430597423914  0.38198197508998377  1.0000
  O   O3        1.0  0.16070845815335644  0.5704574950184816  0.75964889944484  1.0000
  O   O4        1.0  0.1621701745960285  0.7877656870634595  0.5643887239821721  1.0000
  O   O5        1.0  0.1594597899734318  0.3684348780020599  0.5772420531816222  1.0000
  O   O6        1.0  0.013172035243002039  0.7877680466784973  0.5643923966411672  1.0000
  O   O7        1.0  0.01171033001270506  0.5704615873030296  0.7596525068201001  1.0000
  O   O8        1.0  0.011923445384887332  0.5857471015578781  0.38198402060382497  1.0000
  O   O9        1.0  0.01046166195070009  0.3684389095158638  0.5772441960611621  1.0000
