data_image0
_chemical_formula_structural       NC8NH4C6NCH9C7OH5Zn2C4O8
_chemical_formula_sum              "N3 C26 H18 O9 Zn2"
_cell_length_a       13.859017124695912
_cell_length_b       9.273386996610926
_cell_length_c       9.274074313596557
_cell_angle_alpha    86.02935137670892
_cell_angle_beta     90.23359480828564
_cell_angle_gamma    89.39861590222965

_space_group_name_H-M_alt    "P 1"
_space_group_IT_number       1

loop_
  _space_group_symop_operation_xyz
  'x, y, z'

loop_
  _atom_site_type_symbol
  _atom_site_label
  _atom_site_symmetry_multiplicity
  _atom_site_fract_x
  _atom_site_fract_y
  _atom_site_fract_z
  _atom_site_occupancy
  N   N1        1.0  0.8932663405175227  0.563242100429336  0.40763531340705605  1.0000
  C   C1        1.0  0.8209231925231797  0.5398234853547538  0.35151424322391533  1.0000
  C   C2        1.0  0.7309326080114689  0.5106941453740931  0.2817068439647097  1.0000
  C   C3        1.0  0.6433036381646207  0.5390922883570045  0.3497602742631212  1.0000
  C   C4        1.0  0.5557022779934373  0.5106953659495339  0.28170626269328136  1.0000
  C   C5        1.0  0.5559122937465206  0.45389259286864725  0.14557792966313388  1.0000
  C   C6        1.0  0.6433586514396065  0.4256036005343298  0.07778645549872065  1.0000
  C   C7        1.0  0.7307776722718534  0.45389025413754436  0.14557911178764193  1.0000
  C   C8        1.0  0.46568334596680827  0.5398244073508953  0.35151374372134714  1.0000
  N   N2        1.0  0.3933174632633912  0.5632424210343128  0.4076350968837781  1.0000
  H   H1        1.0  0.6432822780976762  0.5830598337172548  0.45512686400453894  1.0000
  H   H2        1.0  0.4886277027155785  0.43154216028329756  0.0920124269470528  1.0000
  H   H3        1.0  0.6433800289991989  0.3817258480528875  0.9726332496609428  1.0000
  H   H4        1.0  0.7980839564122991  0.4315377298815625  0.09201461167879432  1.0000
  C   C9        1.0  0.1462655362043921  0.1395952414478987  0.4083434463534701  1.0000
  C   C10       1.0  0.16286091190528776  0.22179150705767656  0.2780285486309626  1.0000
  C   C11       1.0  0.17037128453433548  0.15600919867847263  0.14770559895192714  1.0000
  C   C12       1.0  0.16139627215210206  0.005675736879202419  0.14436549194887793  1.0000
  C   C13       1.0  0.14650008321824193  0.9225121139094659  0.2742277042727883  1.0000
  C   C14       1.0  0.14032758950737012  0.9868783107085513  0.4069394945071325  1.0000
  N   N3        1.0  0.1680838089163601  0.9348305882907826  0.011351896448138723  1.0000
  C   C15       1.0  0.1837834649748611  0.011346340043815184  0.8707072282069959  1.0000
  H   H5        1.0  0.16660808343923827  0.4040629602246182  0.6449640918480455  1.0000
  H   H6        1.0  0.16777761885392128  0.3384200446630934  0.2762603317702801  1.0000
  H   H7        1.0  0.18227898203855664  0.2236502178256916  0.04980658696587258  1.0000
  H   H8        1.0  0.14193969561123865  0.8060887199836052  0.27195405666382677  1.0000
  H   H9        1.0  0.17678825426971767  0.858962622303733  0.7579752905260959  1.0000
  H   H10       1.0  0.1612701288465983  0.8224928017382562  0.014340568050709603  1.0000
  H   H11       1.0  0.12390065184589472  0.08967401994000324  0.8456658222706137  1.0000
  H   H12       1.0  0.2536228958827975  0.06890042016895935  0.870939771078073  1.0000
  H   H13       1.0  0.1859888146743507  0.9330720958468703  0.7853835119419759  1.0000
  C   C16       1.0  0.14217038710058197  0.5590817339191632  0.9844071644760946  1.0000
  C   C17       1.0  0.05774210450315298  0.6016730994237192  0.054225474135940255  1.0000
  C   C18       1.0  0.9779839935993566  0.6558585282680346  0.9749534854925233  1.0000
  C   C19       1.0  0.9807872577440201  0.6688938505571422  0.8236518826575208  1.0000
  C   C20       1.0  0.06392495303706114  0.6245607652732877  0.7526965736641404  1.0000
  C   C21       1.0  0.14442272597981853  0.5673917914814711  0.8308757994508  1.0000
  C   C22       1.0  0.8973810341857952  0.7270465645508432  0.7381648459646981  1.0000
  O   O1        1.0  0.8214878527219369  0.7672424778006397  0.7988045460246185  1.0000
  H   H14       1.0  0.3781863543624784  0.5223265037499475  0.09125654854299747  1.0000
  H   H15       1.0  0.9144431684804029  0.688884121859449  0.03230043802682791  1.0000
  H   H16       1.0  0.06499402838011736  0.6315520788588485  0.6355283253672885  1.0000
  H   H17       1.0  0.30310664598468984  0.5374073457632542  0.5534595990126081  1.0000
  H   H18       1.0  0.9007459535687142  0.7358033251927025  0.6212808169862232  1.0000
  Zn  Zn1       1.0  0.03757034500404233  0.5632384229854006  0.4076435846876738  1.0000
  Zn  Zn2       1.0  0.24901356507076966  0.5632344461676998  0.4076386660860997  1.0000
  C   C23       1.0  0.14403513577001958  0.5600738209786964  0.6708845835176998  1.0000
  C   C24       1.0  0.14255107087774221  0.5664008697950342  0.1443978056453794  1.0000
  C   C25       1.0  0.14142975511029166  0.826667405042796  0.40146156371052366  1.0000
  C   C26       1.0  0.145156391738281  0.29980555321050373  0.4138209051657491  1.0000
  O   O2        1.0  0.22292047600913656  0.5688494356347205  0.19809027019981662  1.0000
  O   O3        1.0  0.22414624872947964  0.5576211444197539  0.617187972776311  1.0000
  O   O4        1.0  0.22204129318974974  0.7728988498204199  0.39962697560896676  1.0000
  O   O5        1.0  0.2250253590377449  0.3535717394946323  0.415651159287612  1.0000
  O   O6        1.0  0.06155847888184241  0.7729011296613219  0.3996310914802559  1.0000
  O   O7        1.0  0.06366342206553632  0.5576251567839401  0.6171920089285017  1.0000
  O   O8        1.0  0.062437645150860366  0.5688533807143001  0.19809257362938992  1.0000
  O   O9        1.0  0.06454252853536535  0.3535756753164873  0.4156535707908293  1.0000
