data_image0
_chemical_formula_structural       NC10NC3NCH9C12SCH12C16H10Zn2C4O8
_chemical_formula_sum              "N3 C47 H31 S1 Zn2 O8"
_cell_length_a       19.437513618241372
_cell_length_b       10.299776766347529
_cell_length_c       10.299151387937775
_cell_angle_alpha    85.58705518708118
_cell_angle_beta     90.33614197722552
_cell_angle_gamma    89.50378728869872

_space_group_name_H-M_alt    "P 1"
_space_group_IT_number       1

loop_
  _space_group_symop_operation_xyz
  'x, y, z'

loop_
  _atom_site_type_symbol
  _atom_site_label
  _atom_site_symmetry_multiplicity
  _atom_site_fract_x
  _atom_site_fract_y
  _atom_site_fract_z
  _atom_site_occupancy
  N   N1        1.0  0.6477538118973153  0.4098454643474648  0.5757717854985578  1.0000
  C   C1        1.0  0.5888177911473642  0.4268541200699205  0.5727975681014835  1.0000
  C   C2        1.0  0.5153739628656682  0.4481048872393166  0.5691057992807682  1.0000
  C   C3        1.0  0.4736294046884428  0.34691208115957467  0.55743569864854  1.0000
  C   C4        1.0  0.3977382026975673  0.35697397741759085  0.5502153874542642  1.0000
  C   C5        1.0  0.35814610525762686  0.4378459291725545  0.6159668009830599  1.0000
  C   C6        1.0  0.28196586411220054  0.42923463885564744  0.6075217438308227  1.0000
  C   C7        1.0  0.2488502495799092  0.3078935810195606  0.6121522404517417  1.0000
  C   C8        1.0  0.17711708599922701  0.30151924347671133  0.6049834713264792  1.0000
  C   C9        1.0  0.1375289684909753  0.4160134209114364  0.5935463887295064  1.0000
  C   C10       1.0  0.063681398947642  0.4093008460685914  0.5862094914819238  1.0000
  N   N2        1.0  0.0043130509366832  0.40390452612169647  0.5803110845653573  1.0000
  C   C11       1.0  0.1699279946877335  0.5370441882620343  0.5896611386538984  1.0000
  C   C12       1.0  0.2416455166073943  0.5436725359883174  0.5968919565048645  1.0000
  C   C13       1.0  0.3868091949857984  0.5301624374783822  0.7058969742195266  1.0000
  N   N3        1.0  0.4437849963534753  0.593366492530347  0.6854994077866019  1.0000
  C   C14       1.0  0.4876335370189301  0.5840642755466607  0.5723903513132925  1.0000
  H   H1        1.0  0.4960297523040972  0.2518529817085828  0.5453043283350109  1.0000
  H   H2        1.0  0.3730387107500044  0.28744167194259657  0.49188959608751104  1.0000
  H   H3        1.0  0.2783147923468747  0.21798722662307848  0.6231635727551996  1.0000
  H   H4        1.0  0.1525388357975123  0.20729595362232778  0.6088606368829885  1.0000
  H   H5        1.0  0.13977814948998982  0.626296485322955  0.5809618948775808  1.0000
  H   H6        1.0  0.26574217787677223  0.6383086130133724  0.5929993750010688  1.0000
  H   H7        1.0  0.3567979582140777  0.5505783151349425  0.7902661741424071  1.0000
  H   H8        1.0  0.5303742376703384  0.6543776451049754  0.5781612570622561  1.0000
  H   H9        1.0  0.45796681836719444  0.6121396637756552  0.48174736078538416  1.0000
  C   C15       1.0  0.8261016000213403  0.025508694568376226  0.5780407269085452  1.0000
  C   C16       1.0  0.8302216006777844  0.013937907311323933  0.7146070057701802  1.0000
  C   C17       1.0  0.8322429970118636  0.8909373823492346  0.7838107415600387  1.0000
  C   C18       1.0  0.8300900428132595  0.7786523295789117  0.7146205212364951  1.0000
  C   C19       1.0  0.8259718797307748  0.788231138380309  0.5780535163871785  1.0000
  C   C20       1.0  0.8240003237319456  0.9120981253111924  0.5105280782309494  1.0000
  C   C21       1.0  0.8365939108225816  0.8797608274572586  0.9282823591724672  1.0000
  C   C22       1.0  0.7972102888211067  0.7869889499042321  0.0018236216366567242  1.0000
  C   C23       1.0  0.8013256711325488  0.7767046139151115  0.13778525294973587  1.0000
  C   C24       1.0  0.844652947852856  0.85891723758487  0.2020101069612707  1.0000
  C   C25       1.0  0.8842006108943306  0.9511131948336846  0.12984399704992566  1.0000
  C   C26       1.0  0.8801861140836262  0.961745734082542  0.99387323510634  1.0000
  S   S1        1.0  0.8500094187960536  0.8452592177813989  0.3764685515883974  1.0000
  C   C27       1.0  0.7808718140721534  0.9624815407434737  0.3951170697093094  1.0000
  H   H10       1.0  0.8245587599723528  0.3573707207209733  0.5260031199979711  1.0000
  H   H11       1.0  0.8309192914995911  0.10078049350093446  0.7675741933596676  1.0000
  H   H12       1.0  0.8325816599863535  0.6836201320426781  0.7674144109257249  1.0000
  H   H13       1.0  0.8208223888054752  0.9202559995701537  0.40517300685464686  1.0000
  H   H14       1.0  0.8243683234434316  0.4644279040710745  0.5260198022632395  1.0000
  H   H15       1.0  0.7625812972659506  0.7235812809579176  0.9542686568246905  1.0000
  H   H16       1.0  0.7705597872943277  0.7051793004207312  0.19311504362003132  1.0000
  H   H17       1.0  0.9180971960111687  0.014589637024686295  0.1789785713721556  1.0000
  H   H18       1.0  0.9118201934126987  0.0328882483992432  0.9399675393973784  1.0000
  H   H19       1.0  0.7946498747725632  0.05856031872700762  0.34641484385888466  1.0000
  H   H20       1.0  0.7728885914150729  0.9733399535222327  0.5002946609071414  1.0000
  H   H21       1.0  0.7324636121898896  0.9277372088457132  0.35237872016976235  1.0000
  C   C28       1.0  0.8260766309121504  0.4067005086601183  0.19667663690292891  1.0000
  C   C29       1.0  0.759685109979774  0.46175917369349406  0.19092396352923569  1.0000
  C   C30       1.0  0.7259821721914249  0.4898496780560984  0.07085076459994877  1.0000
  C   C31       1.0  0.7595653604533201  0.4621387589888326  0.9556101119252804  1.0000
  C   C32       1.0  0.8259968165100546  0.40703928464914524  0.9594176037936781  1.0000
  C   C33       1.0  0.8588441586037798  0.3796612981344097  0.08037226920988828  1.0000
  C   C34       1.0  0.6557479836171892  0.5480953885546535  0.06581054044984058  1.0000
  C   C35       1.0  0.6382557430861269  0.6481980614601278  0.9702849552682302  1.0000
  C   C36       1.0  0.5721399923271454  0.7029799011824369  0.9656692231489253  1.0000
  C   C37       1.0  0.5226491420853973  0.6584819623831598  0.05626630778378839  1.0000
  C   C38       1.0  0.5395177342089392  0.558948013379825  0.15162187104707758  1.0000
  C   C39       1.0  0.605613761448354  0.5040789104262569  0.15648691536314763  1.0000
  C   C40       1.0  0.4545924490126488  0.7149258487076908  0.05138653083004163  1.0000
  C   C41       1.0  0.3975959288975147  0.7621967514207026  0.04729970137119556  1.0000
  C   C42       1.0  0.3308535965105522  0.8175505537874506  0.04251406511779487  1.0000
  C   C43       1.0  0.27386628710454775  0.8648140551580694  0.03842800261937796  1.0000
  H   H22       1.0  0.8515990344925751  0.38546026708864367  0.5263696182272402  1.0000
  H   H23       1.0  0.7344018556153932  0.484574572664174  0.27990636210265873  1.0000
  H   H24       1.0  0.7334558455553768  0.481952586452201  0.8629051857056825  1.0000
  H   H25       1.0  0.9100528129954222  0.33718959486590316  0.08409396910921485  1.0000
  H   H26       1.0  0.9512099827477654  0.3022864644497214  0.759367710741889  1.0000
  H   H27       1.0  0.675966919637328  0.6852713034191561  0.9002193554662888  1.0000
  H   H28       1.0  0.5596845439520666  0.7802357871334132  0.8916596766073783  1.0000
  H   H29       1.0  0.501539409339065  0.5235204013538932  0.22201550912892642  1.0000
  H   H30       1.0  0.6172562796265922  0.42607494133415025  0.23009308087413397  1.0000
  H   H31       1.0  0.22382672435035023  0.9063152492433105  0.034840109761202116  1.0000
  Zn  Zn1       1.0  0.7506491114971082  0.408127552051244  0.5770892380816068  1.0000
  Zn  Zn2       1.0  0.9014177582452078  0.4056117736842479  0.5790043017198153  1.0000
  C   C44       1.0  0.8260112551742189  0.4018016708102086  0.8152431061989791  1.0000
  C   C45       1.0  0.8260572606649591  0.4119392661176773  0.3408505820092784  1.0000
  C   C46       1.0  0.825993381401423  0.6440581273292997  0.5728758426879641  1.0000
  C   C47       1.0  0.8260750832491229  0.16968125019626012  0.5832179140796117  1.0000
  O   O1        1.0  0.883266676500314  0.4127370504965482  0.3899634316076484  1.0000
  O   O2        1.0  0.8832317538774245  0.39909348898029506  0.7675833717264912  1.0000
  O   O3        1.0  0.8832165491406465  0.5947186548405219  0.5718700818781799  1.0000
  O   O4        1.0  0.8832818297985736  0.2171118947416868  0.5856766234275674  1.0000
  O   O5        1.0  0.768784988493803  0.5966274318537276  0.570416915713506  1.0000
  O   O6        1.0  0.7688001929692737  0.4010038262557496  0.7661301363421502  1.0000
  O   O7        1.0  0.7688351158089883  0.41464734182198826  0.3885086348160637  1.0000
  O   O8        1.0  0.768850269095827  0.21902217682168404  0.5842219240040267  1.0000
