data_image0
_chemical_formula_structural       NC6NC2H4C6BrH3C9H9Zn2C4O8
_chemical_formula_sum              "N2 C27 H16 Br1 Zn2 O8"
_cell_length_a       14.927258858638513
_cell_length_b       9.276564384272257
_cell_length_c       10.29718717394978
_cell_angle_alpha    85.51933545767109
_cell_angle_beta     89.97408174876965
_cell_angle_gamma    90.58593300640023

_space_group_name_H-M_alt    "P 1"
_space_group_IT_number       1

loop_
  _space_group_symop_operation_xyz
  'x, y, z'

loop_
  _atom_site_type_symbol
  _atom_site_label
  _atom_site_symmetry_multiplicity
  _atom_site_fract_x
  _atom_site_fract_y
  _atom_site_fract_z
  _atom_site_occupancy
  N   N1        1.0  0.8540446346928282  0.5780334767383708  0.5659728286615742  1.0000
  C   C1        1.0  0.7765181433410026  0.5780334482301861  0.5659728382246754  1.0000
  C   C2        1.0  0.6800856365421849  0.5780335633215088  0.565972793208544  1.0000
  C   C3        1.0  0.6329182208848271  0.5543273321281261  0.4518349986989889  1.0000
  C   C4        1.0  0.5392069097416333  0.5543273577473917  0.4518348784212681  1.0000
  C   C5        1.0  0.49226957141687205  0.5780333857749307  0.5659728101302675  1.0000
  C   C6        1.0  0.3958369976265387  0.578033500869217  0.5659727651087956  1.0000
  N   N2        1.0  0.3183105062747131  0.5780334723610316  0.5659727746718968  1.0000
  C   C7        1.0  0.5394369200827146  0.6017396169712768  0.6801106046344818  1.0000
  C   C8        1.0  0.6331482312259081  0.6017395913520109  0.6801107249122027  1.0000
  H   H1        1.0  0.6685249093118628  0.5358825476660458  0.36302924386943847  1.0000
  H   H2        1.0  0.5034212550575666  0.5358827452017421  0.3630292392721277  1.0000
  H   H3        1.0  0.5038302985476371  0.6201843911291933  0.7689164568666601  1.0000
  H   H4        1.0  0.6689338864954707  0.6201843012394099  0.7689164631336615  1.0000
  C   C9        1.0  0.08348272417741431  0.15455254554092931  0.5663049836921825  1.0000
  C   C10       1.0  0.07203924204580917  0.23803561354067954  0.44758170790387597  1.0000
  C   C11       1.0  0.06893258905369205  0.17303067504599978  0.32996736613537664  1.0000
  C   C12       1.0  0.07725020569356422  0.023623360487762913  0.3288430464205241  1.0000
  C   C13       1.0  0.08711605822138796  0.9384467182116324  0.44577102592031026  1.0000
  C   C14       1.0  0.0888809347839768  0.0015032585750640605  0.5656518376223905  1.0000
  Br  Br1       1.0  0.07365901854212088  0.9352435360931982  0.1674556198114874  1.0000
  H   H5        1.0  0.060910402083467874  0.23923854575195233  0.2394856867831652  1.0000
  H   H6        1.0  0.09126185937337583  0.8222063529671207  0.4429704429336499  1.0000
  H   H7        1.0  0.13823699969091127  0.7035982364407972  0.7679644881464944  1.0000
  C   C15       1.0  0.08629992740612163  0.5779757884448133  0.1845253193154919  1.0000
  C   C16       1.0  0.9957668533963583  0.6175856224850282  0.18101287239881203  1.0000
  C   C17       1.0  0.9493840896540434  0.6378786660896834  0.06259693873149952  1.0000
  C   C18       1.0  0.9954158991868607  0.6177386164779743  0.9457900293662443  1.0000
  C   C19       1.0  0.0860637364973565  0.5780800719550863  0.9474315486092006  1.0000
  C   C20       1.0  0.1309137776663325  0.5584562220766267  0.06718796970817009  1.0000
  C   C21       1.0  0.8514660429379431  0.6807192375280068  0.06823014657044468  1.0000
  C   C22       1.0  0.7883791372553031  0.6227157218584375  0.9680030344532904  1.0000
  C   C23       1.0  0.8160320492935917  0.781811343945896  0.9567808499702646  1.0000
  H   H8        1.0  0.9608161909136838  0.6328775529322332  0.2710792331091834  1.0000
  H   H9        1.0  0.9614350504370304  0.6326025148055456  0.8531714699478755  1.0000
  H   H10       1.0  0.20076176551709327  0.527895685689751  0.06917054959835212  1.0000
  H   H11       1.0  0.25726846107156326  0.5031577952947877  0.7433167818911155  1.0000
  H   H12       1.0  0.8199937261372209  0.6944901409568145  0.16429681226686468  1.0000
  H   H13       1.0  0.8183026304850463  0.5576262350179896  0.893528241871668  1.0000
  H   H14       1.0  0.7186291550146271  0.6032030029147308  0.0031366652996496175  1.0000
  H   H15       1.0  0.8627536127248691  0.8133635677361989  0.875490122484555  1.0000
  H   H16       1.0  0.7624431802920287  0.8552834455879292  0.9853531906715038  1.0000
  Zn  Zn1       1.0  0.9880217175633462  0.5780296123132431  0.5659803218350488  1.0000
  Zn  Zn2       1.0  0.184333355700238  0.5780255260462517  0.5659759462336361  1.0000
  C   C24       1.0  0.08606975782645249  0.572315364009649  0.8032303627015509  1.0000
  C   C25       1.0  0.08628747071197368  0.5837415938839434  0.3287260314108411  1.0000
  C   C26       1.0  0.0878575463524458  0.8414108604863364  0.5605990170813018  1.0000
  C   C27       1.0  0.084499604134056  0.3146443648218398  0.571357447622543  1.0000
  O   O1        1.0  0.16078249361858687  0.5856688087725261  0.3771194520132968  1.0000
  O   O2        1.0  0.16057071910541942  0.5703839597812181  0.7548332480292044  1.0000
  O   O3        1.0  0.16201337624621548  0.7876819765686596  0.5589067186499412  1.0000
  O   O4        1.0  0.15933976958583299  0.3683708022892478  0.5730458839899311  1.0000
  O   O5        1.0  0.013015236686235726  0.7876843360732104  0.5589103840734124  1.0000
  O   O6        1.0  0.011572590605848598  0.5703880518741486  0.754836842855881  1.0000
  O   O7        1.0  0.011784365341823044  0.5856728503987585  0.37712148513331356  1.0000
  O   O8        1.0  0.010341641209511424  0.3683748336142798  0.5730480145072359  1.0000
