data_image0
_chemical_formula_structural       NC6NC2H4C6ClH3C6H4Zn2C4O8
_chemical_formula_sum              "N2 C24 H11 Cl1 Zn2 O8"
_cell_length_a       14.927258858638513
_cell_length_b       9.276545438789551
_cell_length_c       10.681121600428286
_cell_angle_alpha    85.59384611870172
_cell_angle_beta     89.99986493836577
_cell_angle_gamma    89.40960950127158

_space_group_name_H-M_alt    "P 1"
_space_group_IT_number       1

loop_
  _space_group_symop_operation_xyz
  'x, y, z'

loop_
  _atom_site_type_symbol
  _atom_site_label
  _atom_site_symmetry_multiplicity
  _atom_site_fract_x
  _atom_site_fract_y
  _atom_site_fract_z
  _atom_site_occupancy
  N   N1        1.0  0.8334658121631782  0.5780586020480017  0.6194687756758359  1.0000
  C   C1        1.0  0.7559393211780335  0.5780585735415951  0.6194687848598217  1.0000
  C   C2        1.0  0.6595068128968778  0.5780586886266132  0.6194687416045317  1.0000
  C   C3        1.0  0.6126063085723472  0.554370612605143  0.5094031353621369  1.0000
  C   C4        1.0  0.518894997064863  0.5543706382380655  0.5094030194385946  1.0000
  C   C5        1.0  0.4716907500419566  0.5780585110969347  0.6194687576973446  1.0000
  C   C6        1.0  0.3752581747692455  0.5780586261849174  0.61946871443691  1.0000
  N   N2        1.0  0.2977316837841013  0.578058597678511  0.6194687236208953  1.0000
  C   C7        1.0  0.5185911873749316  0.6017465871213694  0.7295343639345944  1.0000
  C   C8        1.0  0.6123024988824162  0.6017465614884472  0.7295344798581371  1.0000
  H   H1        1.0  0.6484206690292569  0.5359399539061949  0.42376577674902366  1.0000
  H   H2        1.0  0.48331701225338664  0.5359401514211444  0.42376577256259246  1.0000
  H   H3        1.0  0.48277689397176154  0.6201772355039652  0.8151718164372465  1.0000
  H   H4        1.0  0.6478804830683523  0.6201771456230516  0.8151718223672421  1.0000
  C   C9        1.0  0.06830673815037681  0.15462344751763135  0.6192623232301941  1.0000
  C   C10       1.0  0.06863742680727161  0.23827492510645662  0.5036759747766568  1.0000
  C   C11       1.0  0.06081806136913584  0.17319554289207373  0.3906053842898256  1.0000
  C   C12       1.0  0.05248291441962662  0.02360440067930859  0.3913815789711385  1.0000
  C   C13       1.0  0.05353419215666833  0.9384145078721191  0.5048463384545894  1.0000
  C   C14       1.0  0.06289943869153049  0.0014826754090868622  0.6196860303872864  1.0000
  Cl  Cl1       1.0  0.06011356273952553  0.27981696256598365  0.24763809076135868  1.0000
  H   H5        1.0  0.1141379542504555  0.4175824501244611  0.816147279567923  1.0000
  H   H6        1.0  0.07283490067967913  0.35499549071192193  0.5011966028359376  1.0000
  H   H7        1.0  0.04604160531626757  0.9728828088451511  0.30390341857776226  1.0000
  C   C15       1.0  0.06560309752055551  0.5780530219051574  0.2517289432277401  1.0000
  C   C16       1.0  0.0019948656187571724  0.49785807172683905  0.1902663329080436  1.0000
  C   C17       1.0  0.0019948090968706688  0.49785816418477613  0.05938419300141095  1.0000
  C   C18       1.0  0.06560302664467327  0.5780530925884981  0.9872193789394523  1.0000
  C   C19       1.0  0.12915875985519865  0.6581815851695266  0.048681375663109476  1.0000
  C   C20       1.0  0.12915874853645073  0.6581815628103613  0.17957367431496873  1.0000
  H   H8        1.0  0.9521357306254701  0.43499747959406226  0.24327171793989308  1.0000
  H   H9        1.0  0.9521357114826042  0.4349975474682443  0.014767688748320577  1.0000
  H   H10       1.0  0.1790244053450164  0.7210504607099666  0.995720330143239  1.0000
  H   H11       1.0  0.17902436053202142  0.72105041016218  0.22414469760235667  1.0000
  Zn  Zn1       1.0  0.9674429466682971  0.5780547370175249  0.6194759947675532  1.0000
  Zn  Zn2       1.0  0.16375463557531988  0.5780506517903448  0.619471771326364  1.0000
  C   C21       1.0  0.06563774396407074  0.5723087010355355  0.8481930798305678  1.0000
  C   C22       1.0  0.06556197038016623  0.5837985070923359  0.39075481004043544  1.0000
  C   C23       1.0  0.063916905084281  0.8414082215015627  0.6146156330172055  1.0000
  C   C24       1.0  0.06728275333418154  0.3146972542187221  0.6243323227536999  1.0000
  O   O1        1.0  0.14004747075639157  0.5857189033934231  0.43741155503851004  1.0000
  O   O2        1.0  0.14014828007071034  0.5703841163524732  0.8015327683030292  1.0000
  O   O3        1.0  0.13875767662653335  0.7876853823776824  0.6129173281737808  1.0000
  O   O4        1.0  0.14143800714682941  0.3684176476845666  0.6260269012782194  1.0000
  O   O5        1.0  0.9897595081052334  0.7876877411262668  0.6129208648105526  1.0000
  O   O6        1.0  0.9911501004836296  0.5703882075116082  0.8015362390347538  1.0000
  O   O7        1.0  0.9910492915498128  0.5857229443046341  0.43741352012250934  1.0000
  O   O8        1.0  0.9924398280024351  0.3684216782823888  0.6260289602466129  1.0000
