data_image0
_chemical_formula_structural       NC10NC3NH7C7OC3FC3H9C7OC6OCH12Zn2C4O8
_chemical_formula_sum              "N3 C44 H28 O11 F1 Zn2"
_cell_length_a       19.210446455230148
_cell_length_b       10.29937835083307
_cell_length_c       10.299362532796529
_cell_angle_alpha    85.57000454149363
_cell_angle_beta     90.00583596421428
_cell_angle_gamma    89.96745330776052

_space_group_name_H-M_alt    "P 1"
_space_group_IT_number       1

loop_
  _space_group_symop_operation_xyz
  'x, y, z'

loop_
  _atom_site_type_symbol
  _atom_site_label
  _atom_site_symmetry_multiplicity
  _atom_site_fract_x
  _atom_site_fract_y
  _atom_site_fract_z
  _atom_site_occupancy
  N   N1        1.0  0.65553393330531  0.41980473672577223  0.5671826975718604  1.0000
  C   C1        1.0  0.5953056623690391  0.42201237587189994  0.5674136101482443  1.0000
  C   C2        1.0  0.5205015679395217  0.4247494440880839  0.5676996817978572  1.0000
  C   C3        1.0  0.48490575500461947  0.5409873166836288  0.5827990292910978  1.0000
  C   C4        1.0  0.41224028313875427  0.5411388424444337  0.5827464164354559  1.0000
  C   C5        1.0  0.3753349041518946  0.4254584542006814  0.5677860891480668  1.0000
  C   C6        1.0  0.2980126052556289  0.42410189992893366  0.5676356420447884  1.0000
  C   C7        1.0  0.2602591507220811  0.5276567027066665  0.5042635663221804  1.0000
  C   C8        1.0  0.18748062758862452  0.5262544041852024  0.5041546413781681  1.0000
  C   C9        1.0  0.1514541671770073  0.421554804430756  0.5673667686490025  1.0000
  C   C10       1.0  0.0765244855991398  0.42025264958506403  0.5672300789439448  1.0000
  N   N2        1.0  0.0162865034175343  0.41920567288935984  0.5671202153012846  1.0000
  C   C11       1.0  0.18848397357479543  0.318125690119545  0.6307138228806388  1.0000
  C   C12       1.0  0.2612643245235913  0.3192537281955743  0.630873022149537  1.0000
  C   C13       1.0  0.41354082071736276  0.31104096770853196  0.5529747108454381  1.0000
  N   N3        1.0  0.4843110559324965  0.3134860529502508  0.5531400134300242  1.0000
  H   H1        1.0  0.5130182256699592  0.6304266967329599  0.5948378755330175  1.0000
  H   H2        1.0  0.3849832279095012  0.6311605056518765  0.5961799099202368  1.0000
  H   H3        1.0  0.28698651584181556  0.6088973899759857  0.4532648812627384  1.0000
  H   H4        1.0  0.1593344337461949  0.6066677498404252  0.45448642331878614  1.0000
  H   H5        1.0  0.1611167170039343  0.23674889428024362  0.6802826591961612  1.0000
  H   H6        1.0  0.28876589758897153  0.23895998686761913  0.6819789387826702  1.0000
  H   H7        1.0  0.38726358289327595  0.22015634831824027  0.539495062062544  1.0000
  C   C14       1.0  0.8358401833818023  0.038120387974021064  0.5672154851705917  1.0000
  C   C15       1.0  0.7632104361323101  0.03824379751464082  0.5512033671426207  1.0000
  C   C16       1.0  0.7264898278190386  0.9210188231084945  0.544604655458189  1.0000
  C   C17       1.0  0.7633806452507914  0.8029995140452508  0.5512102128743172  1.0000
  C   C18       1.0  0.8359868888101748  0.8008800821781348  0.5670986667195713  1.0000
  C   C19       1.0  0.8717751236235809  0.9189613641022771  0.5753513032015262  1.0000
  C   C20       1.0  0.6498836468812712  0.9211109529773327  0.5263237577204181  1.0000
  O   O1        1.0  0.6229871756452986  0.8364450568978987  0.45966778160592225  1.0000
  C   C21       1.0  0.603789910351959  0.01715237694509985  0.583670341875393  1.0000
  C   C22       1.0  0.5417735348343848  0.05723422355915209  0.5199005853950579  1.0000
  C   C23       1.0  0.49756297136098077  0.14658084300605578  0.5739688424434988  1.0000
  F   F1        1.0  0.4381603069986894  0.18535074433159623  0.5112599876502961  1.0000
  C   C24       1.0  0.5145223060920063  0.19588527592345553  0.6925703277302137  1.0000
  C   C25       1.0  0.5755395230159824  0.1555531072877272  0.7575548135247123  1.0000
  C   C26       1.0  0.6198940778560442  0.06627797893114631  0.7038912414690107  1.0000
  H   H8        1.0  0.9730223080021058  0.24536139793250755  0.5954361444626384  1.0000
  H   H9        1.0  0.7352010467874739  0.1297990794134547  0.5423951319865111  1.0000
  H   H10       1.0  0.7351996920269984  0.7125758927991006  0.5451628174422026  1.0000
  H   H11       1.0  0.9277672612358887  0.9180622209631539  0.5876947141861097  1.0000
  H   H12       1.0  0.863944249046957  0.4726936247279173  0.5721062143808714  1.0000
  H   H13       1.0  0.5278914339573042  0.020227584798487637  0.42774512441102097  1.0000
  H   H14       1.0  0.4802793914363819  0.26494280255757663  0.7344550063500654  1.0000
  H   H15       1.0  0.5883455026524427  0.19304876061841905  0.8499240299896799  1.0000
  H   H16       1.0  0.6662922085369093  0.03465508298356746  0.7570350776686403  1.0000
  C   C27       1.0  0.8358591946647447  0.41937977343732347  0.18579022144460544  1.0000
  C   C28       1.0  0.7697711909654753  0.3608065903694231  0.1890983097898542  1.0000
  C   C29       1.0  0.7361384358319759  0.33258780301238655  0.07359515283158102  1.0000
  C   C30       1.0  0.7699672501093775  0.3609698290610657  0.9538439509285056  1.0000
  C   C31       1.0  0.8359679012241589  0.41962065673278875  0.9485239407870261  1.0000
  C   C32       1.0  0.8684759276668703  0.4487429456190715  0.06503600068368698  1.0000
  C   C33       1.0  0.6667048922005862  0.2694029399237676  0.0794196828409166  1.0000
  O   O2        1.0  0.6524678649626893  0.190216875317762  0.17533084035951707  1.0000
  C   C34       1.0  0.6134252932558859  0.29604367447602575  0.9765100348584268  1.0000
  C   C35       1.0  0.6080960470944091  0.4194299206985179  0.9086386674832074  1.0000
  C   C36       1.0  0.5571498686435529  0.44369507198612146  0.8129482012524802  1.0000
  C   C37       1.0  0.5103065167338803  0.34610472363678335  0.7839224600400028  1.0000
  C   C38       1.0  0.5149037493463977  0.22291325502574802  0.8527121405822572  1.0000
  C   C39       1.0  0.5658436653272219  0.19852091002812464  0.9484750323850593  1.0000
  O   O3        1.0  0.46020218693589937  0.3753486533573063  0.6869421237414968  1.0000
  C   C40       1.0  0.4094315603145591  0.28566818526207927  0.6475920436191793  1.0000
  H   H17       1.0  0.9606859472175977  0.5294157057583694  0.3868560308337734  1.0000
  H   H18       1.0  0.74399360506538  0.3381075641489477  0.281640337318715  1.0000
  H   H19       1.0  0.7450786433739578  0.33593010077030105  0.8647980291064589  1.0000
  H   H20       1.0  0.919390797592325  0.49398360657686635  0.06166478438883827  1.0000
  H   H21       1.0  0.8614038325913095  0.44163730847209326  0.619046960647319  1.0000
  H   H22       1.0  0.642807188467079  0.497626073735106  0.9304448794173441  1.0000
  H   H23       1.0  0.5538515996780569  0.5391636795159611  0.7613705192089506  1.0000
  H   H24       1.0  0.4793931489965326  0.14540424482473302  0.8330027378312082  1.0000
  H   H25       1.0  0.5684655883749355  0.10287155009977457  0.9999396672598201  1.0000
  H   H26       1.0  0.37674447051815724  0.33441944647100486  0.5695068504778842  1.0000
  H   H27       1.0  0.3754344417173025  0.25351036554100115  0.7311525373448736  1.0000
  H   H28       1.0  0.43536377444312857  0.2003018254444999  0.608944789665585  1.0000
  Zn  Zn1       1.0  0.7596393319180235  0.4196283980135212  0.5671721660954856  1.0000
  Zn  Zn2       1.0  0.9121810883448465  0.41937143197169763  0.567141384118236  1.0000
  C   C41       1.0  0.8359447957526966  0.4144012437138491  0.8043517150278204  1.0000
  C   C42       1.0  0.8358772905947808  0.42460022219351284  0.32996196206454304  1.0000
  C   C43       1.0  0.8359548486469752  0.6567006135645024  0.5619456000643706  1.0000
  C   C44       1.0  0.8358671853583892  0.18229929208473725  0.5723681465157378  1.0000
  O   O4        1.0  0.8937721642502788  0.42624906923400485  0.37833563450956553  1.0000
  O   O5        1.0  0.8938255854074397  0.4125563855119545  0.7559543060803596  1.0000
  O   O6        1.0  0.893832923070411  0.60821619270119  0.5602096531345404  1.0000
  O   O7        1.0  0.8937647745230495  0.23058927139230995  0.5740801900903246  1.0000
  O   O8        1.0  0.7780555936848047  0.6084105586820108  0.5602333601270695  1.0000
  O   O9        1.0  0.778048256308931  0.41275231183999983  0.755977943588817  1.0000
  O   O10       1.0  0.7779948349668496  0.4264449498109786  0.3783577106327065  1.0000
  O   O11       1.0  0.7779874452488623  0.23078514271084408  0.5741023635821993  1.0000
