data_image0
_chemical_formula_structural       NC6NC3H6C7NH3C7F3H4Zn2C4O8
_chemical_formula_sum              "N3 C27 H13 F3 Zn2 O8"
_cell_length_a       14.934028789175542
_cell_length_b       9.275154477615127
_cell_length_c       10.299327507215196
_cell_angle_alpha    85.77882767837892
_cell_angle_beta     89.95631350132989
_cell_angle_gamma    89.3962875590186

_space_group_name_H-M_alt    "P 1"
_space_group_IT_number       1

loop_
  _space_group_symop_operation_xyz
  'x, y, z'

loop_
  _atom_site_type_symbol
  _atom_site_label
  _atom_site_symmetry_multiplicity
  _atom_site_fract_x
  _atom_site_fract_y
  _atom_site_fract_z
  _atom_site_occupancy
  N   N1        1.0  0.8338276816296712  0.5772683555112645  0.5726117434188613  1.0000
  C   C1        1.0  0.7563484875091819  0.576170558282582  0.5719962105104639  1.0000
  C   C2        1.0  0.6599604961873863  0.5747998510101999  0.5712278310560746  1.0000
  C   C3        1.0  0.6115324054221374  0.6815514641230123  0.6309733286329509  1.0000
  C   C4        1.0  0.5180275417018461  0.6804508818994714  0.630357250695315  1.0000
  C   C5        1.0  0.47203788002335606  0.5726531648358282  0.5700263456321599  1.0000
  C   C6        1.0  0.37537769279626876  0.5749660735249076  0.5713219724497633  1.0000
  N   N2        1.0  0.2978861295621401  0.5768016581264781  0.572350511504931  1.0000
  C   C7        1.0  0.5204696076087577  0.46442466658376924  0.5094537822098859  1.0000
  C   C8        1.0  0.4728840185994487  0.34722614041457556  0.4438626565517727  1.0000
  C   C9        1.0  0.6145985380368771  0.46664828842981176  0.510698320154606  1.0000
  H   H1        1.0  0.6460523068926168  0.7656618329212528  0.678047769768956  1.0000
  H   H2        1.0  0.481471536448879  0.7639134788788793  0.6770690245177815  1.0000
  H   H3        1.0  0.4298511449788423  0.39629694915330566  0.3642065730355324  1.0000
  H   H4        1.0  0.4305088126993041  0.28438419826718353  0.5158174814947243  1.0000
  H   H5        1.0  0.520816115360884  0.2713149679531792  0.40137175841497186  1.0000
  H   H6        1.0  0.6526406811427978  0.3842959927467908  0.4646082092269683  1.0000
  C   C10       1.0  0.06845273096091992  0.1536433212582411  0.5709767980752236  1.0000
  C   C11       1.0  0.043899710604001115  0.23686467986890936  0.4564824798331913  1.0000
  C   C12       1.0  0.012061915434321774  0.17087492398494675  0.34805792953655  1.0000
  C   C13       1.0  0.004252803035213134  0.02076151779781266  0.3528508473934102  1.0000
  C   C14       1.0  0.02963632511799783  0.9363320496306126  0.4647345762232902  1.0000
  C   C15       1.0  0.06326975425316703  0.00041558878381863927  0.5739966670586116  1.0000
  C   C16       1.0  0.9863179045469443  0.2576795046036877  0.23218416007791  1.0000
  N   N3        1.0  0.9656268612857575  0.32745446964110436  0.13905132992423153  1.0000
  H   H7        1.0  0.08574357589598341  0.23024804580912916  0.8897559695624095  1.0000
  H   H8        1.0  0.9793063317258712  0.9686728271651912  0.2695200394896935  1.0000
  H   H9        1.0  0.07871223938664951  0.7015970192206382  0.7875856081234749  1.0000
  C   C17       1.0  0.0659466313164505  0.577087919119357  0.19110529189826586  1.0000
  C   C18       1.0  0.15260954835374724  0.634810851518061  0.1859920010108358  1.0000
  C   C19       1.0  0.1956587377701633  0.6663776382605573  0.06612539456003774  1.0000
  C   C20       1.0  0.1523853207794038  0.634658187728943  0.9507541248622227  1.0000
  C   C21       1.0  0.06577587759889192  0.5769709913649888  0.9538681471143723  1.0000
  C   C22       1.0  0.022922552076145127  0.549055042538497  0.07452021812266296  1.0000
  C   C23       1.0  0.2899505435319133  0.7234560533946796  0.062013677118704084  1.0000
  F   F1        1.0  0.3050763719081071  0.8076354506590864  0.16519629836131444  1.0000
  F   F2        1.0  0.3498011990797223  0.6084429268958225  0.06943937993829619  1.0000
  F   F3        1.0  0.30483049832644604  0.8076161363886055  0.9475529634174635  1.0000
  H   H10       1.0  0.9030257445877516  0.4657468486252383  0.40815182647650516  1.0000
  H   H11       1.0  0.18682493935364541  0.6550548855154468  0.2754415186102319  1.0000
  H   H12       1.0  0.1864469347627885  0.6547936269160906  0.858426778663043  1.0000
  H   H13       1.0  0.9561265682405228  0.5045683265856424  0.07765635036080965  1.0000
  Zn  Zn1       1.0  0.9677449609725746  0.5771298120177599  0.5725438378513212  1.0000
  Zn  Zn2       1.0  0.1639689501968037  0.5769283896535407  0.5724289930163424  1.0000
  C   C24       1.0  0.0658412884611481  0.5712493133392518  0.8096691408557567  1.0000
  C   C25       1.0  0.06587475430460205  0.5828107052907976  0.3353038227161387  1.0000
  C   C26       1.0  0.0642459930189225  0.840358384407191  0.5682504766716965  1.0000
  C   C27       1.0  0.06746999337655148  0.3136999020498483  0.5767225500026611  1.0000
  O   O1        1.0  0.14031665150404016  0.584648595825608  0.38365456148002663  1.0000
  O   O2        1.0  0.14032886551008983  0.5692574602705437  0.7612308597821886  1.0000
  O   O3        1.0  0.13903964012582237  0.7865664393299887  0.5662835863103808  1.0000
  O   O4        1.0  0.14160580988902483  0.3673396271637308  0.5786017376499448  1.0000
  O   O5        1.0  0.9901080343187274  0.786718574577876  0.5663710932500836  1.0000
  O   O6        1.0  0.9913972491116462  0.5694113277617483  0.7613183036517945  1.0000
  O   O7        1.0  0.9913850358222881  0.5848024133134779  0.38374044371852944  1.0000
  O   O8        1.0  0.9926741942449309  0.3674934343243397  0.578687717222703  1.0000
