data_image0
_chemical_formula_structural       NC5NC4H6C6NCH9C9H8Zn2C4O8
_chemical_formula_sum              "N3 C29 H23 Zn2 O8"
_cell_length_a       13.854160002989762
_cell_length_b       9.273386996610926
_cell_length_c       9.275155815604963
_cell_angle_alpha    85.96204841331945
_cell_angle_beta     90.35750573089034
_cell_angle_gamma    89.39858485477477

_space_group_name_H-M_alt    "P 1"
_space_group_IT_number       1

loop_
  _space_group_symop_operation_xyz
  'x, y, z'

loop_
  _atom_site_type_symbol
  _atom_site_label
  _atom_site_symmetry_multiplicity
  _atom_site_fract_x
  _atom_site_fract_y
  _atom_site_fract_z
  _atom_site_occupancy
  N   N1        1.0  0.8912605045131567  0.5651544353254113  0.40766996483998574  1.0000
  C   C1        1.0  0.8185074320788821  0.5898657378162123  0.3485960588765371  1.0000
  C   C2        1.0  0.728001577623118  0.6206072626838524  0.2751058583997934  1.0000
  C   C3        1.0  0.6409329790571873  0.5917324570877931  0.34686063020344604  1.0000
  C   C4        1.0  0.5528591650556858  0.6206072768182153  0.275105835209124  1.0000
  C   C5        1.0  0.46339929212798575  0.5898655912397528  0.34859615071879  1.0000
  N   N2        1.0  0.3914869343616726  0.5651543718078497  0.4076699648575972  1.0000
  C   C6        1.0  0.5518823962366421  0.6789636452499108  0.13161426313325064  1.0000
  C   C7        1.0  0.6389027102844541  0.7099883578005908  0.05975254612539759  1.0000
  C   C8        1.0  0.6378443105833961  0.7684870007413975  0.904774279656711  1.0000
  C   C9        1.0  0.726959484910064  0.6789636431467349  0.13161417287841592  1.0000
  H   H1        1.0  0.6417150673781284  0.5464544340350321  0.4579206548370463  1.0000
  H   H2        1.0  0.4836271162590958  0.7002777053304374  0.07594199346762309  1.0000
  H   H3        1.0  0.7021211697905855  0.8364641298789994  0.8808813266312409  1.0000
  H   H4        1.0  0.5724126923865868  0.8364641323169246  0.8808813916976983  1.0000
  H   H5        1.0  0.6381866823385793  0.6773181049512152  0.8333855540417758  1.0000
  H   H6        1.0  0.7944500741981753  0.7002778171135784  0.07594190787667543  1.0000
  C   C10       1.0  0.14434943230313557  0.1415065124004875  0.4083782000592939  1.0000
  C   C11       1.0  0.16076084445242955  0.22385932603464975  0.27806611187494346  1.0000
  C   C12       1.0  0.1680840566263226  0.15823358300880372  0.14774596768792225  1.0000
  C   C13       1.0  0.15910103332229752  0.007904141619969223  0.14440592833054544  1.0000
  C   C14       1.0  0.14438874440972954  0.9245845130561801  0.274265341638382  1.0000
  C   C15       1.0  0.13840735915728186  0.9887912733905557  0.4069742756408683  1.0000
  N   N3        1.0  0.1655972026719423  0.9372187916550317  0.011395195789813737  1.0000
  C   C16       1.0  0.181097537559548  0.013903502507462745  0.8707535587657085  1.0000
  H   H7        1.0  0.16504370995943418  0.40568993492405964  0.6449937675474235  1.0000
  H   H8        1.0  0.16567670007306146  0.34048998385579465  0.27629793531516667  1.0000
  H   H9        1.0  0.17985335540570757  0.22599220926486516  0.04984906610634732  1.0000
  H   H10       1.0  0.13982344675597758  0.8081638545627373  0.27199174079596333  1.0000
  H   H11       1.0  0.1753920318323936  0.8604538153054797  0.7580025411600156  1.0000
  H   H12       1.0  0.15878548624472644  0.8248774202150605  0.014383799970140387  1.0000
  H   H13       1.0  0.12115726106215208  0.092261317932222  0.8457126634203807  1.0000
  H   H14       1.0  0.25096179264070595  0.0714572444041539  0.8709861290718878  1.0000
  H   H15       1.0  0.18317940073178596  0.935731765471442  0.7854316780244881  1.0000
  C   C17       1.0  0.13963545518749299  0.5615023308691154  0.9844510311073105  1.0000
  C   C18       1.0  0.06363339192928395  0.6317978227124523  0.05214941616291568  1.0000
  C   C19       1.0  0.9940292271288338  0.7116812575592675  0.9707322741408242  1.0000
  C   C20       1.0  0.9991349743619296  0.7229419722570899  0.8201318179615393  1.0000
  C   C21       1.0  0.07320009798537397  0.6518713674280832  0.7507263523440697  1.0000
  C   C22       1.0  0.14312133661584714  0.5687954283152472  0.8309013721911671  1.0000
  C   C23       1.0  0.9275560693291885  0.8061958636322468  0.7363964725345502  1.0000
  C   C24       1.0  0.8676216056914519  0.8759096282366934  0.6662529062309948  1.0000
  C   C25       1.0  0.7949019061245121  0.9604954943314039  0.5811340718719293  1.0000
  H   H16       1.0  0.36449082817109435  0.4451064029736777  0.09760176472113824  1.0000
  H   H17       1.0  0.059324960882845  0.6277987488016747  0.16894758044335847  1.0000
  H   H18       1.0  0.9366890970041918  0.765905051912692  0.025455450836964433  1.0000
  H   H19       1.0  0.07493593827019396  0.6586551964390182  0.6335688157308264  1.0000
  H   H20       1.0  0.2931948805818423  0.4852499879592895  0.5574574314163505  1.0000
  H   H21       1.0  0.814487069097185  0.9646405160272714  0.46512821709321767  1.0000
  H   H22       1.0  0.7233737563152034  0.9091226352095699  0.5962454726924644  1.0000
  H   H23       1.0  0.7916778859445992  0.07189213844135531  0.617454213640388  1.0000
  Zn  Zn1       1.0  0.03561511363465652  0.5651506263501282  0.4076783029605444  1.0000
  Zn  Zn2       1.0  0.2471324579528377  0.5651464772744105  0.40767348266334635  1.0000
  C   C26       1.0  0.14250059713574514  0.5616696734838309  0.6709136914311036  1.0000
  C   C27       1.0  0.1402492720314121  0.5686292515931398  0.14443823258018362  1.0000
  C   C28       1.0  0.13950193348678264  0.8285869480531857  0.4014964631341887  1.0000
  C   C29       1.0  0.14324787597630895  0.3017102444076363  0.4138555405885509  1.0000
  O   O1        1.0  0.22072504854748484  0.5710132428883727  0.19812958004687808  1.0000
  O   O2        1.0  0.2225615967029635  0.5592814412257696  0.6172182723970892  1.0000
  O   O3        1.0  0.22013906198036992  0.7748205290034695  0.3996619519148019  1.0000
  O   O4        1.0  0.22314751057613436  0.3554741645011599  0.4156857924519066  1.0000
  O   O5        1.0  0.059599988830828704  0.7748229391263006  0.39966599316604534  1.0000
  O   O6        1.0  0.06202251107695655  0.5592855839676707  0.6172222339309423  1.0000
  O   O7        1.0  0.06018595620225442  0.5710173204273856  0.19813180889536608  1.0000
  O   O8        1.0  0.06260841874431633  0.35547823265260725  0.41568812937171473  1.0000
