data_image0
_chemical_formula_structural       NC8NC6H8C7F3H5C8NH7Zn2C4O8
_chemical_formula_sum              "N3 C33 H20 F3 Zn2 O8"
_cell_length_a       17.457602349358154
_cell_length_b       9.272718291674593
_cell_length_c       9.274266800404106
_cell_angle_alpha    86.41389872873008
_cell_angle_beta     92.41618932719734
_cell_angle_gamma    91.24279848523653

_space_group_name_H-M_alt    "P 1"
_space_group_IT_number       1

loop_
  _space_group_symop_operation_xyz
  'x, y, z'

loop_
  _atom_site_type_symbol
  _atom_site_label
  _atom_site_symmetry_multiplicity
  _atom_site_fract_x
  _atom_site_fract_y
  _atom_site_fract_z
  _atom_site_occupancy
  N   N1        1.0  0.7224091612594612  0.6016148883654249  0.48751928004902445  1.0000
  C   C1        1.0  0.6615833639194684  0.55055238182525  0.47537412512677396  1.0000
  C   C2        1.0  0.5859134193365882  0.4870370433481564  0.46027618583227703  1.0000
  C   C3        1.0  0.5268587267699222  0.5322186964471669  0.5437037582216517  1.0000
  C   C4        1.0  0.45261465420168184  0.4710595766969448  0.5293044804766854  1.0000
  C   C5        1.0  0.3899385721973087  0.5187666648708152  0.6176564249063741  1.0000
  C   C6        1.0  0.31557009018154963  0.5388186195494595  0.5559274039169335  1.0000
  C   C7        1.0  0.2565157038052757  0.5837969819050779  0.6394732986215539  1.0000
  C   C8        1.0  0.18071671000884804  0.6045036351524118  0.5752907908232132  1.0000
  N   N2        1.0  0.11978726295807972  0.6211447040827716  0.5236881713473316  1.0000
  C   C9        1.0  0.2713341953996606  0.6089973637163697  0.785314410356349  1.0000
  C   C10       1.0  0.3449144514851711  0.589380300457921  0.8474766147132826  1.0000
  C   C11       1.0  0.40395430660605064  0.5446054770386908  0.7644400491895238  1.0000
  C   C12       1.0  0.4387235831299276  0.36395535155307757  0.4298822436388432  1.0000
  C   C13       1.0  0.49776346471252825  0.3190862485959669  0.34690074109538394  1.0000
  C   C14       1.0  0.5712197144812204  0.3803745246407533  0.36191114724898893  1.0000
  H   H1        1.0  0.5385605820509006  0.6162201438188997  0.6182371834487279  1.0000
  H   H2        1.0  0.303766297782553  0.5213817779287135  0.4426001225536418  1.0000
  H   H3        1.0  0.22606291538774553  0.6437501305987849  0.8508455931947585  1.0000
  H   H4        1.0  0.3561993962048491  0.6085431534932975  0.9604021260210637  1.0000
  H   H5        1.0  0.4602913683992109  0.5283349595270264  0.8154811290052066  1.0000
  H   H6        1.0  0.38248862942957584  0.3135470892853556  0.4177017092361317  1.0000
  H   H7        1.0  0.4865760722323958  0.23631445045336655  0.27104653088600905  1.0000
  H   H8        1.0  0.6164924965924503  0.34466049572771473  0.29694019039760766  1.0000
  C   C15       1.0  0.922785080832048  0.18805614696211428  0.5025728530156313  1.0000
  C   C16       1.0  0.8764638345251455  0.2663459577946985  0.39873346073077465  1.0000
  C   C17       1.0  0.824669437136102  0.19560767544187518  0.3057702487220679  1.0000
  C   C18       1.0  0.8212407620440961  0.04421362819097441  0.31388602308164004  1.0000
  C   C19       1.0  0.86763241390718  0.9649448447034675  0.41461244729570534  1.0000
  C   C20       1.0  0.91941864926934  0.03469276347920757  0.5086476924132344  1.0000
  C   C21       1.0  0.7769919730273698  0.2813594611172814  0.19263643549368048  1.0000
  F   F1        1.0  0.7570696834558517  0.41219204268871046  0.2432138339790677  1.0000
  F   F2        1.0  0.710186218637588  0.2064501397599752  0.15643801176741556  1.0000
  F   F3        1.0  0.8188851043997564  0.307254595371959  0.07017541724775778  1.0000
  H   H9        1.0  0.012522566461992122  0.27349011179558813  0.82184685377152  1.0000
  H   H10       1.0  0.8795525919316302  0.38341632921957564  0.39230518548608706  1.0000
  H   H11       1.0  0.7832056564961831  0.9867324363808121  0.24110290850700022  1.0000
  H   H12       1.0  0.8644947860249106  0.8480360806457242  0.4162663971404892  1.0000
  H   H13       1.0  0.08329499887528291  0.9281327262095876  0.6970672422555197  1.0000
  C   C22       1.0  0.9228779446327157  0.6083092543757924  0.08243742428033896  1.0000
  C   C23       1.0  0.8787300850098145  0.5029234226689476  0.15879081899364067  1.0000
  C   C24       1.0  0.8298977911441953  0.4085208744494644  0.08575583955130028  1.0000
  C   C25       1.0  0.823579106802087  0.41801025249975665  0.9345567063455165  1.0000
  C   C26       1.0  0.868793303312878  0.5200014290759503  0.8569681413891908  1.0000
  C   C27       1.0  0.9193257766966727  0.6144396590646737  0.9287830370933916  1.0000
  C   C28       1.0  0.7717532787218785  0.3147583752701375  0.8559989056112258  1.0000
  C   C29       1.0  0.8137987807196491  0.18500827816138735  0.8276174278143658  1.0000
  N   N3        1.0  0.8469880174489166  0.0826057747504363  0.8052155894619348  1.0000
  H   H14       1.0  0.006082857089808606  0.9297278321032435  0.17183720335686514  1.0000
  H   H15       1.0  0.8807174080540203  0.495553741076922  0.2759294545509354  1.0000
  H   H16       1.0  0.7963704035256309  0.3287076048351778  0.14735916277343541  1.0000
  H   H17       1.0  0.8657941527985707  0.5231438548675016  0.7398289572801043  1.0000
  H   H18       1.0  0.9781421239795981  0.828177633792632  0.6393853175123412  1.0000
  H   H19       1.0  0.7496724737904283  0.3664673696290941  0.7516179379172074  1.0000
  H   H20       1.0  0.721581832645365  0.2826677480016047  0.9213706833164103  1.0000
  Zn  Zn1       1.0  0.8370838780528522  0.6072469657426572  0.49796513346470556  1.0000
  Zn  Zn2       1.0  0.005112529393841217  0.615500892961399  0.5132540311427626  1.0000
  C   C30       1.0  0.9200183536703899  0.6075379581750713  0.7687642632315096  1.0000
  C   C31       1.0  0.9221798808180252  0.6152118105725666  0.24245522281987353  1.0000
  C   C32       1.0  0.9200751419676567  0.8746186381420011  0.501756572375269  1.0000
  C   C33       1.0  0.9221230417485108  0.34812939639195567  0.5094629728602045  1.0000
  O   O1        1.0  0.9857116267267837  0.6206544048139422  0.30196066965528856  1.0000
  O   O2        1.0  0.9840164722763  0.6083588132019347  0.7208623133443439  1.0000
  O   O3        1.0  0.9840614636595255  0.824029808599744  0.5052516463935748  1.0000
  O   O4        1.0  0.9856665784192415  0.40498341612924305  0.5175712234145531  1.0000
  O   O5        1.0  0.8565297716875454  0.8177644397596673  0.4936479359679955  1.0000
  O   O6        1.0  0.8564847737366607  0.6020951757603928  0.7092585385097561  1.0000
  O   O7        1.0  0.8581799357094835  0.614390704590706  0.2903551619106295  1.0000
  O   O8        1.0  0.8581348869863517  0.3987197063777512  0.5059658236364802  1.0000
