data_image0
_chemical_formula_structural       NC9NC4H8C6NO2H5C8NH7Zn2C4O8
_chemical_formula_sum              "N4 C31 H20 O10 Zn2"
_cell_length_a       16.32274767691083
_cell_length_b       9.273392599741051
_cell_length_c       9.274266800404106
_cell_angle_alpha    86.1050913810774
_cell_angle_beta     89.02225532851281
_cell_angle_gamma    88.93063911827517

_space_group_name_H-M_alt    "P 1"
_space_group_IT_number       1

loop_
  _space_group_symop_operation_xyz
  'x, y, z'

loop_
  _atom_site_type_symbol
  _atom_site_label
  _atom_site_symmetry_multiplicity
  _atom_site_fract_x
  _atom_site_fract_y
  _atom_site_fract_z
  _atom_site_occupancy
  N   N1        1.0  0.7694186066189748  0.556206911219189  0.4015471813503091  1.0000
  C   C1        1.0  0.717673999888323  0.5030646167734523  0.3411598087903349  1.0000
  C   C2        1.0  0.6533543146728179  0.4370614732414695  0.26615820922009314  1.0000
  C   C3        1.0  0.6659110032616526  0.3467809152835293  0.16356460318374993  1.0000
  C   C4        1.0  0.5870352983343772  0.30272355385726746  0.1135023261371675  1.0000
  C   C5        1.0  0.5273852708993991  0.36720054920305856  0.1867756352842329  1.0000
  C   C6        1.0  0.43763726427378813  0.3501598883387518  0.16741407506040695  1.0000
  C   C7        1.0  0.3812056697709498  0.42531192878034213  0.25281064183352386  1.0000
  C   C8        1.0  0.2966590942589157  0.41074815885300775  0.2362630260843852  1.0000
  C   C9        1.0  0.2397898880351915  0.48821050482323014  0.3242839883155908  1.0000
  N   N2        1.0  0.19408613130808033  0.5504774810745128  0.39503793472615945  1.0000
  C   C10       1.0  0.2674924233452572  0.32091080977999153  0.13418142732104466  1.0000
  C   C11       1.0  0.3226009908474733  0.2458583165571897  0.048898353392534025  1.0000
  C   C12       1.0  0.40699313298988676  0.2600298045300651  0.06500007901374016  1.0000
  C   C13       1.0  0.5640938586518768  0.4612150768672132  0.29360959208570536  1.0000
  H   H1        1.0  0.7252089385635249  0.3116750446749821  0.1236682813481611  1.0000
  H   H2        1.0  0.5795605972455589  0.2289373648150048  0.029652494726067458  1.0000
  H   H3        1.0  0.40253816037841045  0.49544512562244813  0.33250265726270256  1.0000
  H   H4        1.0  0.20223408456244615  0.30891328234645  0.1205498735727344  1.0000
  H   H5        1.0  0.2998653835044286  0.1763607529234057  0.9699288879969377  1.0000
  H   H6        1.0  0.4474420610275324  0.19999264435750239  0.9967795472845462  1.0000
  H   H7        1.0  0.5470396306035813  0.42347389306791716  0.40619710398231934  1.0000
  H   H8        1.0  0.5467419267135732  0.576608842860975  0.2692654836237627  1.0000
  C   C14       1.0  0.9842583136832815  0.12977294481675658  0.3973476814731099  1.0000
  C   C15       1.0  0.9744153058494093  0.21225929481795025  0.26581920619216837  1.0000
  C   C16       1.0  0.9573194007692876  0.14643737143718583  0.13917996676780997  1.0000
  C   C17       1.0  0.949497580767098  0.9961361984968439  0.14053817490830856  1.0000
  C   C18       1.0  0.960623301657416  0.9124565950715041  0.2710417831830716  1.0000
  C   C19       1.0  0.9792542883735453  0.976900259031552  0.39924973169284855  1.0000
  N   N3        1.0  0.93114559623618  0.9288819268608319  0.009691348148006543  1.0000
  O   O1        1.0  0.9209690695708147  0.011152421373470603  0.881871426683829  1.0000
  O   O2        1.0  0.9239286545267666  0.795047779848885  0.010032098810636613  1.0000
  H   H9        1.0  0.965980263586706  0.2091676069542121  0.7514224956349771  1.0000
  H   H10       1.0  0.9780166601891985  0.32902096781648327  0.2615050742434897  1.0000
  H   H11       1.0  0.9493920313823636  0.21371449966677833  0.040227733923547955  1.0000
  H   H12       1.0  0.9566607612798232  0.7959156446314396  0.2721286229269144  1.0000
  H   H13       1.0  0.969735474231546  0.6807467489816421  0.638504463398732  1.0000
  C   C20       1.0  0.9836595781405124  0.550157488410113  0.9749520272984628  1.0000
  C   C21       1.0  0.936651347603373  0.4475441747996154  0.056599549773563185  1.0000
  C   C22       1.0  0.8846183610198364  0.35621557439365725  0.9893017595186776  1.0000
  C   C23       1.0  0.8778494725710542  0.3661098009642955  0.8387287742227176  1.0000
  C   C24       1.0  0.9260029944581999  0.4652595514454891  0.7557500152124548  1.0000
  C   C25       1.0  0.9798529977794577  0.5565157464149069  0.821645379987773  1.0000
  C   C26       1.0  0.8226318277546084  0.26611931101270847  0.7662762627811568  1.0000
  C   C27       1.0  0.8677836816205367  0.13365352206001546  0.7340849484505401  1.0000
  N   N4        1.0  0.9034249336715559  0.029107353031764482  0.7086756649767971  1.0000
  H   H14       1.0  0.072051442358114  0.8663908676829226  0.05371649317728733  1.0000
  H   H15       1.0  0.9387875498467894  0.4400457290661443  0.1735647327050005  1.0000
  H   H16       1.0  0.8489183444270402  0.2785079214137187  0.05492444388889761  1.0000
  H   H17       1.0  0.9227924170731915  0.4685936927481993  0.6389153221786668  1.0000
  H   H18       1.0  0.04235829493809872  0.7665839780160264  0.524801827842493  1.0000
  H   H19       1.0  0.7989469670489084  0.3192491205432266  0.6639840677861124  1.0000
  H   H20       1.0  0.7690641232758779  0.23720813980592137  0.8371950474874233  1.0000
  Zn  Zn1       1.0  0.8919684725660043  0.5545497126891206  0.3996770702122603  1.0000
  Zn  Zn2       1.0  0.0715362883542916  0.552122932077709  0.39691982953657834  1.0000
  C   C28       1.0  0.9806046559459832  0.5495677553836338  0.6615893617665124  1.0000
  C   C29       1.0  0.9829020544626477  0.5571066838861138  0.1350076534565645  1.0000
  C   C30       1.0  0.9802217634398146  0.8167321078274907  0.39314548356148893  1.0000
  C   C31       1.0  0.9832848955860014  0.2899405998899711  0.40345160557119675  1.0000
  O   O3        1.0  0.05079291003363262  0.5585116540918582  0.18767741112533035  1.0000
  O   O4        1.0  0.049001625935278785  0.5463198235957856  0.6068265047841289  1.0000
  O   O5        1.0  0.0486915100270624  0.7620584406203514  0.39005619132171376  1.0000
  O   O6        1.0  0.051102965092529866  0.3427730474018926  0.4044476174589473  1.0000
  O   O7        1.0  0.9124017345501083  0.7638995981945913  0.3921492832232232  1.0000
  O   O8        1.0  0.9127118405634821  0.5481627135519657  0.6089195237093616  1.0000
  O   O9        1.0  0.9145031328056481  0.5603544807675502  0.18976869667074725  1.0000
  O   O10       1.0  0.914813187436207  0.3446158645726391  0.4065390110664946  1.0000
