data_image0
_chemical_formula_structural       NC10NC2NH7C10IC2H9C10SH8Zn2C4O8
_chemical_formula_sum              "N3 C38 H24 I1 S1 Zn2 O8"
_cell_length_a       18.145345255705053
_cell_length_b       10.299770258652044
_cell_length_c       10.297424231287907
_cell_angle_alpha    85.58113724288043
_cell_angle_beta     90.5539625153419
_cell_angle_gamma    91.04748074238529

_space_group_name_H-M_alt    "P 1"
_space_group_IT_number       1

loop_
  _space_group_symop_operation_xyz
  'x, y, z'

loop_
  _atom_site_type_symbol
  _atom_site_label
  _atom_site_symmetry_multiplicity
  _atom_site_fract_x
  _atom_site_fract_y
  _atom_site_fract_z
  _atom_site_occupancy
  N   N1        1.0  0.6941515450167347  0.44202888001397755  0.5771908478582051  1.0000
  C   C1        1.0  0.6361588804170638  0.39896599955022044  0.5572496710507016  1.0000
  C   C2        1.0  0.5640969840056821  0.3454810651389682  0.5324819184256651  1.0000
  C   C3        1.0  0.550072664741772  0.22846184970161626  0.4797491552442836  1.0000
  C   C4        1.0  0.4743109420883955  0.21467089523626104  0.47386081689133674  1.0000
  C   C5        1.0  0.44548992545801486  0.3245119836675685  0.5232763182547754  1.0000
  C   C6        1.0  0.3659883377746219  0.3522597149707909  0.536070110594851  1.0000
  C   C7        1.0  0.3128502988176363  0.2507615791223521  0.5390517460760115  1.0000
  C   C8        1.0  0.23801457179118277  0.27708985417608045  0.5511671399829452  1.0000
  C   C9        1.0  0.21517859320757507  0.40503382973566193  0.5602796907610845  1.0000
  C   C10       1.0  0.1381118679359422  0.4320204510107955  0.5726782276137635  1.0000
  N   N2        1.0  0.07615655707827648  0.45371555570341826  0.5826456499212527  1.0000
  C   C11       1.0  0.2674842076535707  0.5066778819543561  0.5572058886407687  1.0000
  C   C12       1.0  0.34236662605372187  0.48061623400157566  0.5452034852502053  1.0000
  N   N3        1.0  0.500892047934905  0.4039333861041925  0.5588790467276625  1.0000
  H   H1        1.0  0.5901588310080805  0.16086463107544843  0.44897688340132946  1.0000
  H   H2        1.0  0.444138444111292  0.1339889992343266  0.43618683775084943  1.0000
  H   H3        1.0  0.32894164190162034  0.15071157162003046  0.5336703522507309  1.0000
  H   H4        1.0  0.1979962466366858  0.19757592845033978  0.5537034264963148  1.0000
  H   H5        1.0  0.25038835088581063  0.6061989412659241  0.5637101433133878  1.0000
  H   H6        1.0  0.3813663523294251  0.561466984857679  0.5412353598924626  1.0000
  H   H7        1.0  0.49648109479790936  0.49244063399028115  0.6010401502233329  1.0000
  C   C13       1.0  0.8850881157051618  0.0665049146623842  0.5799142233305397  1.0000
  C   C14       1.0  0.890540774578306  0.07618704250562124  0.4435714723864992  1.0000
  C   C15       1.0  0.8933743177206206  0.9639559334460419  0.374495664298795  1.0000
  C   C16       1.0  0.8906812063370795  0.8409035498617842  0.44359109706122374  1.0000
  C   C17       1.0  0.8852270341705839  0.8292296627600307  0.5799336583569192  1.0000
  C   C18       1.0  0.8824614361058628  0.9425880133101399  0.6473317868919843  1.0000
  C   C19       1.0  0.8991432121782339  0.9752521656927806  0.23025823615055363  1.0000
  C   C20       1.0  0.9463018781217407  0.8938373715551499  0.16697329969231078  1.0000
  C   C21       1.0  0.9516574015138473  0.9046791368589888  0.031204755901913954  1.0000
  C   C22       1.0  0.910068411578305  0.9966449791868549  0.9570795430978952  1.0000
  I   I1        1.0  0.9182581712967324  0.012681750102316867  0.7522911699224331  1.0000
  C   C23       1.0  0.863044847244532  0.07796911084712702  0.018847355706717688  1.0000
  C   C24       1.0  0.857541616838975  0.06754816782521679  0.15459525726716003  1.0000
  H   H8        1.0  0.882976920848076  0.3902682760974937  0.6318625112717506  1.0000
  H   H9        1.0  0.8936138276473495  0.1712728545383031  0.3909146943918602  1.0000
  H   H10       1.0  0.8918312508336543  0.7540867057737586  0.3906662112258996  1.0000
  H   H11       1.0  0.8782542898632401  0.93435044316739  0.7525138823215876  1.0000
  H   H12       1.0  0.8831814656379644  0.4973284586978342  0.631890950950233  1.0000
  H   H13       1.0  0.9797226808568054  0.8230117139048643  0.22253923504778061  1.0000
  H   H14       1.0  0.9882862664564637  0.8417760827525984  0.9837220702767173  1.0000
  H   H15       1.0  0.8305990899099668  0.1490632734739237  0.9617318950603851  1.0000
  H   H16       1.0  0.8200716426901885  0.1304453063862856  0.2002752277146025  1.0000
  C   C25       1.0  0.8851079577606313  0.44773804656383237  0.1984851115264219  1.0000
  C   C26       1.0  0.9585856421453656  0.4931004803003261  0.1954988102181636  1.0000
  C   C27       1.0  0.9961092079690357  0.5160040420185263  0.07682647224508865  1.0000
  C   C28       1.0  0.9587110755660916  0.49339712646673495  0.9602730740542994  1.0000
  C   C29       1.0  0.8852071798463653  0.4479965092113857  0.9613627604051946  1.0000
  C   C30       1.0  0.8488863265743248  0.42534664354515117  0.0809103106756126  1.0000
  C   C31       1.0  0.07386085441223589  0.5640391333230702  0.07371374370118766  1.0000
  C   C32       1.0  0.1230555482883773  0.5646428105487362  0.17873447008636467  1.0000
  C   C33       1.0  0.19287576517347693  0.6161349397151754  0.14506546401853626  1.0000
  C   C34       1.0  0.19972601523538971  0.6564779029749445  0.014024442778344467  1.0000
  S   S1        1.0  0.1187916020935047  0.6277449983486881  0.9402624701982392  1.0000
  H   H17       1.0  0.856609056152899  0.43058139225341074  0.5271540646316488  1.0000
  H   H18       1.0  0.9860497082810948  0.5119441708687429  0.2859215695676638  1.0000
  H   H19       1.0  0.9869516060664695  0.5101785150225573  0.8682386770098386  1.0000
  H   H20       1.0  0.792227418267946  0.3903500454353248  0.08253138854177955  1.0000
  H   H21       1.0  0.7464332783427251  0.3621895176706273  0.7561755111998871  1.0000
  H   H22       1.0  0.11004907114084483  0.5278053459477487  0.2771200155649207  1.0000
  H   H23       1.0  0.23747864259738738  0.6233409213300503  0.21476000276418716  1.0000
  H   H24       1.0  0.24874110539201122  0.6986800027694926  0.9676944807961608  1.0000
  Zn  Zn1       1.0  0.8043899439170921  0.44539791374483495  0.5787724934072864  1.0000
  Zn  Zn2       1.0  0.9659181571323567  0.45033584931214393  0.5810746664079449  1.0000
  C   C35       1.0  0.8851858541550972  0.4427739850079435  0.8171623826840066  1.0000
  C   C36       1.0  0.8851240110924697  0.452961470627322  0.34268492980239906  1.0000
  C   C37       1.0  0.885196315507949  0.6850566009676482  0.5747537908931688  1.0000
  C   C38       1.0  0.8851134943461357  0.21067729270981772  0.5850935900192786  1.0000
  O   O1        1.0  0.9464285128091288  0.45658275455452896  0.39195336860910834  1.0000
  O   O2        1.0  0.9464775285332916  0.44289950007501133  0.7696408659766483  1.0000
  O   O3        1.0  0.9464851500423334  0.6385457517406803  0.573894201281347  1.0000
  O   O4        1.0  0.9464208361704718  0.26093651046105915  0.5876999351265544  1.0000
  O   O5        1.0  0.8238872097573245  0.6347972509122563  0.5721472238962264  1.0000
  O   O6        1.0  0.823879588520113  0.43915255952072285  0.7678938193730356  1.0000
  O   O7        1.0  0.8238305726335703  0.4528357682167594  0.3902047603181613  1.0000
  O   O8        1.0  0.8238228960028762  0.2571895148674268  0.5859514242210117  1.0000
