data_image0
_chemical_formula_structural       NC10NC5H10C13OH12C13OH12Zn2C4O8
_chemical_formula_sum              "N2 C45 H34 O10 Zn2"
_cell_length_a       19.4436361288709
_cell_length_b       10.299150109392551
_cell_length_c       10.299153481560891
_cell_angle_alpha    85.56204594622189
_cell_angle_beta     89.72153825952512
_cell_angle_gamma    89.39953782186458

_space_group_name_H-M_alt    "P 1"
_space_group_IT_number       1

loop_
  _space_group_symop_operation_xyz
  'x, y, z'

loop_
  _atom_site_type_symbol
  _atom_site_label
  _atom_site_symmetry_multiplicity
  _atom_site_fract_x
  _atom_site_fract_y
  _atom_site_fract_z
  _atom_site_occupancy
  N   N1        1.0  0.6471809386449191  0.40888568922097  0.5616094922637336  1.0000
  C   C1        1.0  0.5883463728826493  0.41879119832882594  0.5759903135103408  1.0000
  C   C2        1.0  0.515018808530439  0.4311447065721021  0.5939786983001942  1.0000
  C   C3        1.0  0.4728203013331339  0.39912666119633333  0.49931465798822944  1.0000
  C   C4        1.0  0.3969149500117182  0.40956682019744894  0.5046393122585375  1.0000
  C   C5        1.0  0.35720272604076436  0.3848380130433265  0.6117210849669894  1.0000
  C   C6        1.0  0.281078744992503  0.3887523939968393  0.5987602683907376  1.0000
  C   C7        1.0  0.2405256689344122  0.4464366852299987  0.6925126971346176  1.0000
  C   C8        1.0  0.1688593993002649  0.45007265336346647  0.6819674765404041  1.0000
  C   C9        1.0  0.13675157987986553  0.39562834393753255  0.5779564886878923  1.0000
  C   C10       1.0  0.062956021953414  0.39932552964794943  0.5672559641021746  1.0000
  N   N2        1.0  0.0036293986332946965  0.40229787298343883  0.5586534517504236  1.0000
  C   C11       1.0  0.1765799695331311  0.337236981780763  0.4845875343212407  1.0000
  C   C12       1.0  0.2482626243247791  0.33354673594805395  0.49488099296703186  1.0000
  C   C13       1.0  0.3853703471995601  0.344399801590996  0.7428305343546083  1.0000
  C   C14       1.0  0.4440364084255642  0.3875343386773666  0.790059155575835  1.0000
  C   C15       1.0  0.48821100718076943  0.4853856205404168  0.7156583767002032  1.0000
  H   H1        1.0  0.4949052987453921  0.3699895550351226  0.40901661085662155  1.0000
  H   H2        1.0  0.3721928936000975  0.4320449664857653  0.41147251655024614  1.0000
  H   H3        1.0  0.2644056618298686  0.48974683566276256  0.7733474363033113  1.0000
  H   H4        1.0  0.13852209601073193  0.4954051334181746  0.7548739951632965  1.0000
  H   H5        1.0  0.1522281306913946  0.2941225698205465  0.4040872163955422  1.0000
  H   H6        1.0  0.27793485007078234  0.2859708272925558  0.42267156145624235  1.0000
  H   H7        1.0  0.354429670695376  0.28019030319628135  0.807099483627122  1.0000
  H   H8        1.0  0.45921299550614364  0.3534836549643572  0.8880059392950994  1.0000
  H   H9        1.0  0.45808083608630074  0.5761020398891132  0.6903760047038872  1.0000
  H   H10       1.0  0.5315049746212462  0.5109859952431379  0.7787354836369274  1.0000
  C   C16       1.0  0.825473304592839  0.024190935354031495  0.5602750580000815  1.0000
  C   C17       1.0  0.8242275700744414  0.012461045202482937  0.6970968931945621  1.0000
  C   C18       1.0  0.823536070057067  0.8893801499275101  0.7662052685248255  1.0000
  C   C19       1.0  0.8240949064660138  0.7772080161371876  0.6967345963158893  1.0000
  C   C20       1.0  0.8253436138095753  0.7869824775348041  0.5599991359288328  1.0000
  C   C21       1.0  0.8260274071825637  0.9109347515446328  0.49256842252552213  1.0000
  C   C22       1.0  0.8222122133926619  0.8779530838497765  0.910857183657162  1.0000
  C   C23       1.0  0.7799303184030558  0.7858797778388668  0.9792296199192113  1.0000
  C   C24       1.0  0.7786617838524577  0.7752087505216803  0.11534711646102913  1.0000
  C   C25       1.0  0.820103327475499  0.8554453995562583  0.18554913757337044  1.0000
  C   C26       1.0  0.8617272976858364  0.9484847405773077  0.11782473266559611  1.0000
  C   C27       1.0  0.8630117976966387  0.9593312697474957  0.9817068150087251  1.0000
  C   C28       1.0  0.8172939933829947  0.8463596097547883  0.3316595340896292  1.0000
  O   O1        1.0  0.7658936304985586  0.9305000690594243  0.3723266774314862  1.0000
  H   H11       1.0  0.8273778437300889  0.2536327471174358  0.30202113806363795  1.0000
  H   H12       1.0  0.8228387057369834  0.09927862689526856  0.7501172887871466  1.0000
  H   H13       1.0  0.8244955007898301  0.6820964853295589  0.7495650884395657  1.0000
  H   H14       1.0  0.8269886263177771  0.919190330632902  0.38710028661954143  1.0000
  H   H15       1.0  0.8257776173316648  0.4632674657794825  0.5074062661916146  1.0000
  H   H16       1.0  0.7470297679104306  0.7234611514059123  0.9273934722096103  1.0000
  H   H17       1.0  0.7452119883632881  0.7045147898044328  0.16600035971727622  1.0000
  H   H18       1.0  0.8933610603052681  0.012480008173997975  0.17041759571528525  1.0000
  H   H19       1.0  0.8964847626154614  0.03047051466394791  0.9318600274452724  1.0000
  H   H20       1.0  0.8678920082390403  0.8732675635985293  0.3714101628797414  1.0000
  H   H21       1.0  0.8061225426559055  0.7445578764944208  0.36956497421373447  1.0000
  H   H22       1.0  0.7661633303737656  0.9208513048449904  0.4689516692464423  1.0000
  C   C29       1.0  0.825349414154215  0.4054403778789876  0.17876507839222897  1.0000
  C   C30       1.0  0.7542443309085397  0.3823723933602672  0.18003508308036498  1.0000
  C   C31       1.0  0.7183172843189873  0.3708369145415529  0.06351035110650316  1.0000
  C   C32       1.0  0.7544065492359586  0.3826867191451271  0.9447256549714886  1.0000
  C   C33       1.0  0.8254675185016779  0.40573308300155264  0.9415090768891345  1.0000
  C   C34       1.0  0.8605240227280715  0.4169717367398355  0.05906575301074746  1.0000
  C   C35       1.0  0.6431416734006774  0.3464614584486412  0.06582612728016901  1.0000
  C   C36       1.0  0.5996310024759285  0.4125075008711631  0.9734956353259285  1.0000
  C   C37       1.0  0.528886307359079  0.3896127042584709  0.9757528563634067  1.0000
  C   C38       1.0  0.5004616989254929  0.29941867944753264  0.06948153248317213  1.0000
  C   C39       1.0  0.5435107784103818  0.23447753398404744  0.16273398449874565  1.0000
  C   C40       1.0  0.6142587413966185  0.25734262048421375  0.16065489678905176  1.0000
  C   C41       1.0  0.42424620214974734  0.2775387712110726  0.07403844194545828  1.0000
  O   O2        1.0  0.3933390823425674  0.3657049215493111  0.15377011662386808  1.0000
  H   H23       1.0  0.9594761705879629  0.44981366148137947  0.383596675767823  1.0000
  H   H24       1.0  0.7265165289506471  0.37512053785803523  0.27174342802213225  1.0000
  H   H25       1.0  0.7271198026122347  0.37213789045557427  0.8547768371423925  1.0000
  H   H26       1.0  0.9153351019014251  0.43475173958228114  0.057300532576263  1.0000
  H   H27       1.0  0.8527909527601119  0.41468361628218225  0.612789860250309  1.0000
  H   H28       1.0  0.6201786373499608  0.4833895427272894  0.9007416884988082  1.0000
  H   H29       1.0  0.49624463043974265  0.44250039175602396  0.9045237286419479  1.0000
  H   H30       1.0  0.5223285556787716  0.16581378993625862  0.2369322730080949  1.0000
  H   H31       1.0  0.646487092722779  0.2042620559990873  0.23241073847693622  1.0000
  H   H32       1.0  0.4133473941618954  0.1759447993172163  0.11298468190776378  1.0000
  H   H33       1.0  0.4024737095838318  0.2913074949749379  0.974083283929982  1.0000
  H   H34       1.0  0.343344072189891  0.34727380012322917  0.15348836800367427  1.0000
  Zn  Zn1       1.0  0.7500442675072919  0.40698111898273365  0.5607639562816333  1.0000
  Zn  Zn2       1.0  0.9007660647434684  0.40419183875104436  0.5595096728366822  1.0000
  C   C42       1.0  0.8254445264481977  0.4005036728303785  0.797336026120311  1.0000
  C   C43       1.0  0.8253674514210115  0.4106708932499892  0.3229377161759224  1.0000
  C   C44       1.0  0.8253637861066716  0.6427967573016369  0.5548760884645072  1.0000
  C   C45       1.0  0.8254481406077508  0.16837624932410902  0.5653977240634136  1.0000
  O   O3        1.0  0.8825716424137838  0.41136211846345566  0.3708473784686237  1.0000
  O   O4        1.0  0.8826346922013988  0.3976944685127653  0.7484740182204193  1.0000
  O   O5        1.0  0.882568722505346  0.5933492132251146  0.5526859090472525  1.0000
  O   O6        1.0  0.8826375606620416  0.21570738395652955  0.566635390690974  1.0000
  O   O7        1.0  0.7681727201547649  0.5954655747305042  0.5536382388485352  1.0000
  O   O8        1.0  0.7682386895716511  0.399812390426032  0.7494262782112089  1.0000
  O   O9        1.0  0.7681756395957349  0.4134799945169318  0.37179807706205814  1.0000
  O   O10       1.0  0.7682415578578342  0.21782525075783846  0.5675861866564191  1.0000
