data_image0
_chemical_formula_structural       NC12NC2H8C6BrH5C6SCH8Zn2C4O8
_chemical_formula_sum              "N2 C31 H21 Br1 S1 Zn2 O8"
_cell_length_a       19.240039667572717
_cell_length_b       9.276564384272257
_cell_length_c       10.302812801239593
_cell_angle_alpha    85.51203806162957
_cell_angle_beta     89.99986115562673
_cell_angle_gamma    90.58593109150864

_space_group_name_H-M_alt    "P 1"
_space_group_IT_number       1

loop_
  _space_group_symop_operation_xyz
  'x, y, z'

loop_
  _atom_site_type_symbol
  _atom_site_label
  _atom_site_symmetry_multiplicity
  _atom_site_fract_x
  _atom_site_fract_y
  _atom_site_fract_z
  _atom_site_occupancy
  N   N1        1.0  0.6622605577891632  0.5782294338036305  0.5667421508793555  1.0000
  C   C1        1.0  0.6021121894317918  0.5782295270591531  0.5667420688996996  1.0000
  C   C2        1.0  0.5272941529329549  0.5782296572972572  0.5667419315426008  1.0000
  C   C3        1.0  0.49046735109497563  0.5066448418579801  0.670173871012114  1.0000
  C   C4        1.0  0.4177959958007492  0.5065217158804897  0.6702604764130504  1.0000
  C   C5        1.0  0.3809619185027262  0.5782297600861259  0.5667417038573472  1.0000
  C   C6        1.0  0.41850352061541  0.6499380119235323  0.46322312562809653  1.0000
  C   C7        1.0  0.4911736005953764  0.6498146244408178  0.4633098536830816  1.0000
  C   C8        1.0  0.3037568276325556  0.5782296727400194  0.5667416085361667  1.0000
  C   C9        1.0  0.2659488568530273  0.45246189125020103  0.6086913638126572  1.0000
  C   C10       1.0  0.19327875387301938  0.4525805966644276  0.608599980182781  1.0000
  C   C11       1.0  0.15742454000205197  0.5782295293028803  0.5667416695324135  1.0000
  C   C12       1.0  0.0826065022240199  0.5782294029974975  0.566741918207182  1.0000
  N   N2        1.0  0.022458185148129993  0.5782293576637967  0.5667421265938273  1.0000
  C   C13       1.0  0.1945178374029266  0.7038785461426098  0.524883305946253  1.0000
  C   C14       1.0  0.2671891200113189  0.7039974515689946  0.5247917596265204  1.0000
  H   H1        1.0  0.5179088477590141  0.4512223131235697  0.7509302470347341  1.0000
  H   H2        1.0  0.3904336877691463  0.4519853861294532  0.7521313560748981  1.0000
  H   H3        1.0  0.39167929800706586  0.7044743717147663  0.38135219511187457  1.0000
  H   H4        1.0  0.5191618748451088  0.7052370418383824  0.38255375345027676  1.0000
  H   H5        1.0  0.2925539617819538  0.3534613921448413  0.6399217379900346  1.0000
  H   H6        1.0  0.16508066328255447  0.3545785556032552  0.6408622617180746  1.0000
  H   H7        1.0  0.16728610441124198  0.8018805599573404  0.4926210389767762  1.0000
  H   H8        1.0  0.29477049433315633  0.8029980385943565  0.49356134062728274  1.0000
  C   C15       1.0  0.8402686776578207  0.15474844593027726  0.5670741154894283  1.0000
  C   C16       1.0  0.8313618154749388  0.23824774127619386  0.4484145363508518  1.0000
  C   C17       1.0  0.8289232939282672  0.17325887815171792  0.3308632958357134  1.0000
  C   C18       1.0  0.835376192355161  0.023851716853683147  0.32973957888501015  1.0000
  C   C19       1.0  0.843058629793724  0.9386590926852876  0.4466048250106934  1.0000
  C   C20       1.0  0.8444566871733195  0.001699247969346955  0.5664213195505898  1.0000
  Br  Br1       1.0  0.8325512360194163  0.935493950642728  0.16843873818493837  1.0000
  H   H9        1.0  0.8198876054024788  0.41730083889767067  0.7781444184388284  1.0000
  H   H10       1.0  0.8279318819347443  0.3549041344116941  0.44619190981851414  1.0000
  H   H11       1.0  0.8226776034410931  0.2394791160488774  0.24043016109599494  1.0000
  H   H12       1.0  0.8462744499223825  0.8224191100132764  0.4438057443397183  1.0000
  H   H13       1.0  0.8827978526111501  0.7037665718504548  0.7686254250005925  1.0000
  C   C21       1.0  0.8423627017280338  0.5782238693315593  0.18549927897788532  1.0000
  C   C22       1.0  0.8196343181416449  0.7220351803005955  0.17419116599426276  1.0000
  C   C23       1.0  0.8081451561505333  0.7933784492020943  0.051589184714565306  1.0000
  C   C24       1.0  0.8196342547346236  0.7220350289196829  0.9390399964216979  1.0000
  C   C25       1.0  0.8423626565979934  0.5782238596132119  0.9479961826149217  1.0000
  C   C26       1.0  0.853594308006669  0.5070083801676526  0.07176521728063157  1.0000
  S   S1        1.0  0.7792495567983351  0.9772254391642213  0.03863617047939183  1.0000
  C   C27       1.0  0.6875775219678915  0.9268408359279373  0.0421871543565675  1.0000
  H   H14       1.0  0.8509020126707295  0.5240098697830027  0.5170751383582841  1.0000
  H   H15       1.0  0.81060565715326  0.7791574433557782  0.2602661939209352  1.0000
  H   H16       1.0  0.810605516974843  0.7791572356213481  0.8449158810989662  1.0000
  H   H17       1.0  0.8711130669899578  0.39607078156086395  0.07958125451520992  1.0000
  H   H18       1.0  0.8509007148412764  0.5240091210916511  0.6240595534214785  1.0000
  H   H19       1.0  0.6749357528919417  0.8626873989066854  0.958590278040468  1.0000
  H   H20       1.0  0.6749360577748517  0.8626888563139681  0.1348249689506702  1.0000
  H   H21       1.0  0.6559022749597282  0.02637819230125294  0.03517394066841329  1.0000
  Zn  Zn1       1.0  0.7662058024812438  0.5782255617688228  0.5667496328989965  1.0000
  Zn  Zn2       1.0  0.9185129010595818  0.578221466450342  0.566745249192411  1.0000
  C   C28       1.0  0.8423327085555509  0.5724788819369819  0.8038723818937024  1.0000
  C   C29       1.0  0.8423876671714248  0.5839699657989474  0.32962262617367366  1.0000
  C   C30       1.0  0.8436614845186814  0.8416075405370858  0.561371209944898  1.0000
  C   C31       1.0  0.8410588306691718  0.31483957460378265  0.572123868676063  1.0000
  O   O1        1.0  0.9001957648480483  0.585890562740915  0.37799007933062856  1.0000
  O   O2        1.0  0.9001221691740506  0.5705540888362872  0.7555012287153842  1.0000
  O   O3        1.0  0.9011943934005915  0.787878884273219  0.5596798154974743  1.0000
  O   O4        1.0  0.8991234887004284  0.36856577762146236  0.5738113951981716  1.0000
  O   O5        1.0  0.7855951628654675  0.7878812506006698  0.5596834868879017  1.0000
  O   O6        1.0  0.7845229472031187  0.5705581877617654  0.7555048295468932  1.0000
  O   O7        1.0  0.7845965426749346  0.5858946114131451  0.37799211929334553  1.0000
  O   O8        1.0  0.7835242664734638  0.3685698159791806  0.5738135325059222  1.0000
