data_image0
_chemical_formula_structural       NC8NC6H8C8H9C6OCH6Zn2C4O8
_chemical_formula_sum              "N2 C33 H23 O9 Zn2"
_cell_length_a       17.457602349358154
_cell_length_b       9.275653711864159
_cell_length_c       9.273891588657152
_cell_angle_alpha    86.25581090866153
_cell_angle_beta     92.54290593679646
_cell_angle_gamma    91.13236207428555

_space_group_name_H-M_alt    "P 1"
_space_group_IT_number       1

loop_
  _space_group_symop_operation_xyz
  'x, y, z'

loop_
  _atom_site_type_symbol
  _atom_site_label
  _atom_site_symmetry_multiplicity
  _atom_site_fract_x
  _atom_site_fract_y
  _atom_site_fract_z
  _atom_site_occupancy
  N   N1        1.0  0.7188050526573632  0.5990183717533735  0.48035439210676034  1.0000
  C   C1        1.0  0.6580222837676304  0.5479401140823277  0.46843588516858214  1.0000
  C   C2        1.0  0.5824058720103527  0.4844051980429182  0.45361986774057894  1.0000
  C   C3        1.0  0.5233996476336383  0.5297194229637101  0.5368490408783213  1.0000
  C   C4        1.0  0.4492072869932377  0.46854167810876385  0.5227212306789399  1.0000
  C   C5        1.0  0.3865826932958499  0.5163891745330309  0.6108636940125975  1.0000
  C   C6        1.0  0.3121181350330429  0.5363387718272331  0.5490437064358211  1.0000
  C   C7        1.0  0.2531125866108934  0.5814499153529804  0.6323921091435443  1.0000
  C   C8        1.0  0.17721385811044613  0.6020501542602115  0.5681156517567918  1.0000
  N   N2        1.0  0.11620423246816991  0.6186056668165183  0.516437528291795  1.0000
  C   C9        1.0  0.2680763581143431  0.606886338046088  0.778125494188626  1.0000
  C   C10       1.0  0.3417527166057946  0.5873723045523367  0.8403767445422923  1.0000
  C   C11       1.0  0.4007441110700923  0.542465515086778  0.7575367811873517  1.0000
  C   C12       1.0  0.4353184195874516  0.3612837128446411  0.4237722075873458  1.0000
  C   C13       1.0  0.49431001222292614  0.3162827412385465  0.34098772797308974  1.0000
  C   C14       1.0  0.5677151323180974  0.3775906296079663  0.355726110438366  1.0000
  H   H1        1.0  0.5350956749466413  0.6138358281536588  0.6110112246666215  1.0000
  H   H2        1.0  0.3001990360441456  0.5187183411769284  0.43579059760183747  1.0000
  H   H3        1.0  0.2228439787053177  0.6417432969958456  0.8435041127060161  1.0000
  H   H4        1.0  0.3531505462697738  0.6067179531495648  0.9532203981994648  1.0000
  H   H5        1.0  0.4571602656407938  0.526279607812429  0.8086517010682959  1.0000
  H   H6        1.0  0.379125715618818  0.3108595895123212  0.4118154115766075  1.0000
  H   H7        1.0  0.4831254906372784  0.23339373132832764  0.2654992536068017  1.0000
  H   H8        1.0  0.6129507631381251  0.34177339973749565  0.29091200789161764  1.0000
  C   C15       1.0  0.9196645087991059  0.18551718882445425  0.49724695105461536  1.0000
  C   C16       1.0  0.9020557375236246  0.2668955166881928  0.3670930696636656  1.0000
  C   C17       1.0  0.8775162575188736  0.19934960384109424  0.24188842393670806  1.0000
  C   C18       1.0  0.8717291133593326  0.0485121936878965  0.2459686907451861  1.0000
  C   C19       1.0  0.890173758241703  0.9659625397840804  0.3734205856270483  1.0000
  C   C20       1.0  0.9153521157836576  0.032096161485765114  0.4995580368965069  1.0000
  C   C21       1.0  0.8599699587734165  0.2880339290849826  0.10295394557587967  1.0000
  C   C22       1.0  0.9319790288930913  0.3125853158774019  0.0167337917924637  1.0000
  H   H9        1.0  0.9057389995745525  0.3838607135486117  0.36354412087012244  1.0000
  H   H10       1.0  0.8536519845527992  0.9945274264074919  0.149779308622078  1.0000
  H   H11       1.0  0.8866304096538017  0.8493088374558501  0.3722189889170471  1.0000
  H   H12       1.0  0.9218513771353012  0.735453601155585  0.7378462002297017  1.0000
  H   H13       1.0  0.8154557499665129  0.23239405383025086  0.03623269493931969  1.0000
  H   H14       1.0  0.8366214942403116  0.39427699032339486  0.12638269231222155  1.0000
  H   H15       1.0  0.9764860729253692  0.37151231569922943  0.0802849531120906  1.0000
  H   H16       1.0  0.9550848581906954  0.20755010117451955  0.9891714410930245  1.0000
  H   H17       1.0  0.9178203393427046  0.37803892584405185  0.9148436461666685  1.0000
  C   C23       1.0  0.9187839703474803  0.6050510039078284  0.07523081630692086  1.0000
  C   C24       1.0  0.9812709339024576  0.6690301022298792  0.14967259250482012  1.0000
  C   C25       1.0  0.03935348406936434  0.7435584957727036  0.0753653724112795  1.0000
  C   C26       1.0  0.035156232540728416  0.7544792867365107  0.9235791723005443  1.0000
  C   C27       1.0  0.9742847197418617  0.6897067901084352  0.8479390919090064  1.0000
  C   C28       1.0  0.9162326448259812  0.612562328367047  0.921574176082726  1.0000
  O   O1        1.0  0.09975534736320649  0.8056596113478638  0.15624506704156604  1.0000
  C   C29       1.0  0.16251426896334875  0.8846331317939564  0.09510927953265136  1.0000
  H   H18       1.0  0.7368417060178098  0.5075275598410722  0.16944537795159165  1.0000
  H   H19       1.0  0.0790484540630656  0.8116998467753012  0.8628180967808343  1.0000
  H   H20       1.0  0.794933289345384  0.5412471083548059  0.634909227767118  1.0000
  H   H21       1.0  0.14143373422502004  0.9811633510545164  0.029111033816527025  1.0000
  H   H22       1.0  0.19485170697213172  0.814669641579929  0.027404407500166924  1.0000
  H   H23       1.0  0.20159136595774618  0.9210224404366018  0.18361095119895166  1.0000
  Zn  Zn1       1.0  0.8334858662972344  0.6046670502675553  0.49077551561226374  1.0000
  Zn  Zn2       1.0  0.001523429214947743  0.6129452746131607  0.5060281705074474  1.0000
  C   C30       1.0  0.9167424533142253  0.6054000347297399  0.7615813464777366  1.0000
  C   C31       1.0  0.9182686674719639  0.6122142005668856  0.23522265260397576  1.0000
  C   C32       1.0  0.916180619569762  0.8720235846601546  0.4933784229056328  1.0000
  C   C33       1.0  0.9188304524671452  0.3455889166577222  0.5034256430716411  1.0000
  O   O2        1.0  0.9818651385452685  0.6177534891893846  0.2947056602840179  1.0000
  O   O3        1.0  0.98068261116067  0.6061426357297149  0.7136743331478941  1.0000
  O   O4        1.0  0.9802280591479858  0.821444495162462  0.49709850084468027  1.0000
  O   O5        1.0  0.9823196334913007  0.4024516362844533  0.5112813793625408  1.0000
  O   O6        1.0  0.8526896046779231  0.8151606857728124  0.48552230154461246  1.0000
  O   O7        1.0  0.8531441480969308  0.5998605574953637  0.7020980617397061  1.0000
  O   O8        1.0  0.8543266810111858  0.6114713453497835  0.2831276561937053  1.0000
  O   O9        1.0  0.8547811756809119  0.39616948309358585  0.49970348328436104  1.0000
