data_image0
_chemical_formula_structural       NC12NC2H8C6NH7C6NCH7Zn2C4O8
_chemical_formula_sum              "N4 C31 H22 Zn2 O8"
_cell_length_a       19.240039667572717
_cell_length_b       9.274771166103584
_cell_length_c       9.273390368590327
_cell_angle_alpha    86.06293122453995
_cell_angle_beta     89.99083702737411
_cell_angle_gamma    90.59704977044065

_space_group_name_H-M_alt    "P 1"
_space_group_IT_number       1

loop_
  _space_group_symop_operation_xyz
  'x, y, z'

loop_
  _atom_site_type_symbol
  _atom_site_label
  _atom_site_symmetry_multiplicity
  _atom_site_fract_x
  _atom_site_fract_y
  _atom_site_fract_z
  _atom_site_occupancy
  N   N1        1.0  0.6624447253309603  0.5617333859830405  0.40733523061205434  1.0000
  C   C1        1.0  0.6022963569844034  0.5617334782958032  0.40733513951168376  1.0000
  C   C2        1.0  0.5274783205012418  0.5617336069474841  0.4073349868984224  1.0000
  C   C3        1.0  0.4906422044267783  0.49135034422649143  0.5222289610718855  1.0000
  C   C4        1.0  0.41797083539510704  0.4912282077452914  0.5223252260619788  1.0000
  C   C5        1.0  0.381146086086367  0.561733707076987  0.40733473403568965  1.0000
  C   C6        1.0  0.41869701620298816  0.6322394163877139  0.2923444575336498  1.0000
  C   C7        1.0  0.4913670824178657  0.6321170197797845  0.2924408589438918  1.0000
  C   C8        1.0  0.3039409952103709  0.5617336185833068  0.40733462830226674  1.0000
  C   C9        1.0  0.2661201553926357  0.4364277701389529  0.45402839705382325  1.0000
  C   C10       1.0  0.19345006585410326  0.43654542852063244  0.45392683193477934  1.0000
  C   C11       1.0  0.15760870756486148  0.5617334758281831  0.4073346961576241  1.0000
  C   C12       1.0  0.08279066976874029  0.5617333524236383  0.4073349723447235  1.0000
  N   N2        1.0  0.022642352683378893  0.561733309536689  0.40733520372680365  1.0000
  C   C13       1.0  0.1947148605566988  0.686921606734548  0.3607425015316419  1.0000
  C   C14       1.0  0.2673861566294327  0.6870394632613879  0.36064075560782927  1.0000
  H   H1        1.0  0.5180764728731125  0.4368660727279056  0.6119340685725021  1.0000
  H   H2        1.0  0.3906013545632254  0.4376435173141526  0.6132667110573571  1.0000
  H   H3        1.0  0.3918799663990176  0.6858241362669288  0.2014029160534372  1.0000
  H   H4        1.0  0.5193625848679418  0.686601183166208  0.20273605771701253  1.0000
  H   H5        1.0  0.2927151750049325  0.3377697572477383  0.48879583965488166  1.0000
  H   H6        1.0  0.16524195798032024  0.3388983107106731  0.48983884840832004  1.0000
  H   H7        1.0  0.16749314484540756  0.784568697462769  0.3248305012549646  1.0000
  H   H8        1.0  0.29497761627728386  0.7856975635668507  0.32587326316184684  1.0000
  C   C15       1.0  0.8404130369537781  0.13814516019255896  0.40812078376845795  1.0000
  C   C16       1.0  0.8244224392438146  0.22008410919186927  0.279234159939201  1.0000
  C   C17       1.0  0.8149211052422216  0.15365622941865612  0.1495298051363272  1.0000
  C   C18       1.0  0.8214468275849311  0.0039019430683942  0.1477726133839512  1.0000
  C   C19       1.0  0.836152234282406  0.9206247490339206  0.2748887120312806  1.0000
  C   C20       1.0  0.8446806690077325  0.9853106330621743  0.4065621266456725  1.0000
  N   N3        1.0  0.7993575627686127  0.2386796213983566  0.019226642517374378  1.0000
  H   H9        1.0  0.918625796325972  0.22115779889581552  0.7235459972444247  1.0000
  H   H10       1.0  0.8209180172788323  0.3366709337326217  0.2786805294759924  1.0000
  H   H11       1.0  0.8144654649486444  0.951354108227955  0.04797819820784021  1.0000
  H   H12       1.0  0.8392153344802084  0.8044168640149677  0.27076099305183976  1.0000
  H   H13       1.0  0.8945430368564533  0.6905250876925615  0.6211629542895534  1.0000
  H   H14       1.0  0.7945688828212705  0.3507530257091962  0.019179831344412927  1.0000
  H   H15       1.0  0.7924415777392367  0.19017418510122416  0.921802463457528  1.0000
  C   C21       1.0  0.8425564023766372  0.5572297243796573  0.984103944077099  1.0000
  C   C22       1.0  0.9063771122784261  0.5543636468308543  0.05771169406837528  1.0000
  C   C23       1.0  0.9691519420921942  0.5649066581679805  0.982277498812183  1.0000
  C   C24       1.0  0.9697016413256028  0.5787065231230137  0.830624119821179  1.0000
  C   C25       1.0  0.9062923112928222  0.5791399807097144  0.7562112435455277  1.0000
  C   C26       1.0  0.8425373098200768  0.5662260577650737  0.8305789262940846  1.0000
  N   N4        1.0  0.03365955038588253  0.5909103824807393  0.7498133855133315  1.0000
  C   C27       1.0  0.10228363673977459  0.5910803815102759  0.8168012607182655  1.0000
  H   H16       1.0  0.7325051079886795  0.4879408032846744  0.2700714394614663  1.0000
  H   H17       1.0  0.017032544845947184  0.563579343402958  0.043400938508620264  1.0000
  H   H18       1.0  0.6799977621920834  0.4541625183616862  0.7352940502626208  1.0000
  H   H19       1.0  0.03145258879552659  0.6004701533723493  0.636919963455532  1.0000
  H   H20       1.0  0.1072604875234997  0.6836121232443899  0.8860995459648118  1.0000
  H   H21       1.0  0.11024213977883  0.4879713564988024  0.8825449081822572  1.0000
  H   H22       1.0  0.14306962188932926  0.6019851266328138  0.7318906245302492  1.0000
  Zn  Zn1       1.0  0.7663899694720356  0.5617296012085489  0.40734354048159593  1.0000
  Zn  Zn2       1.0  0.918697067775106  0.5617254530939542  0.40733867800567536  1.0000
  C   C28       1.0  0.8425104057973556  0.5587791067756769  0.6705876095856058  1.0000
  C   C29       1.0  0.8425783038037887  0.5646777690075027  0.14409474696028712  1.0000
  C   C30       1.0  0.8438705393916144  0.825117254705066  0.40111339336829754  1.0000
  C   C31       1.0  0.8412181095058092  0.29833788886071044  0.41356904320783405  1.0000
  O   O1        1.0  0.9003853724727077  0.5671695336696174  0.19778728823598635  1.0000
  O   O2        1.0  0.9003008951217184  0.5562831011987153  0.6168909649166079  1.0000
  O   O3        1.0  0.9013984409982103  0.7713545399059314  0.39928862601167325  1.0000
  O   O4        1.0  0.8992877746785407  0.35209810413399995  0.41538951905865074  1.0000
  O   O5        1.0  0.7857992105936712  0.7713569501714077  0.39929269942269596  1.0000
  O   O6        1.0  0.7847016734459704  0.556287243684499  0.6168949582914676  1.0000
  O   O7        1.0  0.7847861506290871  0.5671736074730458  0.19778954888428935  1.0000
  O   O8        1.0  0.7836885527776656  0.35210216876873446  0.41539188778329983  1.0000
