data_image0
_chemical_formula_structural       NC8NC6H8C7NC2NH5C6OCH7Zn2C4O8
_chemical_formula_sum              "N4 C34 H20 O9 Zn2"
_cell_length_a       17.457602349358154
_cell_length_b       9.273995741505848
_cell_length_c       9.273891588657152
_cell_angle_alpha    86.22271932508039
_cell_angle_beta     92.54290593679646
_cell_angle_gamma    92.2639659462817

_space_group_name_H-M_alt    "P 1"
_space_group_IT_number       1

loop_
  _space_group_symop_operation_xyz
  'x, y, z'

loop_
  _atom_site_type_symbol
  _atom_site_label
  _atom_site_symmetry_multiplicity
  _atom_site_fract_x
  _atom_site_fract_y
  _atom_site_fract_z
  _atom_site_occupancy
  N   N1        1.0  0.7356061738208464  0.6002138667815045  0.48077597640542424  1.0000
  C   C1        1.0  0.6742867181668395  0.5490974208043267  0.4688440025854286  1.0000
  C   C2        1.0  0.5980027357040927  0.48551500332429653  0.4540112340534399  1.0000
  C   C3        1.0  0.5394726345519595  0.5308631071119942  0.5372523543745731  1.0000
  C   C4        1.0  0.4646374703503404  0.4696396231391621  0.5231084145439666  1.0000
  C   C5        1.0  0.40251561733373165  0.5175228924132569  0.611263492962966  1.0000
  C   C6        1.0  0.32826067242323104  0.5374874048859211  0.5494487651362543  1.0000
  C   C7        1.0  0.2697291134195821  0.5826322754461732  0.6328090614845641  1.0000
  C   C8        1.0  0.1940468346585444  0.6032479159795687  0.5685380353908009  1.0000
  N   N2        1.0  0.13321116022114213  0.6198158061503539  0.5168642768188372  1.0000
  C   C9        1.0  0.2849601491566279  0.6080877155048101  0.7785491528918806  1.0000
  C   C10       1.0  0.35843147082867305  0.58855909247886  0.8407952583327247  1.0000
  C   C11       1.0  0.41695102305263015  0.5436187287626961  0.7579434552155421  1.0000
  C   C12       1.0  0.4496216277315206  0.3623014671990188  0.42413111268155884  1.0000
  C   C13       1.0  0.5081403885410548  0.31726685092769324  0.3413347684737568  1.0000
  C   C14       1.0  0.5821896796344881  0.37862057571589647  0.3560893148828481  1.0000
  H   H1        1.0  0.5520524853033908  0.6150424013506024  0.611436715616438  1.0000
  H   H2        1.0  0.31615643297845264  0.5198538004424893  0.43619101064151433  1.0000
  H   H3        1.0  0.24009401694091206  0.6429707350188836  0.8439369615141828  1.0000
  H   H4        1.0  0.3700325680671902  0.6079192047164828  0.9536440125077146  1.0000
  H   H5        1.0  0.4731971099155047  0.527420720206702  0.8090541076506041  1.0000
  H   H6        1.0  0.39289911008429923  0.311839644619582  0.41216102225279116  1.0000
  H   H7        1.0  0.49608493993966835  0.2343158696224083  0.2658244402590526  1.0000
  H   H8        1.0  0.627048973553437  0.34277656734119644  0.2912657690538951  1.0000
  C   C15       1.0  0.9321209122292873  0.18640353255260653  0.4975595149634695  1.0000
  C   C16       1.0  0.9459734719668785  0.26914463480988826  0.36846320299003793  1.0000
  C   C17       1.0  0.9666752203400334  0.2039216045870469  0.2453949899189709  1.0000
  C   C18       1.0  0.9743831475784291  0.05387213660617672  0.2479319935640747  1.0000
  C   C19       1.0  0.9589230525261989  0.9697633950152202  0.37568833691187603  1.0000
  C   C20       1.0  0.9367036581096958  0.03361542701501907  0.5000938038632801  1.0000
  C   C21       1.0  0.9972630454343877  0.9867922346014669  0.11606291906638223  1.0000
  N   N3        1.0  0.0004416622849363633  0.060049792946308175  0.9853744950617813  1.0000
  C   C22       1.0  0.023719945369441  0.9624906422767157  0.8968329751408338  1.0000
  C   C23       1.0  0.03444284461144931  0.8327963798730298  0.9743262736271837  1.0000
  N   N4        1.0  0.017837145148162255  0.8482360786185973  0.1121855522941282  1.0000
  H   H9        1.0  0.8692954620373528  0.44978275817488433  0.6993061965733469  1.0000
  H   H10       1.0  0.9777902548945214  0.27178459305745073  0.14848664434264802  1.0000
  H   H11       1.0  0.9370050342163987  0.7377658065805219  0.7398218372836896  1.0000
  H   H12       1.0  0.03254496714778553  0.9849087539902233  0.7827131624581702  1.0000
  H   H13       1.0  0.021759867658007536  0.7686501825746043  0.19679698495123588  1.0000
  C   C24       1.0  0.9356484772640933  0.6062510091916735  0.07565399112076658  1.0000
  C   C25       1.0  0.9988076786130993  0.670277941044157  0.15011263553217247  1.0000
  C   C26       1.0  0.057673309570166253  0.744862055225036  0.07582506499430663  1.0000
  C   C27       1.0  0.05359080439806064  0.7557910110426882  0.9240417441713157  1.0000
  C   C28       1.0  0.9920387174524962  0.6909700877054226  0.8483845863852673  1.0000
  C   C29       1.0  0.9331760743332078  0.613767949440682  0.9219993312718505  1.0000
  O   O1        1.0  0.11872767841716317  0.8070096002698157  0.1567211327043021  1.0000
  C   C30       1.0  0.18231638640948233  0.8860421647223529  0.09560616671740263  1.0000
  H   H14       1.0  0.752681519767046  0.5086546523963533  0.16984284052003945  1.0000
  H   H15       1.0  0.0017001999679833106  0.6653926956065418  0.267296549787269  1.0000
  H   H16       1.0  0.09808425075885908  0.8130543516375007  0.8632957549633696  1.0000
  H   H17       1.0  0.8111273993492251  0.542399411097356  0.6353155805600079  1.0000
  H   H18       1.0  0.1622501088794406  0.9826445541338186  0.029633371381027285  1.0000
  H   H19       1.0  0.21391870773863797  0.816026366788678  0.027882848674869457  1.0000
  H   H20       1.0  0.22177583122074054  0.9224586795799664  0.18411743249558654  1.0000
  Zn  Zn1       1.0  0.8503463389564898  0.6058667684911159  0.4911985891959867  1.0000
  Zn  Zn2       1.0  0.018470882394693532  0.6141511819939083  0.5064534266610932  1.0000
  C   C31       1.0  0.9336106275490081  0.6066003009640653  0.7620046133142361  1.0000
  C   C32       1.0  0.9352084391492028  0.6134195613651783  0.23564771600852977  1.0000
  C   C33       1.0  0.9358502466499594  0.8734231901478343  0.49387198555879724  1.0000
  C   C34       1.0  0.9329687530797995  0.3465949369062631  0.5037804102023636  1.0000
  O   O2        1.0  0.998863112342602  0.6189629913985106  0.29513218413277365  1.0000
  O   O3        1.0  0.9975585880133572  0.6073434571645427  0.7140977957725892  1.0000
  O   O4        1.0  0.9993662442973082  0.8228062855436423  0.49757872822268473  1.0000
  O   O5        1.0  0.9970553990605876  0.40350016955210766  0.5116511384597079  1.0000
  O   O6        1.0  0.8717617649179707  0.8165177781073565  0.4860008721840692  1.0000
  O   O7        1.0  0.8699541182298468  0.6010566821778416  0.7025198680822762  1.0000
  O   O8        1.0  0.8712586473994238  0.6126761507575098  0.28355252374303874  1.0000
  O   O9        1.0  0.8694509337428479  0.39721331955284905  0.5000715860796405  1.0000
