data_image0
_chemical_formula_structural       NC5NC4H6C9H10C6NCOH5Zn2C4O8
_chemical_formula_sum              "N3 C29 H21 O9 Zn2"
_cell_length_a       13.854160002989762
_cell_length_b       10.297183801781406
_cell_length_c       9.27373355559583
_cell_angle_alpha    86.14735742997276
_cell_angle_beta     90.01106291040419
_cell_angle_gamma    89.99762469776624

_space_group_name_H-M_alt    "P 1"
_space_group_IT_number       1

loop_
  _space_group_symop_operation_xyz
  'x, y, z'

loop_
  _atom_site_type_symbol
  _atom_site_label
  _atom_site_symmetry_multiplicity
  _atom_site_fract_x
  _atom_site_fract_y
  _atom_site_fract_z
  _atom_site_occupancy
  N   N1        1.0  0.9086599134158612  0.40630298726062164  0.40954946751151566  1.0000
  C   C1        1.0  0.8363189177848478  0.42844139204903287  0.35050560872746667  1.0000
  C   C2        1.0  0.7463257006779012  0.45598216169470834  0.27705278775735676  1.0000
  C   C3        1.0  0.6587645538990328  0.43011896632260677  0.3487724198901234  1.0000
  C   C4        1.0  0.5711832883032646  0.45598217437769145  0.2770527645837575  1.0000
  C   C5        1.0  0.48121077643637383  0.4284412602394605  0.3505057003943339  1.0000
  N   N2        1.0  0.4088863428197907  0.4063029300660872  0.40954946745356197  1.0000
  C   C6        1.0  0.5711957894326348  0.5082549557605917  0.13363219348958455  1.0000
  C   C7        1.0  0.6587241303329529  0.536053836444135  0.06180817499496415  1.0000
  C   C8        1.0  0.6587024960206255  0.5884327651555228  0.9069012049676992  1.0000
  C   C9        1.0  0.7462728784567018  0.5082549536942014  0.13363210323323926  1.0000
  H   H1        1.0  0.6587801860358438  0.3895606044461156  0.45977735869710434  1.0000
  H   H2        1.0  0.5033150410071294  0.5273408084015112  0.07798589205288176  1.0000
  H   H3        1.0  0.7235518021357163  0.6495972769426613  0.8830893844048977  1.0000
  H   H4        1.0  0.5938433244853808  0.6495972792623143  0.8830894494735411  1.0000
  H   H5        1.0  0.6586958314280503  0.5062029695979217  0.8354048033061237  1.0000
  H   H6        1.0  0.8141380000749858  0.5273409088932952  0.07798580659585894  1.0000
  C   C10       1.0  0.15878115566865936  0.02482936959299886  0.40975369617559765  1.0000
  C   C11       1.0  0.15594754640595912  0.033222716066953824  0.2580941309236368  1.0000
  C   C12       1.0  0.1544955822550233  0.9209063855206738  0.18039450065006202  1.0000
  C   C13       1.0  0.15593616207025573  0.7980459387687467  0.25750632090554526  1.0000
  C   C14       1.0  0.15877436215498442  0.7877666667879049  0.4093577133455748  1.0000
  C   C15       1.0  0.16017741547764983  0.9016249245730484  0.48449014979617394  1.0000
  C   C16       1.0  0.15143056669360444  0.9394165772079988  0.01636397191902139  1.0000
  C   C17       1.0  0.09490152222553849  0.8399238102878812  0.9361351724616517  1.0000
  C   C18       1.0  0.2048657506416577  0.8401877332046377  0.9315567999709377  1.0000
  H   H7        1.0  0.15988220137715276  0.349133597966049  0.4681929911738716  1.0000
  H   H8        1.0  0.15485381958674482  0.12788537622209484  0.19954517143942962  1.0000
  H   H9        1.0  0.15487046614581423  0.7098957540734561  0.20058325469769622  1.0000
  H   H10       1.0  0.16236312073921888  0.8944218386486968  0.6014986891302112  1.0000
  H   H11       1.0  0.1641221010659403  0.5611355664922939  0.6961622357734993  1.0000
  H   H12       1.0  0.15044630296675776  0.039622286132490206  0.9636416764197766  1.0000
  H   H13       1.0  0.06270112984185627  0.7569205799722134  0.0017231655415157485  1.0000
  H   H14       1.0  0.06083552869934072  0.8798106891653132  0.8341665765857571  1.0000
  H   H15       1.0  0.2394627220179466  0.7573456288777667  0.9943644299904242  1.0000
  H   H16       1.0  0.23506900913852136  0.8802264832248757  0.8269110170947418  1.0000
  C   C19       1.0  0.1587225554942815  0.40220518603878275  0.9863308387789882  1.0000
  C   C20       1.0  0.07000835811944972  0.3947491665169913  0.06028616894732419  1.0000
  C   C21       1.0  0.9821718678878493  0.39782058210570903  0.985335088081694  1.0000
  C   C22       1.0  0.9830238089703061  0.41257061707483167  0.8339796980996623  1.0000
  C   C23       1.0  0.07028665907442999  0.41808819851815193  0.7588213813946623  1.0000
  C   C24       1.0  0.15883294188091956  0.41039082910753044  0.832780623014715  1.0000
  N   N3        1.0  0.8931715700778141  0.3932644022745099  0.06535193657877914  1.0000
  C   C25       1.0  0.806210943349992  0.3334445616639037  0.01860055819941508  1.0000
  O   O1        1.0  0.8057039970808757  0.26469809664612604  0.9112854055339102  1.0000
  H   H17       1.0  0.3861758959770021  0.49240711237359575  0.08259747653391436  1.0000
  H   H18       1.0  0.9163623697450737  0.42121974526176365  0.7733605950859372  1.0000
  H   H19       1.0  0.31278777068731367  0.46565276302174974  0.547645706967415  1.0000
  H   H20       1.0  0.8928255833074853  0.42780482547924875  0.16875300857261033  1.0000
  H   H21       1.0  0.7402382909142182  0.3443390591509363  0.07901574321608384  1.0000
  Zn  Zn1       1.0  0.05301446212709182  0.406299573401687  0.4095578010090636  1.0000
  Zn  Zn2       1.0  0.264531796922008  0.4062958281376291  0.4095529758288181  1.0000
  C   C26       1.0  0.15880997085734647  0.4036684821838643  0.6727861562271432  1.0000
  C   C27       1.0  0.1587385979582887  0.40892855975206815  0.1463247611635321  1.0000
  C   C28       1.0  0.15876991536521018  0.6434997347585804  0.4036894298658167  1.0000
  C   C29       1.0  0.1587785812982958  0.16909574719065312  0.41542156517420326  1.0000
  O   O2        1.0  0.23901370822916435  0.411177896783591  0.20001835488880212  1.0000
  O   O3        1.0  0.2390716234724788  0.40141531857995044  0.6190884859339638  1.0000
  O   O4        1.0  0.2390381962771421  0.5950821026255635  0.4017909748168864  1.0000
  O   O5        1.0  0.23904706323378633  0.2175111209870093  0.4173157579409801  1.0000
  O   O6        1.0  0.0784991236348267  0.5950842805549261  0.4017950188909669  1.0000
  O   O7        1.0  0.07853255080180639  0.40141905649862997  0.6190924523527648  1.0000
  O   O8        1.0  0.07847463539711286  0.4111815726770103  0.20002058856370497  1.0000
  O   O9        1.0  0.07850799041196276  0.2175147886340163  0.41731809967484773  1.0000
