data_image0
_chemical_formula_structural       NC12NC2H8C7OC3NC3H10C7OC6OCH12Zn2C4O8
_chemical_formula_sum              "N3 C45 H30 O11 Zn2"
_cell_length_a       19.240039667572717
_cell_length_b       10.298746005989749
_cell_length_c       10.299362532796529
_cell_angle_alpha    85.58216748152913
_cell_angle_beta     90.01509071760941
_cell_angle_gamma    90.00762981599719

_space_group_name_H-M_alt    "P 1"
_space_group_IT_number       1

loop_
  _space_group_symop_operation_xyz
  'x, y, z'

loop_
  _atom_site_type_symbol
  _atom_site_label
  _atom_site_symmetry_multiplicity
  _atom_site_fract_x
  _atom_site_fract_y
  _atom_site_fract_z
  _atom_site_occupancy
  N   N1        1.0  0.6543764503255892  0.4209570152747272  0.567598587147898  1.0000
  C   C1        1.0  0.5942280815027419  0.42095709923808444  0.567598505219689  1.0000
  C   C2        1.0  0.519410044350579  0.4209572164917747  0.5675983679273378  1.0000
  C   C3        1.0  0.4829463169505355  0.35651806141962816  0.671003396601201  1.0000
  C   C4        1.0  0.4102755731481383  0.356407197118902  0.6710899273559312  1.0000
  C   C5        1.0  0.3730778093877408  0.4209573089951335  0.5675981402561336  1.0000
  C   C6        1.0  0.4102557240553232  0.4855076079334557  0.46410654771439624  1.0000
  C   C7        1.0  0.48292641681713194  0.4853965081504985  0.4641932009455981  1.0000
  C   C8        1.0  0.2958727189290496  0.4209572302979463  0.567598044833305  1.0000
  C   C9        1.0  0.2586827387288924  0.30769950561115506  0.6094571037850458  1.0000
  C   C10       1.0  0.1860120450884636  0.3078063870826612  0.609365789671261  1.0000
  C   C11       1.0  0.1495404320052317  0.4209571011325849  0.5675981057301986  1.0000
  C   C12       1.0  0.0747223948772346  0.4209569874560444  0.5675983543780425  1.0000
  N   N2        1.0  0.014574078051615298  0.4209569466927747  0.5675985627920291  1.0000
  C   C13       1.0  0.18601632977656068  0.5341078910004703  0.5258303689063457  1.0000
  C   C14       1.0  0.2586870207280612  0.5342149525586795  0.5257388922171289  1.0000
  H   H1        1.0  0.5106690101698194  0.3066280732264657  0.7517391480261963  1.0000
  H   H2        1.0  0.38319030785167635  0.30731570402551295  0.7529412595094417  1.0000
  H   H3        1.0  0.3831544585584151  0.5345991280660464  0.38225516471549065  1.0000
  H   H4        1.0  0.5106334950926732  0.5352863961568968  0.38345772530426103  1.0000
  H   H5        1.0  0.2857740517032389  0.21854596906781884  0.6406155282387214  1.0000
  H   H6        1.0  0.1582954506834536  0.21955242407135284  0.6415572655011925  1.0000
  H   H7        1.0  0.15830310073408324  0.622361829477258  0.493638907624284  1.0000
  H   H8        1.0  0.28578218657025634  0.6233685682717609  0.49458042300018207  1.0000
  C   C15       1.0  0.8344453863635233  0.03955490515896187  0.5675813885590877  1.0000
  C   C16       1.0  0.8669408997964944  0.04802423735936267  0.44507876294308085  1.0000
  C   C17       1.0  0.8826412500698944  0.9351831632034688  0.3824465190336501  1.0000
  C   C18       1.0  0.8669414139128161  0.8127876221198039  0.4450296265038063  1.0000
  C   C19       1.0  0.8345118064103878  0.8023491111507076  0.5676269425454838  1.0000
  C   C20       1.0  0.8183022483202746  0.9162982008147221  0.6279704353123086  1.0000
  C   C21       1.0  0.9175470375554147  0.9439353621672546  0.25363271506853824  1.0000
  O   O1        1.0  0.9599796717300464  0.8559497985478961  0.2284207916292942  1.0000
  C   C22       1.0  0.9043171533039536  0.052442863890387555  0.15342836606864974  1.0000
  C   C23       1.0  0.8385037975043168  0.11183131855358042  0.14132109150033004  1.0000
  C   C24       1.0  0.8263111388743477  0.21347348516715553  0.04541558300506909  1.0000
  N   N3        1.0  0.759385327805158  0.2737044065512295  0.03421167265502391  1.0000
  C   C25       1.0  0.8799746359685507  0.25533436355961253  0.9602825592148153  1.0000
  C   C26       1.0  0.9451533105557306  0.19578058596537917  0.9705337876194218  1.0000
  C   C27       1.0  0.9572918645153946  0.09456280186103982  0.06613509234049486  1.0000
  H   H9        1.0  0.7740088203725708  0.2308474725252043  0.7999138284262  1.0000
  H   H10       1.0  0.8807557889967955  0.14252711582527477  0.39885759462302517  1.0000
  H   H11       1.0  0.879469509419813  0.7255816792861417  0.39733239641642226  1.0000
  H   H12       1.0  0.7932575007786488  0.9090177986911887  0.722399670467122  1.0000
  H   H13       1.0  0.7734975878091731  0.5753075548344767  0.7994708634685497  1.0000
  H   H14       1.0  0.7964232152577955  0.07844648842743139  0.205282838429038  1.0000
  H   H15       1.0  0.7190117877225307  0.24326931721420753  0.09716197158025164  1.0000
  H   H16       1.0  0.8712050936101552  0.33366348664149487  0.8857964519785777  1.0000
  H   H17       1.0  0.9863819856275484  0.22812910698328312  0.9042397631555525  1.0000
  H   H18       1.0  0.008266823684929479  0.049922829219965596  0.07266254749249956  1.0000
  C   C28       1.0  0.834424349491284  0.42083145379569364  0.186237285993474  1.0000
  C   C29       1.0  0.7684441616679604  0.36214590302403366  0.1895214474187623  1.0000
  C   C30       1.0  0.734866108110146  0.3338700022012837  0.07400645222155067  1.0000
  C   C31       1.0  0.7686399020661878  0.36230947459689944  0.9542671572991136  1.0000
  C   C32       1.0  0.8345328635355662  0.4210725284167707  0.9489710754601324  1.0000
  C   C33       1.0  0.8669878238143144  0.4502501038122739  0.06549497091270373  1.0000
  C   C34       1.0  0.665546011094975  0.2705670090879768  0.07980549357094624  1.0000
  O   O2        1.0  0.6513391974279568  0.19135374645718212  0.17569732645623054  1.0000
  C   C35       1.0  0.6123455794900797  0.2971204726635315  0.9768922787382618  1.0000
  C   C36       1.0  0.6070115804329571  0.4205034142133774  0.90904625232388  1.0000
  C   C37       1.0  0.5561412290132557  0.44468506230500515  0.8133521181343935  1.0000
  C   C38       1.0  0.5093801830414781  0.347012547808027  0.7842974812080605  1.0000
  C   C39       1.0  0.5139832742117842  0.2238231771506389  0.8530617353322607  1.0000
  C   C40       1.0  0.5648473861463372  0.19951431923512533  0.9488282669325614  1.0000
  O   O3        1.0  0.4593498626030387  0.37617459589704616  0.6873146827353431  1.0000
  C   C41       1.0  0.4086667532564971  0.2864057960392752  0.6479367097335134  1.0000
  H   H19       1.0  0.9590475225054114  0.5310795989591579  0.3873481613999421  1.0000
  H   H20       1.0  0.7427086138123821  0.3394030544723085  0.28205417364547003  1.0000
  H   H21       1.0  0.7437922114891566  0.3372272949017727  0.8652115900490679  1.0000
  H   H22       1.0  0.9178196191919228  0.4955773391716738  0.062142212700764254  1.0000
  H   H23       1.0  0.859927354074426  0.4431324045253998  0.619503192129717  1.0000
  H   H24       1.0  0.6416611153974614  0.49876071701671704  0.9308751280455674  1.0000
  H   H25       1.0  0.5528380131358862  0.5401524830380328  0.7617941864221237  1.0000
  H   H26       1.0  0.47853543800704845  0.14625172059824276  0.8333296764512408  1.0000
  H   H27       1.0  0.5674753155482315  0.10386501494369171  0.00027299573243411536  1.0000
  H   H28       1.0  0.3760248310888354  0.335104972603309  0.5698562267645313  1.0000
  H   H29       1.0  0.3747253102211116  0.2541900808480435  0.7314844635523037  1.0000
  H   H30       1.0  0.43456803455345183  0.20107865946770495  0.6092757802461168  1.0000
  Zn  Zn1       1.0  0.7583217149251045  0.420953530346692  0.5676060682981983  1.0000
  Zn  Zn2       1.0  0.910628832808287  0.42094984056937407  0.5676016798522938  1.0000
  C   C42       1.0  0.8345103414647719  0.41585284250194204  0.8047977346496112  1.0000
  C   C43       1.0  0.8344418696184595  0.4260521671762243  0.3304101410166296  1.0000
  C   C44       1.0  0.8344949459295636  0.6581631165864036  0.5624431991741011  1.0000
  C   C45       1.0  0.8344572130558485  0.18374033267661938  0.5727647456386813  1.0000
  O   O4        1.0  0.8922475065211809  0.4277972197930755  0.3787942024668536  1.0000
  O   O5        1.0  0.8923022827500597  0.4141040095036019  0.7564099685679085  1.0000
  O   O6        1.0  0.8922890716843973  0.6097726207041765  0.560706966576013  1.0000
  O   O7        1.0  0.892260665601698  0.23212861785401206  0.5744971070866518  1.0000
  O   O8        1.0  0.7766898301567479  0.6097747530647251  0.5607106410585073  1.0000
  O   O9        1.0  0.7767030413452841  0.41410770228196436  0.7564135738985285  1.0000
  O   O10       1.0  0.7766482649365717  0.4278008668180037  0.37879624640238596  1.0000
  O   O11       1.0  0.7766614240272887  0.23213225562010015  0.5744992483889484  1.0000
