data_image0
_chemical_formula_structural       NC6NCNCH5C6ClH5C6OCH7Zn2C4O8
_chemical_formula_sum              "N3 C25 H17 Cl1 O9 Zn2"
_cell_length_a       14.933214217465613
_cell_length_b       10.30297070629231
_cell_length_c       9.273891588657152
_cell_angle_alpha    86.0762958320409
_cell_angle_beta     89.64588733206324
_cell_angle_gamma    90.03245333812676

_space_group_name_H-M_alt    "P 1"
_space_group_IT_number       1

loop_
  _space_group_symop_operation_xyz
  'x, y, z'

loop_
  _atom_site_type_symbol
  _atom_site_label
  _atom_site_symmetry_multiplicity
  _atom_site_fract_x
  _atom_site_fract_y
  _atom_site_fract_z
  _atom_site_occupancy
  N   N1        1.0  0.848719175247995  0.4087052457823399  0.4092211857516044  1.0000
  C   C1        1.0  0.771232328810084  0.4095945100664909  0.40823073678320976  1.0000
  C   C2        1.0  0.6748381443869447  0.41070319441012093  0.4069957693271885  1.0000
  C   C3        1.0  0.626685703244172  0.32526125280803997  0.5021791549255108  1.0000
  C   C4        1.0  0.5331559878639792  0.3262274172758479  0.5011028654834635  1.0000
  C   C5        1.0  0.486876171685215  0.4125865694445572  0.4048977328784109  1.0000
  C   C6        1.0  0.3902934205356596  0.410705119235929  0.40699369860936885  1.0000
  N   N2        1.0  0.31280175399636795  0.4091355710657658  0.408741823910217  1.0000
  C   C7        1.0  0.5351315206651163  0.49910741082168647  0.30851256868856586  1.0000
  N   N3        1.0  0.4901644703599663  0.5888677472864892  0.20851871137892175  1.0000
  C   C8        1.0  0.6291382839636128  0.49727924185127775  0.3105492889905366  1.0000
  H   H1        1.0  0.6614246462163624  0.25789602767768827  0.5772248102406294  1.0000
  H   H2        1.0  0.49681610119661507  0.25942887787623614  0.575517096951534  1.0000
  H   H3        1.0  0.5267634568855422  0.6522651206516219  0.13789320786443945  1.0000
  H   H4        1.0  0.4204413314123696  0.5936437631751843  0.20319824231976177  1.0000
  H   H5        1.0  0.6666000271221764  0.5634056767194859  0.23688362459967616  1.0000
  C   C9        1.0  0.08076470845047973  0.02767299696871085  0.4089877349781054  1.0000
  C   C10       1.0  0.17313554924534505  0.02484114636980217  0.436655230141286  1.0000
  C   C11       1.0  0.21896749538032168  0.90647921295766  0.45038300202884174  1.0000
  C   C12       1.0  0.17313554876538417  0.7897331771486765  0.43665516235288904  1.0000
  C   C13       1.0  0.0807647177211706  0.7901579394603884  0.4089878174803896  1.0000
  C   C14       1.0  0.03502956357366374  0.9097217300494989  0.39528890479984713  1.0000
  Cl  Cl1       1.0  0.3343606837857913  0.9044450729886963  0.48494619604380523  1.0000
  H   H6        1.0  0.04597023333724515  0.35604281726171894  0.39856506714548745  1.0000
  H   H7        1.0  0.2098736779336583  0.11424011406845859  0.4476591416194069  1.0000
  H   H8        1.0  0.20987364287952714  0.6990389203664513  0.44765903809686947  1.0000
  H   H9        1.0  0.9637903681227995  0.910977411669549  0.3739508564730035  1.0000
  H   H10       1.0  0.045970228027043786  0.463014852791685  0.3985653392885035  1.0000
  C   C15       1.0  0.08223172146810076  0.40547842251394167  0.9857109029852195  1.0000
  C   C16       1.0  0.15556614804535995  0.4603824875347784  0.05420886360941867  1.0000
  C   C17       1.0  0.223821132406391  0.5249763235618053  0.9743286248495457  1.0000
  C   C18       1.0  0.21898576234549572  0.5349916363124161  0.8228930065429956  1.0000
  C   C19       1.0  0.14753266639656493  0.47930321208855414  0.7530509049082368  1.0000
  C   C20       1.0  0.07929770383195156  0.41235242990687526  0.8322645742746005  1.0000
  O   O1        1.0  0.29471002233533894  0.5782796503070218  0.04946201896635948  1.0000
  C   C21       1.0  0.3684511363518186  0.646673598440702  0.9823094887332243  1.0000
  H   H11       1.0  0.8692329704870352  0.32554179557988094  0.09694812979222878  1.0000
  H   H12       1.0  0.27057051402706  0.5846151395383907  0.7579175945289615  1.0000
  H   H13       1.0  0.1468101147830092  0.4859936607400772  0.6359704752865638  1.0000
  H   H14       1.0  0.9372558031662371  0.3533891031879468  0.5569686284976831  1.0000
  H   H15       1.0  0.3444135603944807  0.7345065567701237  0.917938740612954  1.0000
  H   H16       1.0  0.405789216461125  0.582275117196426  0.9118582547535191  1.0000
  H   H17       1.0  0.4142903118543124  0.6777481867978513  0.06710569101169869  1.0000
  Zn  Zn1       1.0  0.9826433544666667  0.4088260124403921  0.4090911847256  1.0000
  Zn  Zn2       1.0  0.17887751909073246  0.4090042498106983  0.40888366177288216  1.0000
  C   C22       1.0  0.07985031299068401  0.40588110128128624  0.6722478237649663  1.0000
  C   C23       1.0  0.08167270294743006  0.41195080216257907  0.1457271619409426  1.0000
  C   C24       1.0  0.08078002939902468  0.6459853804755522  0.4032439025203686  1.0000
  C   C25       1.0  0.08074291931168888  0.17184496372589725  0.4147311601034276  1.0000
  O   O2        1.0  0.15595493401687333  0.41418496811493  0.19935132633379357  1.0000
  O   O3        1.0  0.15450527375944123  0.4037812305891922  0.618465739325426  1.0000
  O   O4        1.0  0.15525502243348036  0.5976684838298849  0.4012431707347499  1.0000
  O   O5        1.0  0.15520511875597487  0.2202977232231056  0.4165737869202921  1.0000
  O   O6        1.0  0.006315687836360163  0.5975325389685124  0.4014010596414257  1.0000
  O   O7        1.0  0.005565939424658107  0.40364684491076397  0.6186235513774505  1.0000
  O   O8        1.0  0.007015605747832998  0.4140505231231266  0.19950740540560208  1.0000
  O   O9        1.0  0.00626579010873063  0.22016326982296167  0.4167299740595142  1.0000
