data_image0
_chemical_formula_structural       NC8NH4C9H10C6OCH7Zn2C4O8
_chemical_formula_sum              "N2 C28 H21 O9 Zn2"
_cell_length_a       13.859017124695912
_cell_length_b       10.297183801781406
_cell_length_c       9.273891588657152
_cell_angle_alpha    86.04956984296379
_cell_angle_beta     89.68011635111247
_cell_angle_gamma    89.9976557662862

_space_group_name_H-M_alt    "P 1"
_space_group_IT_number       1

loop_
  _space_group_symop_operation_xyz
  'x, y, z'

loop_
  _atom_site_type_symbol
  _atom_site_label
  _atom_site_symmetry_multiplicity
  _atom_site_fract_x
  _atom_site_fract_y
  _atom_site_fract_z
  _atom_site_occupancy
  N   N1        1.0  0.9144890528587023  0.40875535494236503  0.40936616304857676  1.0000
  C   C1        1.0  0.8423449684861628  0.38770795095496996  0.3532126797382069  1.0000
  C   C2        1.0  0.7526019963887203  0.3615280522617428  0.28336496319914994  1.0000
  C   C3        1.0  0.6647316405025588  0.38705079124955827  0.35145769860733944  1.0000
  C   C4        1.0  0.5773716786616172  0.361529151743504  0.28336438333283587  1.0000
  C   C5        1.0  0.5780645599466856  0.3104778477090908  0.14715743062401643  1.0000
  C   C6        1.0  0.6657513733894707  0.28505320723775784  0.07932680245369594  1.0000
  C   C7        1.0  0.7529299144796209  0.3104757409556347  0.14715861006174213  1.0000
  C   C8        1.0  0.48710513160468843  0.3877087815225504  0.3532121812921334  1.0000
  N   N2        1.0  0.41454017924569575  0.40875564378542256  0.4093659468892004  1.0000
  H   H1        1.0  0.6643365368138044  0.4265664783416405  0.4568851428606946  1.0000
  H   H2        1.0  0.5109699802594939  0.2903904722806161  0.09356099288061492  1.0000
  H   H3        1.0  0.6661457429365558  0.24561822248189993  0.9741128662382899  1.0000
  H   H4        1.0  0.8204261888591546  0.29038648136721945  0.0935631725181898  1.0000
  C   C9        1.0  0.1645218470054013  0.027281612124378633  0.409570299314407  1.0000
  C   C10       1.0  0.16227544286153384  0.035908739587920076  0.25789329627354274  1.0000
  C   C11       1.0  0.1611243211429152  0.923712181878916  0.18018473211088137  1.0000
  C   C12       1.0  0.1622663345866977  0.8007328683899073  0.2573054186693493  1.0000
  C   C13       1.0  0.16451658647110692  0.7902195197214522  0.4091742709540707  1.0000
  C   C14       1.0  0.1656287375165495  0.9039619619601291  0.48431534611872135  1.0000
  C   C15       1.0  0.1586944094745486  0.9424752242139053  0.016135343179956015  1.0000
  C   C16       1.0  0.10249528605458158  0.8431060870788145  0.9358973445256362  1.0000
  C   C17       1.0  0.212438672729655  0.8433771509406514  0.9313183946279864  1.0000
  H   H5        1.0  0.16539662053483317  0.35149575719052484  0.4680163136478195  1.0000
  H   H6        1.0  0.16140840954418278  0.13066165210326042  0.199337604840655  1.0000
  H   H7        1.0  0.16142103775011463  0.7126704297624602  0.20037580745881667  1.0000
  H   H8        1.0  0.16736140186760395  0.8965785090927112  0.601337339073303  1.0000
  H   H9        1.0  0.16875386127808967  0.5631463144638776  0.6960117701182649  1.0000
  H   H10       1.0  0.15791427899313404  0.042762203782201066  0.9634069856805066  1.0000
  H   H11       1.0  0.07005266050248758  0.7600017284893692  0.001492894387202352  1.0000
  H   H12       1.0  0.0688353722350039  0.883150124659596  0.8339170392195872  1.0000
  H   H13       1.0  0.24678074779087744  0.7604382549208939  0.9941332307719827  1.0000
  H   H14       1.0  0.2430358349927233  0.8835772352822109  0.826660564699786  1.0000
  C   C18       1.0  0.1660999302187618  0.4053101346328297  0.9860987531974152  1.0000
  C   C19       1.0  0.2451177337999504  0.4601788332037401  0.05464394474621037  1.0000
  C   C20       1.0  0.31866234730613185  0.5247477684885842  0.9748006575183563  1.0000
  C   C21       1.0  0.313452143847667  0.5347735140843302  0.8233548428392226  1.0000
  C   C22       1.0  0.23646148823121507  0.4791182462119181  0.7534678609114311  1.0000
  C   C23       1.0  0.16293846471198292  0.4121909459320526  0.8326458236072793  1.0000
  O   O1        1.0  0.39504508491540397  0.578017044930865  0.049979587957843075  1.0000
  C   C24       1.0  0.47450100219289304  0.6463832640296596  0.9828677021719266  1.0000
  H   H15       1.0  0.9365933416151431  0.3255234792216087  0.09715749044422362  1.0000
  H   H16       1.0  0.3690346083064615  0.5843786768768378  0.7584069390270138  1.0000
  H   H17       1.0  0.23568288892980016  0.4858133395561444  0.6363832099897948  1.0000
  H   H18       1.0  0.009888066419521774  0.35332426992410726  0.5572337867722594  1.0000
  H   H19       1.0  0.4485997908118571  0.7342906888198135  0.9184265056472585  1.0000
  H   H20       1.0  0.5147334055321715  0.5819119085640072  0.9124884830924921  1.0000
  H   H21       1.0  0.5238927107197491  0.6774338183965665  0.06769511217447666  1.0000
  Zn  Zn1       1.0  0.05879297816638319  0.40875203770202223  0.40937443062432877  1.0000
  Zn  Zn2       1.0  0.27023620222597655  0.40874846027048073  0.4093695068923968  1.0000
  C   C25       1.0  0.16353394870229176  0.40571526034129435  0.6726330050533633  1.0000
  C   C26       1.0  0.16549754010383078  0.41178687781291456  0.14611107303124715  1.0000
  C   C27       1.0  0.1645340509426534  0.6459613253446936  0.40350533568911495  1.0000
  C   C28       1.0  0.16449736543648696  0.17153925270306528  0.41523882005380286  1.0000
  O   O2        1.0  0.24553697410255304  0.41395350707152906  0.19981080370904847  1.0000
  O   O3        1.0  0.2439750308579507  0.40354493253003254  0.6189291229615563  1.0000
  O   O4        1.0  0.24478153877274786  0.5975466805468961  0.4016066251511159  1.0000
  O   O5        1.0  0.24473039444004674  0.2199517674702245  0.41713319344219657  1.0000
  O   O6        1.0  0.08429871379714604  0.5975487305048526  0.401610744068627  1.0000
  O   O7        1.0  0.08349220615416386  0.40354854259701156  0.6189331642148582  1.0000
  O   O8        1.0  0.08505415593504528  0.41395705778427105  0.19981311201920707  1.0000
  O   O9        1.0  0.08424757586508091  0.21995530976998087  0.41713560982374537  1.0000
