data_image0
_chemical_formula_structural       NC5NC3H4C10H6C6H6Zn2C4O8
_chemical_formula_sum              "N2 C28 H16 Zn2 O8"
_cell_length_a       13.859018345313864
_cell_length_b       9.275150299802176
_cell_length_c       10.681121600428288
_cell_angle_alpha    85.23622488855405
_cell_angle_beta     89.99986506473405
_cell_angle_gamma    89.48388887768701

_space_group_name_H-M_alt    "P 1"
_space_group_IT_number       1

loop_
  _space_group_symop_operation_xyz
  'x, y, z'

loop_
  _atom_site_type_symbol
  _atom_site_label
  _atom_site_symmetry_multiplicity
  _atom_site_fract_x
  _atom_site_fract_y
  _atom_site_fract_z
  _atom_site_occupancy
  N   N1        1.0  0.899073355218822  0.5790662595943523  0.610886140890669  1.0000
  C   C1        1.0  0.8269572470120151  0.5395040417598482  0.6556085064235246  1.0000
  C   C2        1.0  0.7372490250011153  0.490293941811995  0.7112371801561068  1.0000
  C   C3        1.0  0.6493447520963285  0.5382680257760647  0.6570060345261637  1.0000
  C   C4        1.0  0.562018722282819  0.4902936512182874  0.7112370725138688  1.0000
  C   C5        1.0  0.47171736806686276  0.5395039290151137  0.655608422437697  1.0000
  N   N2        1.0  0.39912445286589  0.5790662256785709  0.6108860810903383  1.0000
  C   C6        1.0  0.5627795304579492  0.39433100402347554  0.8197154810469472  1.0000
  C   C7        1.0  0.6505001491792137  0.34654159403513585  0.8737379319273261  1.0000
  C   C8        1.0  0.7376448722305123  0.3943312993364376  0.8197156565215318  1.0000
  H   H1        1.0  0.6488970724422201  0.6125457320290049  0.5730408283275905  1.0000
  H   H2        1.0  0.4957116193888413  0.35657049319648  0.8624004735970683  1.0000
  H   H3        1.0  0.6509468571756182  0.27241468496193555  0.9575328399942807  1.0000
  H   H4        1.0  0.805167877858613  0.3565710234253807  0.8624008404740778  1.0000
  C   C9        1.0  0.15164940551560013  0.15536067172217718  0.6129826431184322  1.0000
  C   C10       1.0  0.20239174554346806  0.2374134691154819  0.5182387215066322  1.0000
  C   C11       1.0  0.24485912439205276  0.17126468325845123  0.4186800380315026  1.0000
  C   C12       1.0  0.23701509181377697  0.022097219023116565  0.4125829150023148  1.0000
  C   C13       1.0  0.1883792973383227  0.9386005850434654  0.5067640094514105  1.0000
  C   C14       1.0  0.1465576546569402  0.0027606388707852696  0.6088004997215721  1.0000
  C   C15       1.0  0.2956131843090908  0.257059634798237  0.3217698931480819  1.0000
  C   C16       1.0  0.33810715912953276  0.3289152348086042  0.24063590309972765  1.0000
  C   C17       1.0  0.38786563172246136  0.41306308411599746  0.14563153918098704  1.0000
  C   C18       1.0  0.4303514131554602  0.48491320185626835  0.064513101948239  1.0000
  H   H5        1.0  0.1058956042740302  0.417682908091146  0.8118464998976185  1.0000
  H   H6        1.0  0.20702776513239815  0.3538618176297993  0.5201733578920177  1.0000
  H   H7        1.0  0.26935979729837145  0.9699526684415414  0.33554541192290066  1.0000
  H   H8        1.0  0.18542843935222675  0.8226005677163495  0.5013573304026053  1.0000
  H   H9        1.0  0.08385981607467305  0.8722874817447899  0.9063437387990984  1.0000
  H   H10       1.0  0.46765747334684016  0.5480037047074384  0.9932844141019311  1.0000
  C   C19       1.0  0.14910356646821432  0.579060649568055  0.2431463414051125  1.0000
  C   C20       1.0  0.08052311471759865  0.498814493912275  0.1821198895338425  1.0000
  C   C21       1.0  0.08052305391901737  0.49881458642926235  0.051237749124355636  1.0000
  C   C22       1.0  0.14910349019041264  0.5790607202965422  0.9786367767323957  1.0000
  C   C23       1.0  0.2176273392237007  0.6592403759210023  0.039662976452362844  1.0000
  C   C24       1.0  0.21762732701317722  0.6592403535475597  0.17055527522582792  1.0000
  H   H11       1.0  0.21845657801180035  0.6602115621009561  0.5360035828366605  1.0000
  H   H12       1.0  0.026766519073633692  0.43591376450618435  0.23546715617134062  1.0000
  H   H13       1.0  0.026766498513952627  0.43591383242371334  0.006963126610618042  1.0000
  H   H14       1.0  0.27139095435110616  0.7221493940238226  0.9863600042756504  1.0000
  H   H15       1.0  0.2713909060402506  0.7221493434437609  0.21478437200968337  1.0000
  H   H16       1.0  0.21845688217690035  0.6602110594050685  0.6740745596041546  1.0000
  Zn  Zn1       1.0  0.04337732199412002  0.5790623769051946  0.6108933825117042  1.0000
  Zn  Zn2       1.0  0.25482053371175306  0.5790582668111603  0.6108891834992454  1.0000
  C   C25       1.0  0.14913591555154304  0.5733126603572838  0.8396417198531847  1.0000
  C   C26       1.0  0.14906423816873327  0.584809803840654  0.38214096004007364  1.0000
  C   C27       1.0  0.14751516204158244  0.8425840286239885  0.6046007117640818  1.0000
  C   C28       1.0  0.15068492994396876  0.31553670206004947  0.6171820434511863  1.0000
  O   O1        1.0  0.22929267395607278  0.5867314180662282  0.4287872613482293  1.0000
  O   O2        1.0  0.22938799153532963  0.5713868381817016  0.7929918764726043  1.0000
  O   O3        1.0  0.22807813088362786  0.7888268734793964  0.6031945921038107  1.0000
  O   O4        1.0  0.2306024623945162  0.36929139309148185  0.6185844517713748  1.0000
  O   O5        1.0  0.0675953211561564  0.7888292506278467  0.6031981142344129  1.0000
  O   O6        1.0  0.06890517138738267  0.5713909488470251  0.7929953232760356  1.0000
  O   O7        1.0  0.06880985417450103  0.5867354784515397  0.4287892027772201  1.0000
  O   O8        1.0  0.07011964267100224  0.3692954431568176  0.618586487140852  1.0000
