data_image0
_chemical_formula_structural       NC11NC3H8C7OC3NC3H11C7OC3NC3H11Zn2C4O8
_chemical_formula_sum              "N4 C44 H30 O10 Zn2"
_cell_length_a       17.807433833752565
_cell_length_b       10.298746005989749
_cell_length_c       10.298749378158433
_cell_angle_alpha    85.5599185525692
_cell_angle_beta     88.5335258425568
_cell_angle_gamma    90.6940108729131

_space_group_name_H-M_alt    "P 1"
_space_group_IT_number       1

loop_
  _space_group_symop_operation_xyz
  'x, y, z'

loop_
  _atom_site_type_symbol
  _atom_site_label
  _atom_site_symmetry_multiplicity
  _atom_site_fract_x
  _atom_site_fract_y
  _atom_site_fract_z
  _atom_site_occupancy
  N   N1        1.0  0.7074134344209543  0.43870899907475486  0.5346464018947246  1.0000
  C   C1        1.0  0.6565968246500861  0.4039743668846867  0.6012112352534307  1.0000
  C   C2        1.0  0.5933758359567566  0.36076734778522873  0.6840093932388414  1.0000
  C   C3        1.0  0.6051082836347997  0.29720259803999155  0.8067324244638523  1.0000
  C   C4        1.0  0.5437946358566225  0.25567566755338045  0.8872466019214733  1.0000
  C   C5        1.0  0.4705942223456562  0.27740014396065327  0.8456785691721704  1.0000
  C   C6        1.0  0.4578849534745034  0.34111949239488215  0.7224953178066917  1.0000
  C   C7        1.0  0.38011618984522955  0.3641744079600463  0.6781465224089716  1.0000
  C   C8        1.0  0.36131907270747626  0.3473102407484655  0.5485554952803247  1.0000
  C   C9        1.0  0.2880887089565064  0.368995989058308  0.5069433851002105  1.0000
  C   C10       1.0  0.2327123429885617  0.4078645199034399  0.5941019898380913  1.0000
  C   C11       1.0  0.1573451944878239  0.4302088902194035  0.5511285311174041  1.0000
  N   N2        1.0  0.0967553806671779  0.44817210395468243  0.516580997903447  1.0000
  C   C12       1.0  0.2508178675507732  0.4249393213019981  0.7231618585345583  1.0000
  C   C13       1.0  0.3239954898318215  0.4032186212208243  0.7650294143367187  1.0000
  C   C14       1.0  0.5200559142202952  0.3826418563503573  0.6419975570646881  1.0000
  H   H1        1.0  0.6615755055866224  0.27978417081702256  0.8400992057536258  1.0000
  H   H2        1.0  0.5529967958997047  0.2062121755101507  0.9819862663499048  1.0000
  H   H3        1.0  0.4239575441810475  0.24283648324468635  0.9091199015370401  1.0000
  H   H4        1.0  0.4029881026144291  0.31567075347361695  0.4798317586954346  1.0000
  H   H5        1.0  0.2746366944247951  0.35512142478093384  0.40690057162806914  1.0000
  H   H6        1.0  0.2084318912681995  0.4553557155181627  0.7913707043366687  1.0000
  H   H7        1.0  0.3369192009513493  0.4186387397044498  0.8648895669259191  1.0000
  H   H8        1.0  0.5115523818329526  0.4334677997373182  0.5474923200499757  1.0000
  C   C15       1.0  0.9020520958009559  0.0620376841544621  0.5255980044203221  1.0000
  C   C16       1.0  0.937184591568659  0.07140864643969458  0.4014542620845547  1.0000
  C   C17       1.0  0.9541592281876201  0.9590045458262955  0.3380287867435836  1.0000
  C   C18       1.0  0.9371851503747554  0.8361720639219211  0.40140509531444724  1.0000
  C   C19       1.0  0.9021238871554476  0.8248336173261421  0.5256402313827169  1.0000
  C   C20       1.0  0.8845989857418193  0.9383332505100073  0.586802282705648  1.0000
  C   C21       1.0  0.9918974150167085  0.968724165822403  0.2074523970383486  1.0000
  O   O1        1.0  0.03776494162623557  0.8818632556212713  0.18010997013649166  1.0000
  C   C22       1.0  0.977603380155502  0.0769232757969258  0.10790231085405112  1.0000
  C   C23       1.0  0.906465700824834  0.13458741018973597  0.09909472651025931  1.0000
  C   C24       1.0  0.8932925450265932  0.23594675407890245  0.003791857403249829  1.0000
  N   N3        1.0  0.8209523426898615  0.294423775398553  0.9959435150555428  1.0000
  C   C25       1.0  0.9513034154919664  0.2792507764324818  0.9159595126984397  1.0000
  C   C26       1.0  0.02175517711270913  0.22140537051193854  0.9229427110406965  1.0000
  C   C27       1.0  0.03486986966792194  0.12046910664818777  0.017944061802155353  1.0000
  H   H9        1.0  0.8367108727027632  0.25165160230699213  0.7609830803867995  1.0000
  H   H10       1.0  0.9521201782550861  0.16629254585925665  0.35453594420251267  1.0000
  H   H11       1.0  0.9507299192858477  0.7493139124897522  0.35307511710230455  1.0000
  H   H12       1.0  0.8575218780367208  0.9303579436800599  0.6824963508764154  1.0000
  H   H13       1.0  0.8361583031995744  0.5960984266870608  0.7605657148633065  1.0000
  H   H14       1.0  0.8609762732285622  0.10007202261619509  0.16517290493383774  1.0000
  H   H15       1.0  0.7773081409647988  0.26290337171877654  0.0609245367218858  1.0000
  H   H16       1.0  0.8105238157428127  0.36979196245680024  0.9251836055368289  1.0000
  H   H17       1.0  0.9418289991975546  0.35737863314496265  0.8419063430838505  1.0000
  H   H18       1.0  0.06632391483020106  0.2548629796300199  0.854574765961171  1.0000
  H   H19       1.0  0.089968900210875  0.0771658004848599  0.02191551710324502  1.0000
  C   C28       1.0  0.9020533507216499  0.44346280524064646  0.1442196774457074  1.0000
  C   C29       1.0  0.9431004356277557  0.56133524153901  0.13230239438337854  1.0000
  C   C30       1.0  0.9631026119062194  0.6217223319352986  0.009072546278842354  1.0000
  C   C31       1.0  0.943103425955311  0.5613841798332392  0.897058229131249  1.0000
  C   C32       1.0  0.9021226215280275  0.4434084517525689  0.9070185696842056  1.0000
  C   C33       1.0  0.8816850808568812  0.38537281127546374  0.03101747566397961  1.0000
  C   C34       1.0  0.007057187668856765  0.7455691410915595  0.9963602572213431  1.0000
  O   O2        1.0  0.05400095556438633  0.7650544983815348  0.9028362506979836  1.0000
  C   C35       1.0  0.9977582042149391  0.8473026758456774  0.0896875083049904  1.0000
  C   C36       1.0  0.9274774374686368  0.8681704189532912  0.1496541498545805  1.0000
  C   C37       1.0  0.9190831449056308  0.9654767764930914  0.23674974540608454  1.0000
  N   N4        1.0  0.8475596607532463  0.9855918764858572  0.29774189131942275  1.0000
  C   C38       1.0  0.9810817271837142  0.043241318573798544  0.2632752445424558  1.0000
  C   C39       1.0  0.050770671217499785  0.024310009354896245  0.20287684598203115  1.0000
  C   C40       1.0  0.0591216991680108  0.9273142974737867  0.11616008116567178  1.0000
  H   H20       1.0  0.8254901176135974  0.21975235698054685  0.3741316383514957  1.0000
  H   H21       1.0  0.9602614791787938  0.605601911996055  0.21905489329531358  1.0000
  H   H22       1.0  0.958951522120565  0.6072952366089379  0.8019192855591744  1.0000
  H   H23       1.0  0.8500487617818967  0.29451212664536097  0.039451594181059375  1.0000
  H   H24       1.0  0.8249614538288006  0.22026250863134772  0.7185416953497397  1.0000
  H   H25       1.0  0.8789989134497075  0.8099800215284103  0.1278571477174264  1.0000
  H   H26       1.0  0.8009694780290307  0.9281826155999446  0.2786723075037245  1.0000
  H   H27       1.0  0.8406831605763103  0.057949336497800104  0.3625530171802349  1.0000
  H   H28       1.0  0.9753161563771897  0.11872200407701872  0.3302803503493344  1.0000
  H   H29       1.0  0.09844685504497686  0.08494093242575927  0.2233045796568065  1.0000
  H   H30       1.0  0.11369759839118943  0.9139948356559916  0.07062642410541466  1.0000
  Zn  Zn1       1.0  0.8197691100103064  0.4414363712467723  0.5294406014626798  1.0000
  Zn  Zn2       1.0  0.9843996902792359  0.44543411048904724  0.5217973846084438  1.0000
  C   C41       1.0  0.9021073810438799  0.43824456422797686  0.7628330384705245  1.0000
  C   C42       1.0  0.9020632171723166  0.4486275999197649  0.28840499170431366  1.0000
  C   C43       1.0  0.9021059886184764  0.6806492069115844  0.5204568540672769  1.0000
  C   C44       1.0  0.902064553280216  0.20622139542525544  0.5307812478734191  1.0000
  O   O3        1.0  0.9645429751425061  0.45187240715607996  0.33389433904161603  1.0000
  O   O4        1.0  0.9645784240792907  0.43803296879185516  0.7115422924626333  1.0000
  O   O5        1.0  0.9645764575884527  0.6337777628362797  0.5158218478815938  1.0000
  O   O6        1.0  0.9645448854481077  0.2561276210454855  0.5296146888488186  1.0000
  O   O7        1.0  0.8396238586610971  0.6307428593275158  0.521623299823729  1.0000
  O   O8        1.0  0.8396258252891018  0.43499962573117595  0.7173436752403339  1.0000
  O   O9        1.0  0.8395903762561747  0.4488390189478275  0.33969416028879795  1.0000
  O   O10       1.0  0.8395922865666748  0.2530942235405853  0.5354146074712607  1.0000
