data_image0
_chemical_formula_structural       NC8NC6H8C7F3H5C7NC2NH8Zn2C4O8
_chemical_formula_sum              "N4 C34 H21 F3 Zn2 O8"
_cell_length_a       17.457602349358154
_cell_length_b       9.272718291674593
_cell_length_c       9.27399911348925
_cell_angle_alpha    85.49165257692455
_cell_angle_beta     92.55204972901187
_cell_angle_gamma    91.24279848523653

_space_group_name_H-M_alt    "P 1"
_space_group_IT_number       1

loop_
  _space_group_symop_operation_xyz
  'x, y, z'

loop_
  _atom_site_type_symbol
  _atom_site_label
  _atom_site_symmetry_multiplicity
  _atom_site_fract_x
  _atom_site_fract_y
  _atom_site_fract_z
  _atom_site_occupancy
  N   N1        1.0  0.7207425043949119  0.6259810275513428  0.4856200842696125  1.0000
  C   C1        1.0  0.6599033238722077  0.5751141800575064  0.47345967888719814  1.0000
  C   C2        1.0  0.5842167423273923  0.5118420701289934  0.4583427813724683  1.0000
  C   C3        1.0  0.5252539816011668  0.5556797009115753  0.5418751123159713  1.0000
  C   C4        1.0  0.45099404195126225  0.49475255423782394  0.5274577536479497  1.0000
  C   C5        1.0  0.3884153181298649  0.541036288218201  0.6159206400802375  1.0000
  C   C6        1.0  0.3139788146873085  0.5620827004772948  0.5541141070309179  1.0000
  C   C7        1.0  0.2550164905350868  0.6057151343381351  0.6377649088649433  1.0000
  C   C8        1.0  0.17914677172656812  0.6274557709597273  0.5735018082059367  1.0000
  N   N2        1.0  0.11816046189477793  0.6449281606414337  0.5218343922167361  1.0000
  C   C9        1.0  0.2699956896920873  0.6285660086279861  0.7837891507515597  1.0000
  C   C10       1.0  0.3436444445447162  0.6079475091836177  0.8460294111092057  1.0000
  C   C11       1.0  0.4025927986896737  0.5645104089408772  0.7628885780118511  1.0000
  C   C12       1.0  0.4369934139434568  0.3892500262455376  0.4279106740335412  1.0000
  C   C13       1.0  0.4959418552260125  0.34571775939758137  0.34482497305811477  1.0000
  C   C14       1.0  0.5694146455007256  0.40676421705701465  0.35985422751810625  1.0000
  H   H1        1.0  0.5370379679421673  0.6384804111174511  0.6165021278710094  1.0000
  H   H2        1.0  0.3020501428839447  0.5464715669629964  0.44064452256807746  1.0000
  H   H3        1.0  0.22479662084576194  0.6622630649145598  0.8494026199584661  1.0000
  H   H4        1.0  0.355053825943898  0.6252911266480075  0.9590967210208531  1.0000
  H   H5        1.0  0.45898610448312227  0.5474176171095582  0.8139937492252511  1.0000
  H   H6        1.0  0.3807450380744725  0.3390379929893328  0.4157148447452659  1.0000
  H   H7        1.0  0.4846708762654159  0.26416797633221073  0.26887551403400756  1.0000
  H   H8        1.0  0.6146158337795157  0.37209687347146514  0.29480168776427296  1.0000
  C   C15       1.0  0.9211350120405826  0.21217977234318808  0.5006925597464236  1.0000
  C   C16       1.0  0.874699341375287  0.29214244092001906  0.396722778139599  1.0000
  C   C17       1.0  0.8228025044817916  0.22290180050940012  0.3036428338396582  1.0000
  C   C18       1.0  0.8193827724532369  0.0713770077322664  0.3117687990361826  1.0000
  C   C19       1.0  0.8658854183833151  0.9904855165700596  0.4126217036722586  1.0000
  C   C20       1.0  0.9177752745617395  0.05871852289720314  0.5067750272143836  1.0000
  C   C21       1.0  0.7750003741581832  0.31047617751003376  0.19036696044629986  1.0000
  F   F1        1.0  0.7551338176398305  0.4404939546909666  0.24100786809280894  1.0000
  F   F2        1.0  0.7081547314243098  0.2361500145488582  0.15412308298786148  1.0000
  F   F3        1.0  0.8167585613332605  0.3383441648239728  0.06775217002600975  1.0000
  H   H9        1.0  0.011224317166810497  0.2924702172373697  0.8203674673216284  1.0000
  H   H10       1.0  0.8777810152342447  0.4093163721769461  0.3902864310212988  1.0000
  H   H11       1.0  0.7812674645755167  0.015068355496802079  0.23889429196827727  1.0000
  H   H12       1.0  0.8627496130478238  0.8735501072985343  0.41427773035314575  1.0000
  H   H13       1.0  0.08185925044153652  0.9491230373628587  0.6954311722139483  1.0000
  C   C22       1.0  0.9207649135124711  0.639201282288193  0.08002957424792134  1.0000
  C   C23       1.0  0.9812353532298227  0.5730515603170662  0.16350353910377446  1.0000
  C   C24       1.0  0.036670401488423154  0.4963982428624659  0.09930452411069024  1.0000
  C   C25       1.0  0.03312733857439998  0.4832279610959119  0.9495871726675325  1.0000
  C   C26       1.0  0.9738013533934369  0.551866857983572  0.8646772208840185  1.0000
  C   C27       1.0  0.9181453859608554  0.6316970247664009  0.9274379243385868  1.0000
  C   C28       1.0  0.09232082332531033  0.3998279711547762  0.8836349989872945  1.0000
  N   N3        1.0  0.15673688713636658  0.3525269112642198  0.9571635946120192  1.0000
  C   C29       1.0  0.19414566525734678  0.2821754962351959  0.8607051560419059  1.0000
  C   C30       1.0  0.1522294346096984  0.28736198556593484  0.7313977160806262  1.0000
  N   N4        1.0  0.0881891770008536  0.3612892042266512  0.7459760121371164  1.0000
  H   H14       1.0  0.838413803688495  0.8172431159095053  0.3404755908726753  1.0000
  H   H15       1.0  0.9846920687699099  0.5775065109670461  0.28000205112135057  1.0000
  H   H16       1.0  0.08185213528937019  0.4454428586914439  0.1677486645393773  1.0000
  H   H17       1.0  0.9719199519943678  0.547876358587216  0.7483713513632648  1.0000
  H   H18       1.0  0.7981746310650687  0.7073444575800548  0.6313575042585411  1.0000
  H   H19       1.0  0.24861021155759944  0.22990210137736322  0.8836226172425982  1.0000
  H   H20       1.0  0.16713981644941847  0.23993402123887242  0.6337005125985224  1.0000
  H   H21       1.0  0.04471975317876821  0.3810686596130055  0.6664743802124757  1.0000
  Zn  Zn1       1.0  0.8354287318496103  0.6314448217135333  0.4960790543620603  1.0000
  Zn  Zn2       1.0  0.003474230576440586  0.6394524440346927  0.5113871500434759  1.0000
  C   C31       1.0  0.91866161076088  0.6273732267752223  0.76721822189433  1.0000
  C   C32       1.0  0.9202431790611026  0.6435259438381085  0.24024830435875333  1.0000
  C   C33       1.0  0.9184241736872162  0.8987554138445533  0.499875254116634  1.0000
  C   C34       1.0  0.9204805654277363  0.3721420216016379  0.5075913313948555  1.0000
  O   O1        1.0  0.9838404961603818  0.6480099023886045  0.2998284711505894  1.0000
  O   O2        1.0  0.9826069444865919  0.6289657845833718  0.7192561223603942  1.0000
  O   O3        1.0  0.9824143467267602  0.8481102784870405  0.503374716838701  1.0000
  O   O4        1.0  0.9840330368711668  0.428865417021567  0.5157097633386449  1.0000
  O   O5        1.0  0.8548698682092196  0.8420318459956878  0.4917564358354114  1.0000
  O   O6        1.0  0.8550624593304176  0.6228890845281865  0.7076377768672182  1.0000
  O   O7        1.0  0.8562960166169905  0.6419331674689914  0.28820839057135705  1.0000
  O   O8        1.0  0.8564885570311584  0.4227886708343511  0.5040897908615707  1.0000
