data_image0
_chemical_formula_structural       NC10NC3NH7C12NCOCH13C12OCH12Zn2C4O8
_chemical_formula_sum              "N4 C44 H32 O10 Zn2"
_cell_length_a       19.210446455230148
_cell_length_b       10.299155265289647
_cell_length_c       10.299794127170989
_cell_angle_alpha    85.56075829467142
_cell_angle_beta     89.98403246644892
_cell_angle_gamma    89.9251083167036

_space_group_name_H-M_alt    "P 1"
_space_group_IT_number       1

loop_
  _space_group_symop_operation_xyz
  'x, y, z'

loop_
  _atom_site_type_symbol
  _atom_site_label
  _atom_site_symmetry_multiplicity
  _atom_site_fract_x
  _atom_site_fract_y
  _atom_site_fract_z
  _atom_site_occupancy
  N   N1        1.0  0.6552636836796273  0.4198782415404716  0.5670371848290834  1.0000
  C   C1        1.0  0.5950344909203615  0.42208595030921736  0.5672677716578759  1.0000
  C   C2        1.0  0.520229253643564  0.4248231048486517  0.5675534394489429  1.0000
  C   C3        1.0  0.4845843043264207  0.5410645898204383  0.5826355164826866  1.0000
  C   C4        1.0  0.4119187831562567  0.541216121603695  0.5825828840389244  1.0000
  C   C5        1.0  0.3750622913027957  0.42553213709890514  0.5676397416858019  1.0000
  C   C6        1.0  0.29774056059546733  0.42417554020074877  0.5674894950947058  1.0000
  C   C7        1.0  0.2599590038812932  0.527734956872016  0.5041051419195495  1.0000
  C   C8        1.0  0.18718105859073864  0.5263326134402349  0.5039964223637547  1.0000
  C   C9        1.0  0.1511831865841958  0.4216283644190657  0.5672209976342255  1.0000
  C   C10       1.0  0.07625404883439231  0.42032616851600535  0.5670845000880222  1.0000
  N   N2        1.0  0.0160165039009472  0.419279158808066  0.5669747909460037  1.0000
  C   C11       1.0  0.18824105046671763  0.31819464087158233  0.630580312316904  1.0000
  C   C12       1.0  0.2610209219841468  0.31932271377403687  0.6307393434709541  1.0000
  C   C13       1.0  0.4133165642255238  0.3111110938678494  0.5528453612883756  1.0000
  N   N3        1.0  0.48408579692139153  0.3135562578637099  0.5530103067488576  1.0000
  H   H1        1.0  0.5126588811262649  0.6305067417755585  0.5946610569270292  1.0000
  H   H2        1.0  0.3846233188273571  0.6312405508501142  0.5960029318394315  1.0000
  H   H3        1.0  0.28666458387319554  0.6089792871196444  0.4530968768465488  1.0000
  H   H4        1.0  0.15901313600371653  0.6067495502387801  0.45431868903181694  1.0000
  H   H5        1.0  0.1608959246551825  0.236814223479203  0.6801588060102735  1.0000
  H   H6        1.0  0.288543883100528  0.2390253591830598  0.6818547000601494  1.0000
  H   H7        1.0  0.38707808683922035  0.2202236804221063  0.539379283738274  1.0000
  C   C14       1.0  0.8357211587175079  0.03818112967124354  0.5671246749984129  1.0000
  C   C15       1.0  0.8238386910911605  0.047873506078485846  0.43220841553462946  1.0000
  C   C16       1.0  0.8177466204744895  0.9356501498829862  0.36368532363118367  1.0000
  C   C17       1.0  0.8236722705305359  0.8126139502472509  0.43190067517845754  1.0000
  C   C18       1.0  0.8355657030285877  0.8009663384168483  0.5668985191561222  1.0000
  C   C19       1.0  0.8415200235885546  0.9142671128292238  0.6336794153742686  1.0000
  C   C20       1.0  0.8051772638151534  0.9468771816758905  0.2209602120212535  1.0000
  C   C21       1.0  0.8404843819900557  0.04091289587345215  0.13954065559810291  1.0000
  C   C22       1.0  0.8286615169338597  0.051347385662280816  0.005226814092210039  1.0000
  C   C23       1.0  0.7817279719886359  0.9670716535705665  0.9494872096720001  1.0000
  C   C24       1.0  0.7455705808540406  0.8748536229977284  0.030838757168079708  1.0000
  C   C25       1.0  0.7574188011173252  0.8641630640878696  0.16511526072479965  1.0000
  N   N4        1.0  0.767665202617259  0.9773080105433682  0.8119355923388452  1.0000
  C   C26       1.0  0.8184980524580983  0.014140125333005791  0.7137140754034917  1.0000
  O   O1        1.0  0.8823553444410027  0.016574070178837275  0.7415600282991313  1.0000
  C   C27       1.0  0.7962997660037275  0.04059553525084203  0.5751850822829203  1.0000
  H   H8        1.0  0.8403132711118194  0.3619291769660906  0.6190135416186433  1.0000
  H   H9        1.0  0.8183345150082183  0.14291719395854652  0.3804023687066729  1.0000
  H   H10       1.0  0.8199310045559675  0.7258103654831886  0.3792755540805357  1.0000
  H   H11       1.0  0.850687562568282  0.9060763112737986  0.7377426998871521  1.0000
  H   H12       1.0  0.858430761949861  0.5716980444422718  0.8215690042551802  1.0000
  H   H13       1.0  0.8776522545313226  0.10590770490402977  0.17962450473878144  1.0000
  H   H14       1.0  0.8553696098795956  0.12674653910341435  0.945644795687012  1.0000
  H   H15       1.0  0.7083359589472153  0.8105627985692968  0.9898879278046574  1.0000
  H   H16       1.0  0.7284739102230743  0.7923841427339364  0.2255305709803867  1.0000
  H   H17       1.0  0.7186389390393757  0.9485145163054863  0.7808722110846759  1.0000
  H   H18       1.0  0.7460522248927199  0.09412373622807801  0.5707403596309453  1.0000
  H   H19       1.0  0.7898612228985378  0.9469873851968803  0.5299644310627478  1.0000
  H   H20       1.0  0.83593041251871  0.10060971838438948  0.5197857609162022  1.0000
  C   C28       1.0  0.8356669209970813  0.4194601928747155  0.18566020213726842  1.0000
  C   C29       1.0  0.7674664540071082  0.37044720192357894  0.18849321057302126  1.0000
  C   C30       1.0  0.7328895750161766  0.3457145600932141  0.07278182339490402  1.0000
  C   C31       1.0  0.7674190837498593  0.37067376381339956  0.9531882599752985  1.0000
  C   C32       1.0  0.8356199403932459  0.41968726158242936  0.9483629894867527  1.0000
  C   C33       1.0  0.8693626701072  0.4438031393899644  0.06511879698955747  1.0000
  C   C34       1.0  0.6607393386545795  0.2938544932068796  0.07683368448215977  1.0000
  C   C35       1.0  0.6108970350372159  0.3426078813201599  0.9856795544430215  1.0000
  C   C36       1.0  0.5430870358291857  0.2937869005087259  0.9897570567255927  1.0000
  C   C37       1.0  0.5241335861287947  0.1958773539299117  0.08447607620417008  1.0000
  C   C38       1.0  0.5732894439810299  0.1457204068740381  0.17649332379943483  1.0000
  C   C39       1.0  0.6411939358388322  0.195180823274794  0.1719642398037935  1.0000
  O   O2        1.0  0.5569248901280022  0.04716754691907111  0.27334704110216657  1.0000
  C   C40       1.0  0.49021326233614554  0.9880004637421526  0.2894133638044243  1.0000
  H   H21       1.0  0.861663494507235  0.4380779138729891  0.5120382784699042  1.0000
  H   H22       1.0  0.740727327328918  0.35306150587480367  0.2807800278354453  1.0000
  H   H23       1.0  0.7413294221080288  0.3501211452445059  0.8638673517687794  1.0000
  H   H24       1.0  0.9219767567838638  0.4816137607678528  0.06216485890962929  1.0000
  H   H25       1.0  0.8615933635948143  0.43842482457880266  0.6190669648807304  1.0000
  H   H26       1.0  0.6241195699651244  0.41965762432618203  0.912335709194831  1.0000
  H   H27       1.0  0.5050205456265427  0.3322482915537222  0.9194143797965779  1.0000
  H   H28       1.0  0.4712583016544338  0.1599283343411675  0.0853243617399202  1.0000
  H   H29       1.0  0.6789539399369089  0.15496979447208534  0.2421337224237261  1.0000
  H   H30       1.0  0.4758758131403659  0.9395650112251126  0.20056968068115322  1.0000
  H   H31       1.0  0.49201712431984607  0.9135162351749049  0.37310702692039266  1.0000
  H   H32       1.0  0.45055173432685125  0.062330053416356224  0.30967526535176515  1.0000
  Zn  Zn1       1.0  0.7593691543100967  0.41970189712324446  0.5670266790521288  1.0000
  Zn  Zn2       1.0  0.911911018832268  0.4194449230483741  0.5669959351494066  1.0000
  C   C41       1.0  0.835628302444376  0.414470259153614  0.8041973800040823  1.0000
  C   C42       1.0  0.835653536108524  0.424678196992544  0.3298253608364967  1.0000
  C   C43       1.0  0.8355918041324849  0.6567821346983067  0.5617663467601803  1.0000
  C   C44       1.0  0.835689982682334  0.18236476113629507  0.572256463788952  1.0000
  O   O3        1.0  0.8935378877801488  0.42632622035209905  0.378196839589914  1.0000
  O   O4        1.0  0.8935196965893473  0.41262621850978337  0.7558021938014724  1.0000
  O   O5        1.0  0.8934894432884055  0.6082961241806352  0.5600374189741565  1.0000
  O   O6        1.0  0.8935680890329921  0.2306563240308697  0.5739615170547699  1.0000
  O   O7        1.0  0.7777120320543207  0.6084904962298538  0.5600610971504258  1.0000
  O   O8        1.0  0.7777422850382916  0.41282215095966285  0.7558258022728486  1.0000
  O   O9        1.0  0.7777604763808372  0.4265221070777432  0.3782188867457101  1.0000
  O   O10       1.0  0.7777906776267272  0.23085220149599595  0.5739836615766867  1.0000
