data_image0
_chemical_formula_structural       NC8NC6H8C6SCH6C6OCH6Zn2C4O8
_chemical_formula_sum              "N2 C32 H20 S1 O9 Zn2"
_cell_length_a       17.457602349358154
_cell_length_b       10.302809429070853
_cell_length_c       9.273891588657152
_cell_angle_alpha    86.07628969810115
_cell_angle_beta     92.54290593679646
_cell_angle_gamma    91.68806441137123

_space_group_name_H-M_alt    "P 1"
_space_group_IT_number       1

loop_
  _space_group_symop_operation_xyz
  'x, y, z'

loop_
  _atom_site_type_symbol
  _atom_site_label
  _atom_site_symmetry_multiplicity
  _atom_site_fract_x
  _atom_site_fract_y
  _atom_site_fract_z
  _atom_site_occupancy
  N   N1        1.0  0.72695021954959  0.4402039890469736  0.47598903899926315  1.0000
  C   C1        1.0  0.6659072654483273  0.3941988200314699  0.4642099767571493  1.0000
  C   C2        1.0  0.5899672160745181  0.33697418700653126  0.4495674109592625  1.0000
  C   C3        1.0  0.5311918157653018  0.37778780656484523  0.5326728753291343  1.0000
  C   C4        1.0  0.4566878245953612  0.322686230662138  0.5187120816339593  1.0000
  C   C5        1.0  0.3943069590818612  0.3657815173914442  0.6067239203163364  1.0000
  C   C6        1.0  0.31994402116455156  0.38374972220417936  0.5448494699278252  1.0000
  C   C7        1.0  0.2611682623428263  0.4243804303961125  0.6280747182840711  1.0000
  C   C8        1.0  0.1853744684615698  0.4429346551465027  0.5637420218205718  1.0000
  N   N2        1.0  0.12444917419105242  0.45784587545860295  0.5120187014651199  1.0000
  C   C9        1.0  0.2762616032818975  0.44729050952767935  0.7737386613710066  1.0000
  C   C10       1.0  0.3498385601264669  0.4297146083519596  0.8360431854382566  1.0000
  C   C11       1.0  0.4086012059401847  0.3892679577905455  0.7533258185439968  1.0000
  C   C12       1.0  0.4422526007229889  0.22608111832620725  0.4200558749979113  1.0000
  C   C13       1.0  0.5010149649577657  0.1855496397872711  0.33739424896352116  1.0000
  C   C14       1.0  0.5747323785146002  0.24076843336052134  0.35196525963011394  1.0000
  H   H1        1.0  0.5433163198054952  0.45354977680788644  0.6066054195977932  1.0000
  H   H2        1.0  0.307935166266094  0.36787935138194294  0.4316444652326388  1.0000
  H   H3        1.0  0.23120678014928306  0.47868547797350164  0.8390221196721307  1.0000
  H   H4        1.0  0.3613349337091691  0.4471388486062339  0.948834025076083  1.0000
  H   H5        1.0  0.4649349118546477  0.37468963359199314  0.8044849262853597  1.0000
  H   H6        1.0  0.3858030436079557  0.18066511507680594  0.40823673788301185  1.0000
  H   H7        1.0  0.4894082188178684  0.11089316001840488  0.2621320633024662  1.0000
  H   H8        1.0  0.6197855615778884  0.2085085680285801  0.28724893885903446  1.0000
  C   C15       1.0  0.9257033608393052  0.06777171206390231  0.4940104646979568  1.0000
  C   C16       1.0  0.970326611913743  0.07638596007306653  0.3712261015398244  1.0000
  C   C17       1.0  0.9923196765664737  0.9636824542839688  0.30995019207332297  1.0000
  C   C18       1.0  0.9703265154315648  0.8412347972411154  0.37122601533106536  1.0000
  C   C19       1.0  0.9257033302903009  0.8302685720156852  0.4940104543621253  1.0000
  C   C20       1.0  0.9035899962878516  0.9441737297577721  0.5547734978663625  1.0000
  S   S1        1.0  0.049473473779429566  0.9761866670916974  0.15325621537557388  1.0000
  C   C21       1.0  0.9667092038909065  0.9798450623614519  0.026801257832051346  1.0000
  H   H9        1.0  0.9880504973063794  0.17037432318483714  0.32245414842128045  1.0000
  H   H10       1.0  0.9880503283816828  0.7550239212871505  0.32245402078786367  1.0000
  H   H11       1.0  0.869157626578991  0.9366224747756606  0.6494666034212535  1.0000
  H   H12       1.0  0.9314541725698697  0.8889813375737045  0.04282606517308585  1.0000
  H   H13       1.0  0.9314548924263927  0.06521632693181312  0.04282560645793466  1.0000
  H   H14       1.0  0.9868521484217556  0.9877549918083119  0.9146975217086207  1.0000
  C   C22       1.0  0.9269598665900172  0.44563746063602916  0.07084899398932133  1.0000
  C   C23       1.0  0.9897727303614353  0.5032621597931803  0.14511610593031854  1.0000
  C   C24       1.0  0.04823491731947563  0.570388398974498  0.07060542178652285  1.0000
  C   C25       1.0  0.04409329471078616  0.5802245378128384  0.9187894076914009  1.0000
  C   C26       1.0  0.9828918402399649  0.5218852406088952  0.8433261575504909  1.0000
  C   C27       1.0  0.9244468026622452  0.4524027609229362  0.9171718476945592  1.0000
  O   O1        1.0  0.10895311465893512  0.6263216364879245  0.1513155790915084  1.0000
  C   C28       1.0  0.17211431587978931  0.69745151290756  0.08996419224428709  1.0000
  H   H15       1.0  0.7445208320281466  0.35780003759471035  0.16532979664605962  1.0000
  H   H16       1.0  0.08827698943907003  0.6317619561934685  0.8578721188635821  1.0000
  H   H17       1.0  0.8027841778288894  0.38817056312225057  0.6307015913992515  1.0000
  H   H18       1.0  0.15152549203103471  0.7843943581546685  0.023702417040283755  1.0000
  H   H19       1.0  0.20409537005069847  0.6344367912046429  0.02245032198189634  1.0000
  H   H20       1.0  0.2113767747169415  0.7302266381916633  0.17836652034808087  1.0000
  Zn  Zn1       1.0  0.8416598067358018  0.4452916412420187  0.4863947414960148  1.0000
  Zn  Zn2       1.0  0.009739537723661979  0.45274767297709734  0.5016247966681369  1.0000
  C   C29       1.0  0.9249201274689772  0.44595182574333275  0.7571985712988005  1.0000
  C   C30       1.0  0.9264810519958744  0.45208920914933065  0.2308212746118776  1.0000
  C   C31       1.0  0.9257164352880781  0.6860943450332071  0.4882677599408019  1.0000
  C   C32       1.0  0.9256846865948556  0.21194512809934427  0.4997521575992356  1.0000
  O   O2        1.0  0.9901057393993296  0.45707833604839077  0.29028915991982673  1.0000
  O   O3        1.0  0.9888640680168503  0.4466206716686376  0.7092895306529239  1.0000
  O   O4        1.0  0.9895062323448068  0.6405387668461575  0.4921259198365131  1.0000
  O   O5        1.0  0.989463518037973  0.2631602467503449  0.5074526574937263  1.0000
  O   O6        1.0  0.8619357690641507  0.6348790649257465  0.48056687546557564  1.0000
  O   O7        1.0  0.8612936049607708  0.4409625289653131  0.6977304094477772  1.0000
  O   O8        1.0  0.8625352815387227  0.4514201342557247  0.27872830621165856  1.0000
  O   O9        1.0  0.8618930598534259  0.25750203653517945  0.4958919118232197  1.0000
