data_image0
_chemical_formula_structural       NC9NC3NH7C9H10C8H6Zn2C4O8
_chemical_formula_sum              "N3 C33 H23 Zn2 O8"
_cell_length_a       16.053384444249904
_cell_length_b       9.272676604525723
_cell_length_c       9.275144076552241
_cell_angle_alpha    86.20425915631827
_cell_angle_beta     90.26395466223778
_cell_angle_gamma    89.72820801156413

_space_group_name_H-M_alt    "P 1"
_space_group_IT_number       1

loop_
  _space_group_symop_operation_xyz
  'x, y, z'

loop_
  _atom_site_type_symbol
  _atom_site_label
  _atom_site_symmetry_multiplicity
  _atom_site_fract_x
  _atom_site_fract_y
  _atom_site_fract_z
  _atom_site_occupancy
  N   N1        1.0  0.7857251925279912  0.5479053807617247  0.41353179626006  1.0000
  C   C1        1.0  0.7344564086685463  0.5242270348320697  0.33035868092480825  1.0000
  C   C2        1.0  0.6707435389742341  0.49480658538657696  0.22703736930804855  1.0000
  C   C3        1.0  0.683614175517713  0.4804004320367047  0.08187959244736254  1.0000
  C   C4        1.0  0.6065643336329127  0.4518811196581198  0.023761669060802012  1.0000
  C   C5        1.0  0.5499790326246632  0.4504744379613139  0.1365966532091798  1.0000
  C   C6        1.0  0.4591260978112807  0.4239470274533224  0.12510899698351818  1.0000
  C   C7        1.0  0.4039777332527946  0.47208728805055844  0.22954138793958379  1.0000
  C   C8        1.0  0.3182385451471749  0.44692777814477647  0.21853946388901435  1.0000
  C   C9        1.0  0.2623331268501844  0.49702345935338266  0.32561282409902015  1.0000
  N   N2        1.0  0.2174017171201437  0.5372933112972853  0.411683040932322  1.0000
  C   C10       1.0  0.286921067053003  0.37350377398746404  0.10311982580524792  1.0000
  C   C11       1.0  0.3410627095893953  0.32549793588468073  0.9989229407923844  1.0000
  C   C12       1.0  0.4265928658416289  0.35047041558183656  0.00948390211061456  1.0000
  N   N3        1.0  0.5898833403337674  0.4768308065685639  0.26052122013078605  1.0000
  H   H1        1.0  0.7421370616978232  0.4895948571415802  0.02463308888228988  1.0000
  H   H2        1.0  0.5936986951833205  0.43581741459761464  0.9114016608786124  1.0000
  H   H3        1.0  0.4270310564068787  0.5309411966602149  0.3183617819350337  1.0000
  H   H4        1.0  0.2207439586950147  0.3534907618653558  0.09367401961514754  1.0000
  H   H5        1.0  0.3167280396350376  0.26846512426001257  0.9098509108121995  1.0000
  H   H6        1.0  0.46711576876033367  0.3105579139931207  0.9280159787256124  1.0000
  H   H7        1.0  0.5642106072895565  0.4801664285490834  0.3634852324476263  1.0000
  C   C13       1.0  0.9991987176116673  0.11915602907966846  0.4107761479922627  1.0000
  C   C14       1.0  0.9664099925580568  0.1849079447408819  0.5302953472344505  1.0000
  C   C15       1.0  0.9412586586355636  0.10226108420986324  0.6533047162013805  1.0000
  C   C16       1.0  0.9480852042253016  0.9513983083491107  0.6609339233835851  1.0000
  C   C17       1.0  0.979504044012927  0.8842225249284952  0.5403100250641553  1.0000
  C   C18       1.0  0.0039361687137955455  0.9660314827088392  0.4144510675628508  1.0000
  C   C19       1.0  0.9200278863590701  0.8694544063036074  0.7995209039965472  1.0000
  C   C20       1.0  0.8778630264944423  0.7242946892623754  0.7853496089319576  1.0000
  C   C21       1.0  0.9661005253269975  0.7300017194849182  0.8459626638696971  1.0000
  H   H8        1.0  0.016599920438803206  0.41587790882744674  0.17449650202920752  1.0000
  H   H9        1.0  0.9620142229710166  0.30153755084411404  0.5301756051389477  1.0000
  H   H10       1.0  0.917002915821625  0.15694659256695598  0.7439775273794813  1.0000
  H   H11       1.0  0.9834839948930203  0.767733844322296  0.5416315040207134  1.0000
  H   H12       1.0  0.023912380403996018  0.8862200952036403  0.06142026338318108  1.0000
  H   H13       1.0  0.896869611644982  0.9307907298082753  0.8903767041162408  1.0000
  H   H14       1.0  0.8734875776622602  0.6843721364929828  0.6754807477790385  1.0000
  H   H15       1.0  0.8299745247011497  0.6972798517908669  0.8687127944314418  1.0000
  H   H16       1.0  0.015299664026246843  0.6934186223451856  0.7729982141498617  1.0000
  H   H17       1.0  0.9697805418218589  0.7063164964988133  0.964770314682434  1.0000
  C   C22       1.0  0.9995889179756943  0.539691275585231  0.9893236975683211  1.0000
  C   C23       1.0  0.9458057449097584  0.6350663072534721  0.05593809196370514  1.0000
  C   C24       1.0  0.8987462618526906  0.7374214945419295  0.9736459733708691  1.0000
  C   C25       1.0  0.904620101519915  0.7464929297708567  0.8232305439813086  1.0000
  C   C26       1.0  0.9566734302252033  0.6510546640676975  0.7548672640065281  1.0000
  C   C27       1.0  0.003545940824838394  0.5454962901764386  0.8359035460121249  1.0000
  C   C28       1.0  0.856372991485714  0.8528417163172517  0.7385908928675313  1.0000
  C   C29       1.0  0.8159806478053319  0.9418805999759815  0.6677115020638502  1.0000
  H   H18       1.0  0.17169149264043626  0.34614497856277976  0.10636472325323054  1.0000
  H   H19       1.0  0.9416256971876368  0.6327447447384338  0.1726155411633512  1.0000
  H   H20       1.0  0.8583397444200412  0.8105233460562686  0.02757200519184555  1.0000
  H   H21       1.0  0.9590949699773522  0.6569877652112563  0.6377984262757428  1.0000
  H   H22       1.0  0.11759134119023984  0.41064783070931327  0.5650248800425057  1.0000
  H   H23       1.0  0.7805245519980307  0.02003775063962276  0.6054926327090095  1.0000
  Zn  Zn1       1.0  0.9102977278891963  0.5448391781340043  0.41300658518899613  1.0000
  Zn  Zn2       1.0  0.09282914764844219  0.5403478470279386  0.4122199820176147  1.0000
  C   C30       1.0  0.0027639840285376143  0.5386545699908867  0.6758568711860224  1.0000
  C   C31       1.0  0.0003648955855384308  0.5465342264955546  0.14936983680381677  1.0000
  C   C32       1.0  0.0030095307596016427  0.8059147261294415  0.4080123952830177  1.0000
  C   C33       1.0  0.00011927723717875108  0.2792723399742406  0.41721438230703933  1.0000
  O   O1        1.0  0.06989500809737881  0.5471200557722986  0.20278424406852724  1.0000
  O   O2        1.0  0.0717709875997159  0.5346588336717673  0.6218450306544971  1.0000
  O   O3        1.0  0.07196834290708476  0.7504748229736158  0.4055587318490117  1.0000
  O   O4        1.0  0.06969759005693188  0.3313040775771081  0.419070435108863  1.0000
  O   O5        1.0  0.9334292231916648  0.7538829491190231  0.4061561323586016  1.0000
  O   O6        1.0  0.9332318772125497  0.5380686917341216  0.6224423618247236  1.0000
  O   O7        1.0  0.9313558893840997  0.5505298517011127  0.2033798419868671  1.0000
  O   O8        1.0  0.9311584717876887  0.3347138639334526  0.419666141053207  1.0000
