data_image0
_chemical_formula_structural       NC8NC6H8C6FH5C6H6Zn2C4O8
_chemical_formula_sum              "N2 C30 H19 F1 Zn2 O8"
_cell_length_a       17.457602349358154
_cell_length_b       9.275642734913903
_cell_length_c       10.681121600428288
_cell_angle_alpha    85.47816350102677
_cell_angle_beta     92.87590736930572
_cell_angle_gamma    92.2944494432906

_space_group_name_H-M_alt    "P 1"
_space_group_IT_number       1

loop_
  _space_group_symop_operation_xyz
  'x, y, z'

loop_
  _atom_site_type_symbol
  _atom_site_label
  _atom_site_symmetry_multiplicity
  _atom_site_fract_x
  _atom_site_fract_y
  _atom_site_fract_z
  _atom_site_occupancy
  N   N1        1.0  0.73146551227385  0.6139309763245973  0.674250700499214  1.0000
  C   C1        1.0  0.670101802653421  0.5629134294981528  0.6640558963551544  1.0000
  C   C2        1.0  0.5937628004108112  0.4994539492352206  0.6513827559116534  1.0000
  C   C3        1.0  0.5354840827098394  0.5440689217301908  0.7235684599762191  1.0000
  C   C4        1.0  0.4605963444240936  0.48296258343282106  0.7114858849998666  1.0000
  C   C5        1.0  0.398740688596263  0.5300694229260188  0.7879333995238118  1.0000
  C   C6        1.0  0.3243089493516961  0.5505857990122913  0.7341451100936265  1.0000
  C   C7        1.0  0.26602908429858196  0.5949964514568271  0.806435078524498  1.0000
  C   C8        1.0  0.19016295982577103  0.6161858649824381  0.7505099189408153  1.0000
  N   N2        1.0  0.12917947255824266  0.6332150663555687  0.705546242080866  1.0000
  C   C9        1.0  0.2816903087562884  0.6191608285133234  0.9330034678624768  1.0000
  C   C10       1.0  0.35533976450907484  0.5990765704609877  0.9871651563480887  1.0000
  C   C11       1.0  0.4136091450438708  0.554865936337974  0.915316394945511  1.0000
  C   C12       1.0  0.44527175437177635  0.3764887418365539  0.6258364883560894  1.0000
  C   C13       1.0  0.5035404880433714  0.3321833494469091  0.5540362455758889  1.0000
  C   C14       1.0  0.5776441599268751  0.3934145226717043  0.566649022928406  1.0000
  H   H1        1.0  0.5482960293081346  0.6276009219793391  0.7877506980692581  1.0000
  H   H2        1.0  0.31187079682965113  0.5339558053922924  0.6357787556262235  1.0000
  H   H3        1.0  0.23702150786005124  0.6534678540722321  0.9897095186650251  1.0000
  H   H4        1.0  0.3672738988106515  0.6174369445010663  0.08517016946528544  1.0000
  H   H5        1.0  0.4700014688545419  0.5382116699077315  0.9597894406689025  1.0000
  H   H6        1.0  0.3885049920818122  0.3261262478094069  0.6156063220285759  1.0000
  H   H7        1.0  0.49124929864253053  0.2498916109642422  0.48869747900285376  1.0000
  H   H8        1.0  0.6223075928799477  0.35814136264558183  0.5104366283670263  1.0000
  C   C15       1.0  0.9279530109792331  0.1999141479167477  0.6902504881530935  1.0000
  C   C16       1.0  0.9130987744428466  0.28250675337040343  0.5759501703279113  1.0000
  C   C17       1.0  0.9054835669098085  0.21686048190182516  0.4626057904207206  1.0000
  C   C18       1.0  0.9126651952200411  0.06791793701268833  0.4615646276803218  1.0000
  C   C19       1.0  0.9261324083436613  0.9836685902645418  0.5740039801158143  1.0000
  C   C20       1.0  0.9326992626734764  0.047221112785664085  0.6895578549954606  1.0000
  F   F1        1.0  0.8920131230693532  0.29830679290361517  0.3532241288263902  1.0000
  H   H9        1.0  0.007254848751251159  0.2829051071939346  0.976211006735125  1.0000
  H   H10       1.0  0.909180395675435  0.39894214083372076  0.5740391296078209  1.0000
  H   H11       1.0  0.9070618989792903  0.01718489942677492  0.37354089643043076  1.0000
  H   H12       1.0  0.9295980725997584  0.8676767054928047  0.5708349434336508  1.0000
  H   H13       1.0  0.9830249527343218  0.7522370366360418  0.8834358723446525  1.0000
  C   C21       1.0  0.9303261448704149  0.6235676136953432  0.32215895265367744  1.0000
  C   C22       1.0  0.874947966205992  0.5406669134098743  0.25647978656409487  1.0000
  C   C23       1.0  0.8749479188103598  0.5406670035934865  0.12559764276531293  1.0000
  C   C24       1.0  0.9303260849372744  0.6235676814908528  0.05764938352498584  1.0000
  C   C25       1.0  0.985658554557212  0.7063996907899188  0.12332445614722666  1.0000
  C   C26       1.0  0.985658544613379  0.7063996679428572  0.25421675405595345  1.0000
  H   H14       1.0  0.9863281676531638  0.7074029744374994  0.6197213247150202  1.0000
  H   H15       1.0  0.8315399354180645  0.47568542660614943  0.30618003613143796  1.0000
  H   H16       1.0  0.8315399197709673  0.4756854937390896  0.07767600558921273  1.0000
  H   H17       1.0  0.02907225430352223  0.771389738002798  0.07366897760243685  1.0000
  H   H18       1.0  0.02907221535463012  0.7713896855534924  0.3020933420856424  1.0000
  H   H19       1.0  0.98632840435193  0.7074024834102364  0.7577923182595065  1.0000
  Zn  Zn1       1.0  0.8462371484776342  0.6194920792482077  0.6832891515411634  1.0000
  Zn  Zn2       1.0  0.014407755845770916  0.627642134872602  0.6965180534083737  1.0000
  C   C27       1.0  0.9302922101194296  0.617820171088236  0.9186305243438696  1.0000
  C   C28       1.0  0.9303545408184273  0.6293159523575387  0.46117694648981855  1.0000
  C   C29       1.0  0.9317981559737492  0.8870618713721063  0.6846981804756453  1.0000
  C   C30       1.0  0.9288485278699204  0.3600725159676228  0.6951093540260329  1.0000
  O   O1        1.0  0.9941839045694368  0.6343317569421827  0.5128529596268359  1.0000
  O   O2        1.0  0.9941004400613475  0.6189889817788119  0.876994582026691  1.0000
  O   O3        1.0  0.9953156500615739  0.8364050180903159  0.6880924903397081  1.0000
  O   O4        1.0  0.9929686372417882  0.41691572817002964  0.7017549528951132  1.0000
  O   O5        1.0  0.8676762096932509  0.8302184831711372  0.6780522475334605  1.0000
  O   O6        1.0  0.8664610093988456  0.6128041801860349  0.86695427103149  1.0000
  O   O7        1.0  0.8665444736764297  0.6281469050773907  0.5028111430541669  1.0000
  O   O8        1.0  0.8653292062878369  0.4107308659862432  0.6917132302201869  1.0000
