data_image0
_chemical_formula_structural       NC9NC5H8C12ClH9C16H10Zn2C4O8
_chemical_formula_sum              "N2 C46 H27 Cl1 Zn2 O8"
_cell_length_a       17.807436237873137
_cell_length_b       10.299768534541528
_cell_length_c       10.299151387937775
_cell_angle_alpha    85.58714147101236
_cell_angle_beta     89.38153663469636
_cell_angle_gamma    88.408414792471

_space_group_name_H-M_alt    "P 1"
_space_group_IT_number       1

loop_
  _space_group_symop_operation_xyz
  'x, y, z'

loop_
  _atom_site_type_symbol
  _atom_site_label
  _atom_site_symmetry_multiplicity
  _atom_site_fract_x
  _atom_site_fract_y
  _atom_site_fract_z
  _atom_site_occupancy
  N   N1        1.0  0.7078343148076277  0.38709107379210894  0.5571424166840551  1.0000
  C   C1        1.0  0.6472415183846739  0.3518971725928738  0.5461177712116239  1.0000
  C   C2        1.0  0.5718707393490838  0.3081198352486395  0.5324043092881718  1.0000
  C   C3        1.0  0.553778115214152  0.23665982149851378  0.42739928912190556  1.0000
  C   C4        1.0  0.4805969668407019  0.19404386979080357  0.4140017703331029  1.0000
  C   C5        1.0  0.42445965775412414  0.22251039527779445  0.5055768129784595  1.0000
  C   C6        1.0  0.3466869737238626  0.1773355647884729  0.49142079721020954  1.0000
  C   C7        1.0  0.2845228194996688  0.2591015756445378  0.5173614033977647  1.0000
  C   C8        1.0  0.211199327013056  0.21628259588051013  0.5039775621829639  1.0000
  C   C9        1.0  0.1479855408292622  0.300740066483081  0.5302821228887912  1.0000
  N   N2        1.0  0.09717464402937502  0.3686380302252225  0.5514302630972855  1.0000
  C   C10       1.0  0.19945639892540334  0.09143961918994938  0.4646277601613404  1.0000
  C   C11       1.0  0.2607631817188373  0.00965975260547092  0.43867876395494937  1.0000
  C   C12       1.0  0.3339671922196255  0.05208410967307813  0.4518600579498748  1.0000
  C   C13       1.0  0.4432437529753968  0.294464862471703  0.6108010735585969  1.0000
  C   C14       1.0  0.516477755206472  0.3368903548132228  0.624042936827639  1.0000
  H   H1        1.0  0.5961770895079279  0.21414337726535998  0.3556855179372962  1.0000
  H   H2        1.0  0.46768396408015467  0.1403260440974474  0.3310796416443087  1.0000
  H   H3        1.0  0.2930350602531449  0.3565772758826911  0.5462404307506672  1.0000
  H   H4        1.0  0.1429862728343039  0.057399568453135645  0.4540321785323409  1.0000
  H   H5        1.0  0.2515528862010031  0.9130036054961034  0.4085993297833188  1.0000
  H   H6        1.0  0.3805980095094995  0.9863319725314558  0.432810320032581  1.0000
  H   H7        1.0  0.40156141046656674  0.3164428397099694  0.6838093444931508  1.0000
  H   H8        1.0  0.5299194535152523  0.3918282819628991  0.7059234517274524  1.0000
  C   C15       1.0  0.902437211907035  0.9965023595417091  0.5542852266313135  1.0000
  C   C16       1.0  0.9074007593559608  0.005773621936040031  0.4177430608939962  1.0000
  C   C17       1.0  0.90998805084347  0.8933286572866189  0.3485623888842315  1.0000
  C   C18       1.0  0.907544241264912  0.7704791107921043  0.4177564458359183  1.0000
  C   C19       1.0  0.9025789265012995  0.7592164030962667  0.5542985754520842  1.0000
  C   C20       1.0  0.9000537711134893  0.8727834661535955  0.6217983208774904  1.0000
  C   C21       1.0  0.915240069144036  0.9041905004755909  0.204112145590559  1.0000
  C   C22       1.0  0.8725095284200982  0.9997235237847373  0.1302750254340359  1.0000
  C   C23       1.0  0.8775198131121619  0.00974803625361333  0.9943213541045831  1.0000
  C   C24       1.0  0.9251882835768883  0.9247643557557422  0.9305140014659665  1.0000
  C   C25       1.0  0.96790668599312  0.8295434967736934  0.0028400745608705463  1.0000
  C   C26       1.0  0.9630298116291597  0.8191204163528853  0.13880643190012343  1.0000
  Cl  Cl1       1.0  0.9313907235991736  0.9375916058432732  0.7599374840964179  1.0000
  H   H9        1.0  0.9005073096203878  0.3204251279983781  0.6063118256366256  1.0000
  H   H10       1.0  0.9103031994518361  0.10062555781383242  0.36496772739554006  1.0000
  H   H11       1.0  0.9084861563970904  0.6835777188051761  0.3647963197872697  1.0000
  H   H12       1.0  0.8962238619024362  0.8648629613428128  0.7271343274846882  1.0000
  H   H13       1.0  0.9007168206246562  0.4274696228393162  0.6063319808040503  1.0000
  H   H14       1.0  0.8345196995548503  0.06552026674308341  0.1775759941077868  1.0000
  H   H15       1.0  0.8441708908564947  0.08341821151817763  0.9386986938204323  1.0000
  H   H16       1.0  0.0050588829280298064  0.7637391060757522  0.9538619118659768  1.0000
  H   H17       1.0  0.9973322132844791  0.7456977113612394  0.19292079370314985  1.0000
  C   C27       1.0  0.9025515735129467  0.3776885942604682  0.17292030389822252  1.0000
  C   C28       1.0  0.830076245989181  0.4350760907349444  0.1690762357323425  1.0000
  C   C29       1.0  0.7932849817879082  0.4643487988191669  0.049971919029505596  1.0000
  C   C30       1.0  0.8299456273124372  0.43545987176684164  0.9337658255147687  1.0000
  C   C31       1.0  0.9024645465699697  0.3780301653022846  0.935663564162653  1.0000
  C   C32       1.0  0.938321813416415  0.34949998695279716  0.05567394377035128  1.0000
  C   C33       1.0  0.7166148627557215  0.5250581309360431  0.04695076803983755  1.0000
  C   C34       1.0  0.6975515177135059  0.6257729338010865  0.9519276967946313  1.0000
  C   C35       1.0  0.6253772127628453  0.6828739325224749  0.9492126423137179  1.0000
  C   C36       1.0  0.5713194723764563  0.640113444903591  0.04123282428159735  1.0000
  C   C37       1.0  0.5897020399509676  0.539989240934067  0.13610380187198645  1.0000
  C   C38       1.0  0.6618547755129782  0.48280167258291534  0.13906873597749378  1.0000
  C   C39       1.0  0.49702638576612157  0.6989445722425813  0.03830952242952823  1.0000
  C   C40       1.0  0.4348069740429972  0.7482147556203022  0.03586121326116575  1.0000
  C   C41       1.0  0.3619486899171875  0.8059096948551403  0.03299426722979669  1.0000
  C   C42       1.0  0.2997393330173388  0.85517215380018  0.030546460233962465  1.0000
  H   H18       1.0  0.9304127024101531  0.35555309842498634  0.5018795744775418  1.0000
  H   H19       1.0  0.802476839730156  0.45877832524035767  0.25878546284058035  1.0000
  H   H20       1.0  0.8014428761167106  0.45618958014223127  0.8418114959380291  1.0000
  H   H21       1.0  0.9942229863768642  0.30523202539749383  0.05792351135606255  1.0000
  H   H22       1.0  0.03915131891629553  0.26888522804471493  0.7320140811152845  1.0000
  H   H23       1.0  0.7387437624936304  0.6615222142212611  0.880777708423758  1.0000
  H   H24       1.0  0.6118052713229986  0.7605655878327857  0.8755608893362332  1.0000
  H   H25       1.0  0.5482186957353044  0.5058949371560163  0.20758950263634968  1.0000
  H   H26       1.0  0.6745387652413931  0.40439047356675517  0.21234048360386537  1.0000
  H   H27       1.0  0.24511438138765243  0.8984285976785953  0.028397090968106612  1.0000
  Zn  Zn1       1.0  0.8201895209133973  0.3817624621667719  0.5555015233329945  1.0000
  Zn  Zn2       1.0  0.9848194165415871  0.37395606064937637  0.5530818329501228  1.0000
  C   C43       1.0  0.9024783668123634  0.37279213349224577  0.7914886727461254  1.0000
  C   C44       1.0  0.9025323686858587  0.3829279427253544  0.3170947846101797  1.0000
  C   C45       1.0  0.9025488566449874  0.6150451145561434  0.5491209376718924  1.0000
  C   C46       1.0  0.9024618223787712  0.14067340408181384  0.5594625897218037  1.0000
  O   O1        1.0  0.9650021097327999  0.3817181616005509  0.36456279739778275  1.0000
  O   O2        1.0  0.9649589071313621  0.36807605662091364  0.7421837970798546  1.0000
  O   O3        1.0  0.9650149861997245  0.5636984430776845  0.546470148617952  1.0000
  O   O4        1.0  0.964945974500241  0.18609578705401786  0.560276349310167  1.0000
  O   O5        1.0  0.8400629067746403  0.5696227384274829  0.5483070077918406  1.0000
  O   O6        1.0  0.8400068280006392  0.374001912215707  0.744020587035243  1.0000
  O   O7        1.0  0.8400500308217657  0.3876439712384991  0.36639802593988  1.0000
  O   O8        1.0  0.8399938955733003  0.1920215874470805  0.5621116752206736  1.0000
