data_image0
_chemical_formula_structural       NC5N2C2NH4C6ClH5C6NCH7Zn2C4O8
_chemical_formula_sum              "N5 C24 H16 Cl1 Zn2 O8"
_cell_length_a       13.87973921873968
_cell_length_b       9.276545438789551
_cell_length_c       9.274690524155613
_cell_angle_alpha    86.08901854457557
_cell_angle_beta     89.68736137004737
_cell_angle_gamma    89.40960813042831

_space_group_name_H-M_alt    "P 1"
_space_group_IT_number       1

loop_
  _space_group_symop_operation_xyz
  'x, y, z'

loop_
  _atom_site_type_symbol
  _atom_site_label
  _atom_site_symmetry_multiplicity
  _atom_site_fract_x
  _atom_site_fract_y
  _atom_site_fract_z
  _atom_site_occupancy
  N   N1        1.0  0.9022547901217314  0.5641995221058098  0.4111037529984458  1.0000
  C   C1        1.0  0.8291865266320746  0.5882381689410294  0.3544872462642126  1.0000
  C   C2        1.0  0.7384384226061154  0.6180965134884138  0.2841634265876203  1.0000
  C   C3        1.0  0.651938901108024  0.588042594251476  0.3573339301704104  1.0000
  C   C4        1.0  0.5655590217505526  0.6180964492166412  0.28416346644737467  1.0000
  C   C5        1.0  0.4747094062745688  0.588238023359617  0.35448714296635675  1.0000
  N   N2        1.0  0.40155935918487107  0.5641994973900297  0.41110374199208444  1.0000
  N   N3        1.0  0.5673075669335226  0.6755195833555863  0.14546010380560093  1.0000
  C   C6        1.0  0.6521543289080709  0.7055345675564018  0.07633230501255928  1.0000
  C   C7        1.0  0.6523073559953828  0.7647021940381626  0.9226389272566559  1.0000
  N   N4        1.0  0.7369104658765935  0.6755195367919622  0.145460114527745  1.0000
  H   H1        1.0  0.6518517916312792  0.5420938817201528  0.46802165658152406  1.0000
  H   H2        1.0  0.716924765509179  0.832369634649325  0.9002857394437891  1.0000
  H   H3        1.0  0.6531953772996966  0.6741417081999406  0.8503751546382214  1.0000
  H   H4        1.0  0.5869199622389666  0.8323675645211317  0.9002849723192408  1.0000
  C   C8        1.0  0.15482030706608274  0.14076228456241946  0.410866161172607  1.0000
  C   C9        1.0  0.15566879527136734  0.2232534000041846  0.2778342380376142  1.0000
  C   C10       1.0  0.14774140876967046  0.15703891149907956  0.14769777826754704  1.0000
  C   C11       1.0  0.13877388926644918  0.007455561813826114  0.14859112413066722  1.0000
  C   C12       1.0  0.13942071214747842  0.9234047326297401  0.27918124466058747  1.0000
  C   C13       1.0  0.14900310597150423  0.9876257662569207  0.411353818440014  1.0000
  Cl  Cl1       1.0  0.14759333099620187  0.2622250939484516  0.9831522738086441  1.0000
  H   H5        1.0  0.2032709703139055  0.4056977975012593  0.6374671845754663  1.0000
  H   H6        1.0  0.16019362890512467  0.3399490752056642  0.2749806521329561  1.0000
  H   H7        1.0  0.13221944045518397  0.9558557839919248  0.04790978819985848  1.0000
  H   H8        1.0  0.1347201512321281  0.8071211504410267  0.2765309231876649  1.0000
  H   H9        1.0  0.11585839397070807  0.6909230551875593  0.6444160232759604  1.0000
  C   C14       1.0  0.15347972443015312  0.5605022207848738  0.9878605636216989  1.0000
  C   C15       1.0  0.23132721759345995  0.6228774247711477  0.05663385375097674  1.0000
  C   C16       1.0  0.304145162549857  0.6961731422694446  0.9761782626632556  1.0000
  C   C17       1.0  0.2983639138063703  0.7068242661454329  0.8252879348655595  1.0000
  C   C18       1.0  0.22257826215547416  0.6435899848893025  0.7553034649067558  1.0000
  C   C19       1.0  0.1503436295582072  0.5678857803539863  0.8343593617492848  1.0000
  N   N5        1.0  0.3838732913142189  0.7616098263607718  0.04493773426362258  1.0000
  C   C20       1.0  0.3969834923796658  0.7565338968548512  0.2012163594017411  1.0000
  H   H10       1.0  0.04470306005497959  0.386689857059616  0.28075925347291086  1.0000
  H   H11       1.0  0.35347111315214885  0.7632695911375098  0.7612618790867404  1.0000
  H   H12       1.0  0.22179681601100304  0.6510297003808063  0.638235033910135  1.0000
  H   H13       1.0  0.43592190587104507  0.815547515026226  0.9803346466496894  1.0000
  H   H14       1.0  0.4640165401620562  0.8136682332163978  0.2269275750983979  1.0000
  H   H15       1.0  0.40315861596332647  0.6425398472910286  0.24537537055235334  1.0000
  H   H16       1.0  0.33516406674794846  0.810591190924939  0.2524495015075039  1.0000
  Zn  Zn1       1.0  0.04634329993573605  0.5641957235835451  0.4111120734932783  1.0000
  Zn  Zn2       1.0  0.25747087236460087  0.5641915872192274  0.4111072299194436  1.0000
  C   C21       1.0  0.1509737559463158  0.5607457558038977  0.674349688442307  1.0000
  C   C22       1.0  0.1528427088389237  0.5676433755613695  0.14786975742950048  1.0000
  C   C23       1.0  0.15011898108623067  0.8275004109893502  0.4055181405074604  1.0000
  C   C24       1.0  0.15369742327146607  0.3008869886298966  0.41670138121058975  1.0000
  O   O1        1.0  0.23275077723531967  0.5700321518883555  0.2015684628400598  1.0000
  O   O2        1.0  0.2313066388732523  0.5583527486586266  0.6206468913444967  1.0000
  O   O3        1.0  0.23061531173105942  0.7737605193872532  0.40356351524742395  1.0000
  O   O4        1.0  0.23344203266348207  0.35462439053353534  0.4186517308767368  1.0000
  O   O5        1.0  0.0703720675893933  0.7737629202721519  0.4035675725300578  1.0000
  O   O6        1.0  0.07106338311166739  0.5583568812924611  0.6206508727749616  1.0000
  O   O7        1.0  0.0725075283028005  0.5700362191591883  0.20157071137373195  1.0000
  O   O8        1.0  0.07319878339753184  0.3546284484334769  0.41865408746487764  1.0000
