data_image0
_chemical_formula_structural       NC9NC5H8C10IC2H9C10SC3H12Zn2C4O8
_chemical_formula_sum              "N2 C43 H29 I1 S1 Zn2 O8"
_cell_length_a       17.807436237873137
_cell_length_b       10.299770258652044
_cell_length_c       10.299154459856256
_cell_angle_alpha    85.57273194020131
_cell_angle_beta     89.36692024415014
_cell_angle_gamma    88.4084010054176

_space_group_name_H-M_alt    "P 1"
_space_group_IT_number       1

loop_
  _space_group_symop_operation_xyz
  'x, y, z'

loop_
  _atom_site_type_symbol
  _atom_site_label
  _atom_site_symmetry_multiplicity
  _atom_site_fract_x
  _atom_site_fract_y
  _atom_site_fract_z
  _atom_site_occupancy
  N   N1        1.0  0.7080414251271289  0.3874484898077149  0.5571148979029024  1.0000
  C   C1        1.0  0.6474502181812152  0.3522573359457626  0.5460899249448152  1.0000
  C   C2        1.0  0.5720814162824707  0.3084834159907861  0.5323760556649053  1.0000
  C   C3        1.0  0.5540038910325505  0.23704947511730934  0.42736859147454304  1.0000
  C   C4        1.0  0.4808246742215887  0.19443686201130084  0.4139706751054746  1.0000
  C   C5        1.0  0.4246742025339735  0.22288066141001917  0.5055477625293034  1.0000
  C   C6        1.0  0.3469035594433814  0.17770935858873688  0.4913913262976753  1.0000
  C   C7        1.0  0.2847356653942995  0.259468905429425  0.5173327003751054  1.0000
  C   C8        1.0  0.21141410253581402  0.2166532609468852  0.5039484613548517  1.0000
  C   C9        1.0  0.1481965238208757  0.30110417628967  0.5302538046772558  1.0000
  N   N2        1.0  0.0973825779312427  0.36899686978527146  0.551402574078875  1.0000
  C   C10       1.0  0.19967684758366325  0.09182008993487513  0.46459749243154325  1.0000
  C   C11       1.0  0.260987371409645  0.010046689451940205  0.43864772811914515  1.0000
  C   C12       1.0  0.334189481446122  0.0524677616226259  0.45182941454786807  1.0000
  C   C13       1.0  0.4434431672925839  0.2948090011661286  0.610774473120197  1.0000
  C   C14       1.0  0.5166752603560791  0.3372311935856378  0.6240167301301971  1.0000
  H   H1        1.0  0.5964131731881291  0.21455082810029882  0.3556532184205463  1.0000
  H   H2        1.0  0.4679235945885847  0.1407396250145989  0.3310466233257261  1.0000
  H   H3        1.0  0.2932437417115715  0.35693740713501526  0.5462125991052  1.0000
  H   H4        1.0  0.14320824914227245  0.05778267969000517  0.45400159550965036  1.0000
  H   H5        1.0  0.2517814126875048  0.9133980383523267  0.4085673988195213  1.0000
  H   H6        1.0  0.3808230459828072  0.9867203734349291  0.4327790981157775  1.0000
  H   H7        1.0  0.4017503309995635  0.31676886027003626  0.683784372420589  1.0000
  H   H8        1.0  0.5301051850190515  0.39214878998273495  0.7058991488148154  1.0000
  C   C15       1.0  0.9026447923075849  0.9968606240052633  0.5542566465005729  1.0000
  C   C16       1.0  0.9082554126266902  0.006130138002515821  0.41777507557011734  1.0000
  C   C17       1.0  0.9111703490639756  0.8936843801155103  0.34862685997383025  1.0000
  C   C18       1.0  0.9083985343961464  0.7708355637548339  0.41779059236138144  1.0000
  C   C19       1.0  0.9027863717876011  0.759574409911673  0.5542720179067735  1.0000
  C   C20       1.0  0.8999413404669507  0.8731422650058155  0.6217408209184303  1.0000
  C   C21       1.0  0.917106361220442  0.904544066682373  0.20424255883316048  1.0000
  C   C22       1.0  0.9651956383558782  0.8194169380145454  0.13958868553035075  1.0000
  C   C23       1.0  0.970707033115308  0.8298536788127591  0.0036840744845072497  1.0000
  C   C24       1.0  0.9283480579361684  0.9251101474907949  0.9307857190427392  1.0000
  I   I1        1.0  0.9367750737834433  0.9405271831751751  0.7257888423974328  1.0000
  C   C25       1.0  0.8803970698477237  0.01013615053941201  0.9939187482120232  1.0000
  C   C26       1.0  0.874735138704908  0.00013188772436034348  0.12980703772588953  1.0000
  H   H9        1.0  0.9004727654933931  0.320783852300087  0.6062588106062572  1.0000
  H   H10       1.0  0.9114080513227653  0.10098029060365499  0.3650364124545047  1.0000
  H   H11       1.0  0.9095913284947323  0.6839348065930497  0.36484007279700337  1.0000
  H   H12       1.0  0.8956123213755417  0.8652230603903962  0.7270300291980099  1.0000
  H   H13       1.0  0.9006812284538905  0.4278278940948425  0.6062812670007165  1.0000
  H   H14       1.0  0.9992367608162855  0.7459474570597622  0.1941693250155696  1.0000
  H   H15       1.0  0.008058065665821349  0.7640669817471304  0.9551378622964486  1.0000
  H   H16       1.0  0.8473503280510969  0.08379741185761613  0.9377603158656412  1.0000
  H   H17       1.0  0.8365275430105112  0.06597925904299529  0.17657539288782242  1.0000
  C   C27       1.0  0.9028138934868827  0.3781413229444568  0.1728844874900486  1.0000
  C   C28       1.0  0.8286692981116444  0.33492432382581727  0.1768563227938491  1.0000
  C   C29       1.0  0.7909760212869013  0.3130923454657557  0.061722988814161495  1.0000
  C   C30       1.0  0.8284251215563864  0.33505738636701055  0.9415674931545186  1.0000
  C   C31       1.0  0.9026172526613927  0.37829375161190004  0.9356442002881886  1.0000
  C   C32       1.0  0.9393549006097391  0.3995720977547188  0.05178406439539862  1.0000
  C   C33       1.0  0.7125447627323153  0.2673648881281754  0.06696091984554986  1.0000
  C   C34       1.0  0.6903365788449581  0.17075907103286195  0.16271855132454505  1.0000
  C   C35       1.0  0.6165154135821587  0.12776536805898742  0.16741539734228206  1.0000
  C   C36       1.0  0.5640186378373537  0.1804075608580269  0.07658789837656577  1.0000
  S   S1        1.0  0.46926338319164157  0.12537555164724767  0.08306627526704213  1.0000
  C   C37       1.0  0.48860299233987353  0.9964569114678022  0.9751440606106545  1.0000
  C   C38       1.0  0.5854287053643494  0.2767942714277128  0.9813317548811624  1.0000
  C   C39       1.0  0.6592116934929745  0.3199691211113089  0.976272562218262  1.0000
  H   H18       1.0  0.9313461472360954  0.39469700251429307  0.4988373207549038  1.0000
  H   H19       1.0  0.7997038820124436  0.31984774438521485  0.2695913719471872  1.0000
  H   H20       1.0  0.7999917393895506  0.3166862158117447  0.8526382362920241  1.0000
  H   H21       1.0  0.9965454087273556  0.4329023007841446  0.048005037545831186  1.0000
  H   H22       1.0  0.042813035835376406  0.4591142102378023  0.7172282942078884  1.0000
  H   H23       1.0  0.730289959038483  0.12728826027793994  0.23287366177867996  1.0000
  H   H24       1.0  0.600289694228304  0.05308150802809865  0.24135137331720502  1.0000
  H   H25       1.0  0.43621646662726316  0.9434905746571627  0.9615752656260753  1.0000
  H   H26       1.0  0.5318226977397013  0.9268820983028097  0.01844958645403461  1.0000
  H   H27       1.0  0.5085008993562069  0.03870890949469174  0.8788642953232798  1.0000
  H   H28       1.0  0.544948073044753  0.3183895009524602  0.9111562622389727  1.0000
  H   H29       1.0  0.6743143201203999  0.3956591326816718  0.9025428993599102  1.0000
  Zn  Zn1       1.0  0.8203968678222952  0.3821202871246835  0.5554739555779169  1.0000
  Zn  Zn2       1.0  0.9850271123215828  0.374314488622515  0.553054193108452  1.0000
  C   C40       1.0  0.9026518064968536  0.3730914231971526  0.7914661636039946  1.0000
  C   C41       1.0  0.9027739716755018  0.3833449059258695  0.31706208616171483  1.0000
  C   C42       1.0  0.9027570848107962  0.6154044388314848  0.5490938296764536  1.0000
  C   C43       1.0  0.9026686368772698  0.1410303326950786  0.5594344901241679  1.0000
  O   O1        1.0  0.9652368923089041  0.382123350421278  0.36453111799408777  1.0000
  O   O2        1.0  0.9651394320683525  0.3683875784733038  0.7421602141703394  1.0000
  O   O3        1.0  0.9652236030795197  0.5640584432668814  0.5464428521056781  1.0000
  O   O4        1.0  0.9651526651474117  0.18645249756188373  0.5602483835071816  1.0000
  O   O5        1.0  0.8402712588162456  0.5699822808504618  0.548279765998102  1.0000
  O   O6        1.0  0.8401870881091473  0.3743129763184916  0.7439970588467659  1.0000
  O   O7        1.0  0.8402845487937514  0.3880487026969582  0.3663664012234836  1.0000
  O   O8        1.0  0.8402003216023636  0.1923778405685288  0.56208376410706  1.0000
