data_image0
_chemical_formula_structural       NC12NC2H8C6BrH5C7NH4Zn2C4O8
_chemical_formula_sum              "N3 C31 H17 Br1 Zn2 O8"
_cell_length_a       19.240039667572717
_cell_length_b       9.276564384272257
_cell_length_c       9.275157849593906
_cell_angle_alpha    86.064957766791
_cell_angle_beta     89.74087680363883
_cell_angle_gamma    90.58593109150864

_space_group_name_H-M_alt    "P 1"
_space_group_IT_number       1

loop_
  _space_group_symop_operation_xyz
  'x, y, z'

loop_
  _atom_site_type_symbol
  _atom_site_label
  _atom_site_symmetry_multiplicity
  _atom_site_fract_x
  _atom_site_fract_y
  _atom_site_fract_z
  _atom_site_occupancy
  N   N1        1.0  0.665651735796127  0.5629053029989555  0.409051862249044  1.0000
  C   C1        1.0  0.6055033676327245  0.5629053953779666  0.40905177124979913  1.0000
  C   C2        1.0  0.5306853314588833  0.5629055241474739  0.40905161878036034  1.0000
  C   C3        1.0  0.493613803161836  0.49242658408908824  0.5238633754952821  1.0000
  C   C4        1.0  0.42094224295379656  0.4923043840807062  0.5239595094194212  1.0000
  C   C5        1.0  0.3843530975673721  0.5629056245019735  0.40905136604465697  1.0000
  C   C6        1.0  0.4221396311318658  0.633507074632714  0.29414343837658374  1.0000
  C   C7        1.0  0.49480950590781186  0.6333846144305029  0.2942397084494488  1.0000
  C   C8        1.0  0.30714800692273736  0.5629055361367106  0.4090512602360232  1.0000
  C   C9        1.0  0.26924078038990656  0.43758627375842196  0.45561642300641303  1.0000
  C   C10       1.0  0.1965708936293012  0.4377040021155907  0.4555149851417177  1.0000
  C   C11       1.0  0.16081571914791276  0.5629053933517321  0.40905132794321564  1.0000
  C   C12       1.0  0.0859976807815005  0.5629052697051342  0.40905160397774876  1.0000
  N   N2        1.0  0.025849363212554804  0.5629052265994658  0.4090518352915659  1.0000
  C   C13       1.0  0.1980080560636157  0.6881068682231706  0.36258761198480527  1.0000
  C   C14       1.0  0.270679555276345  0.6882247948530471  0.3624859935307456  1.0000
  H   H1        1.0  0.520864225172798  0.4378674877581643  0.6135047516953358  1.0000
  H   H2        1.0  0.3933862232835722  0.43864340280224345  0.6148380094841257  1.0000
  H   H3        1.0  0.3955091202824677  0.6871680854076487  0.20326488186239117  1.0000
  H   H4        1.0  0.5229888541580853  0.6879436023732748  0.20459863838223358  1.0000
  H   H5        1.0  0.2957719922938449  0.33891968410227014  0.4902828339869969  1.0000
  H   H6        1.0  0.1682964684562878  0.34004690346837907  0.49132683627489926  1.0000
  H   H7        1.0  0.17085265762001614  0.7857639397796752  0.3267757770200046  1.0000
  H   H8        1.0  0.2983348227292222  0.7868914719499738  0.3278195327968982  1.0000
  C   C15       1.0  0.8436590702156862  0.13942786443050315  0.4094203503605989  1.0000
  C   C16       1.0  0.8350329640428534  0.22165847325705834  0.2777055744236283  1.0000
  C   C17       1.0  0.8328725761075002  0.15541277376708762  0.1472210790464592  1.0000
  C   C18       1.0  0.8393281333192117  0.00599359789292464  0.14597372820084686  1.0000
  C   C19       1.0  0.8467340602522279  0.9220504755634684  0.27569675452547915  1.0000
  C   C20       1.0  0.8478486242873389  0.9863716868947793  0.40869573232772805  1.0000
  Br  Br1       1.0  0.8368848248940801  0.915911232592344  0.9669262021141147  1.0000
  H   H9        1.0  0.82277859237905  0.4042369824759158  0.6437130881383162  1.0000
  H   H10       1.0  0.8316082893765029  0.33829110247615524  0.27523840946464423  1.0000
  H   H11       1.0  0.8268408560917371  0.22066611712627007  0.046838285124619405  1.0000
  H   H12       1.0  0.8499565031813942  0.8057805656328265  0.2725897126323302  1.0000
  H   H13       1.0  0.8857113621235061  0.6906009400917178  0.6331467933902243  1.0000
  C   C21       1.0  0.8466559242926441  0.5588235594632553  0.9858637824107905  1.0000
  C   C22       1.0  0.9067944545991057  0.6058351545115888  0.055519584903447765  1.0000
  C   C23       1.0  0.9634237622850874  0.6641863217620172  0.975591489553318  1.0000
  C   C24       1.0  0.9605759349720401  0.6764535569471539  0.8249220482114116  1.0000
  C   C25       1.0  0.9018605754450619  0.6282742108244288  0.7539257026294011  1.0000
  C   C26       1.0  0.8448517860596548  0.5669759830221677  0.8322523788146969  1.0000
  C   C27       1.0  0.024253437124029494  0.7132062017934551  0.048553165953446394  1.0000
  N   N3        1.0  0.0731449167990421  0.7526049675284681  0.10720204961958402  1.0000
  H   H14       1.0  0.6773067224875072  0.5102010476770202  0.09374301872789803  1.0000
  H   H15       1.0  0.004081141655911225  0.7220686869165276  0.7620602197246042  1.0000
  H   H16       1.0  0.9017443222706965  0.6358558694197796  0.6368547767069539  1.0000
  H   H17       1.0  0.7315283319239181  0.5281843153205634  0.5548790837486396  1.0000
  Zn  Zn1       1.0  0.7695969627852797  0.5629015109605338  0.40906016745750406  1.0000
  Zn  Zn2       1.0  0.9219040717357422  0.5628973687722636  0.4090553014455486  1.0000
  C   C28       1.0  0.8451628215561755  0.5596901041952859  0.6722717006529939  1.0000
  C   C29       1.0  0.846339884852929  0.5661105964011881  0.14584390808619063  1.0000
  C   C30       1.0  0.8470653705089187  0.8262259846141922  0.4030899981763029  1.0000
  C   C31       1.0  0.8444372751941294  0.29957298414156686  0.41502568887893154  1.0000
  O   O1        1.0  0.904033542100359  0.5685483293067368  0.19953285845546653  1.0000
  O   O2        1.0  0.9030667313583518  0.5572481355710577  0.6185786431775877  1.0000
  O   O3        1.0  0.9046022813362253  0.7724792442702202  0.4012125126645496  1.0000
  O   O4        1.0  0.9024979404317431  0.3533172298842018  0.4168988809074292  1.0000
  O   O5        1.0  0.7890030421143611  0.7724816498515057  0.40121658798970294  1.0000
  O   O6        1.0  0.7874675008676266  0.5572522729959681  0.6185826401807697  1.0000
  O   O7        1.0  0.7884343151005657  0.5685523997898756  0.19953512285952213  1.0000
  O   O8        1.0  0.7868987131477746  0.35332129109362365  0.4169012533666394  1.0000
