data_image0
_chemical_formula_structural       NC8NC6H8C6H4C9H8Zn2C4O8
_chemical_formula_sum              "N2 C33 H20 Zn2 O8"
_cell_length_a       17.457602349358154
_cell_length_b       10.681118228259551
_cell_length_c       9.275155815604961
_cell_angle_alpha    86.05281192144675
_cell_angle_beta     93.22066324705655
_cell_angle_gamma    91.68806569353352

_space_group_name_H-M_alt    "P 1"
_space_group_IT_number       1

loop_
  _space_group_symop_operation_xyz
  'x, y, z'

loop_
  _atom_site_type_symbol
  _atom_site_label
  _atom_site_symmetry_multiplicity
  _atom_site_fract_x
  _atom_site_fract_y
  _atom_site_fract_z
  _atom_site_occupancy
  N   N1        1.0  0.7173607021482251  0.389328452110707  0.47527892891815626  1.0000
  C   C1        1.0  0.6562436297638569  0.34495375382472826  0.4634943690602791  1.0000
  C   C2        1.0  0.5802114438665831  0.2897572201253429  0.4488449691642098  1.0000
  C   C3        1.0  0.5219589692857067  0.32911796076734756  0.5319891755540762  1.0000
  C   C4        1.0  0.447367131548773  0.27596922867534435  0.5180218658759599  1.0000
  C   C5        1.0  0.38554006421214304  0.3175303909962581  0.6060747338063128  1.0000
  C   C6        1.0  0.3107877936488317  0.3348676415185325  0.5441714466222192  1.0000
  C   C7        1.0  0.2525357142696626  0.37405193868057673  0.6274354928003805  1.0000
  C   C8        1.0  0.17633711971668478  0.3919546698182299  0.5630728138469037  1.0000
  N   N2        1.0  0.1150863667605874  0.4063423150928171  0.5113253876466037  1.0000
  C   C9        1.0  0.2685456176996874  0.3961377425992374  0.7731673335389151  1.0000
  C   C10       1.0  0.3425146133523849  0.3791788630223649  0.8355008949221603  1.0000
  C   C11       1.0  0.40075677547232813  0.34017205969864284  0.7527449669591368  1.0000
  C   C12       1.0  0.4323111309260534  0.18279441496691626  0.4193196600509985  1.0000
  C   C13       1.0  0.49055336220408124  0.1437057832314481  0.33661949891502707  1.0000
  C   C14       1.0  0.5643624620018234  0.19696752755377211  0.3511973100055543  1.0000
  H   H1        1.0  0.5345486808588711  0.40219004316862006  0.6059561919615837  1.0000
  H   H2        1.0  0.2980666179531651  0.3195693500686252  0.4309136745193114  1.0000
  H   H3        1.0  0.22390157861420953  0.426414996753764  0.838481225508485  1.0000
  H   H4        1.0  0.3547207017068029  0.39597602471673293  0.9483443091751133  1.0000
  H   H5        1.0  0.45741238987997407  0.3261055695814435  0.8039279176193344  1.0000
  H   H6        1.0  0.3757872033750695  0.13898801862673738  0.4074950067361325  1.0000
  H   H7        1.0  0.4784730420406151  0.07170015368193994  0.2613222215469069  1.0000
  H   H8        1.0  0.6090084296053463  0.16585595986631027  0.2864508197698379  1.0000
  C   C15       1.0  0.9162272331159079  0.03008556954083907  0.4933086945429468  1.0000
  C   C16       1.0  0.9502976876738181  0.9578858187969321  0.610855134582917  1.0000
  C   C17       1.0  0.9502976757216619  0.8270035796170245  0.6108550676066977  1.0000
  C   C18       1.0  0.9162272204378797  0.765575973421299  0.4933087556969571  1.0000
  C   C19       1.0  0.8821849689717403  0.8377662382718978  0.37585945735269544  1.0000
  C   C20       1.0  0.8821849808608898  0.9686584973168267  0.37585951692489816  1.0000
  H   H9        1.0  0.9770037626973787  0.002474883153037012  0.7029935413042949  1.0000
  H   H10       1.0  0.9770036682572126  0.77397085032694  0.702993507286549  1.0000
  H   H11       1.0  0.8554754117924  0.793222480395309  0.28370902063957404  1.0000
  H   H12       1.0  0.8554753916369495  0.021646918479347303  0.2837090070937225  1.0000
  C   C21       1.0  0.9148210842075273  0.39460517742291534  0.06995004899157631  1.0000
  C   C22       1.0  0.8547844769456107  0.45305733460482345  0.1323237187852302  1.0000
  C   C23       1.0  0.7998882449525077  0.5200522551151063  0.046063628713058025  1.0000
  C   C24       1.0  0.804010569469088  0.5300035272811383  0.8958554443160813  1.0000
  C   C25       1.0  0.862502810982396  0.4708124640214581  0.8316334415513236  1.0000
  C   C26       1.0  0.9176333442228488  0.4010562949500367  0.9166673542730536  1.0000
  C   C27       1.0  0.7475630324626363  0.5998578300717454  0.8071421390346409  1.0000
  C   C28       1.0  0.7002983891131741  0.6583513743718761  0.7328304341337724  1.0000
  C   C29       1.0  0.6429512434514435  0.7293234219600782  0.6426543143344317  1.0000
  H   H13       1.0  0.09295259764053836  0.30118713539625075  0.19905220952067948  1.0000
  H   H14       1.0  0.8513365823851259  0.4494384217923091  0.2488027688805818  1.0000
  H   H15       1.0  0.7545999615014155  0.5651841872727956  0.09677211898000171  1.0000
  H   H16       1.0  0.8639207889481036  0.4767618636223405  0.7146156595426052  1.0000
  H   H17       1.0  0.03648965492929859  0.333618632393919  0.6538570831065504  1.0000
  H   H18       1.0  0.65854634746252  0.7335886586050018  0.5280687338626908  1.0000
  H   H19       1.0  0.5857933839059486  0.6822838217673832  0.6525002911589692  1.0000
  H   H20       1.0  0.6410089999705622  0.8259388275060077  0.6789830205124643  1.0000
  Zn  Zn1       1.0  0.8321357652879695  0.3942349905358686  0.48568948233096565  1.0000
  Zn  Zn2       1.0  0.0003113285742113394  0.40142559901666997  0.5009266374307757  1.0000
  C   C30       1.0  0.9171000665572498  0.3948479303827328  0.7566195339149482  1.0000
  C   C31       1.0  0.9153488642467846  0.40081431887260766  0.2299968937370365  1.0000
  C   C32       1.0  0.9162041837412989  0.6265086653345555  0.48756341249396873  1.0000
  C   C33       1.0  0.9162446899315043  0.16915207746951877  0.4990530868205106  1.0000
  O   O1        1.0  0.979347741862268  0.4056214984942745  0.2894924978304301  1.0000
  O   O2        1.0  0.9807425487800034  0.3954973083206721  0.7086881629709589  1.0000
  O   O3        1.0  0.9800182567073861  0.5825662561799985  0.4914233633559964  1.0000
  O   O4        1.0  0.9800719761889294  0.21855255631615855  0.5067571841500995  1.0000
  O   O5        1.0  0.8523750602831607  0.5771080307838838  0.47985893040436545  1.0000
  O   O6        1.0  0.8530993520969185  0.3900405869233272  0.6971236531495568  1.0000
  O   O7        1.0  0.851704539473216  0.40016472025310157  0.27792625469847754  1.0000
  O   O8        1.0  0.8524287741557421  0.213095769941279  0.4951910491061642  1.0000
