data_image0
_chemical_formula_structural       NC9NC3NH7C6SCNH4C8H6Zn2C4O8
_chemical_formula_sum              "N4 C31 H17 S1 Zn2 O8"
_cell_length_a       16.053384444249904
_cell_length_b       10.302215558581763
_cell_length_c       9.275144076552241
_cell_angle_alpha    85.96516146856106
_cell_angle_beta     90.26395466223778
_cell_angle_gamma    89.19414689339631

_space_group_name_H-M_alt    "P 1"
_space_group_IT_number       1

loop_
  _space_group_symop_operation_xyz
  'x, y, z'

loop_
  _atom_site_type_symbol
  _atom_site_label
  _atom_site_symmetry_multiplicity
  _atom_site_fract_x
  _atom_site_fract_y
  _atom_site_fract_z
  _atom_site_occupancy
  N   N1        1.0  0.7773694596331737  0.3937425364873903  0.4069814508472176  1.0000
  C   C1        1.0  0.7262284936212783  0.37242242330348047  0.32390853630367533  1.0000
  C   C2        1.0  0.6626744381673372  0.3459320884649375  0.22071172461337382  1.0000
  C   C3        1.0  0.675622840426298  0.332960708585764  0.07561491096250972  1.0000
  C   C4        1.0  0.5987269483626827  0.30728176252909667  0.017617674117476945  1.0000
  C   C5        1.0  0.542149240749141  0.3060151785760312  0.13045861098823397  1.0000
  C   C6        1.0  0.4514395032909398  0.28212975194248857  0.11908321207745408  1.0000
  C   C7        1.0  0.3960312732626151  0.32547550792076274  0.2233118855847047  1.0000
  C   C8        1.0  0.3104278984613161  0.30282174652895955  0.21241643023845566  1.0000
  C   C9        1.0  0.254252059157612  0.34792817400347875  0.3192777981524939  1.0000
  N   N2        1.0  0.2091032691336986  0.38418737065065844  0.4051776031226195  1.0000
  C   C10       1.0  0.2795067697657778  0.23671036849181215  0.09730750403333643  1.0000
  C   C11       1.0  0.33390755214725665  0.19348564726844455  0.9933137676271739  1.0000
  C   C12       1.0  0.4193029047011088  0.21597100562953916  0.003769051705783793  1.0000
  N   N3        1.0  0.5819112744026751  0.3297465981394083  0.2542716444011701  1.0000
  H   H1        1.0  0.7340960942701864  0.34123941962745974  0.018329498907902145  1.0000
  H   H2        1.0  0.5859480232422479  0.29281791395367773  0.905325643486154  1.0000
  H   H3        1.0  0.418766897708322  0.3784678916202459  0.31188322467338825  1.0000
  H   H4        1.0  0.2134376934527656  0.2186905420705787  0.08794638786614106  1.0000
  H   H5        1.0  0.3098807504554545  0.1421329893316552  0.9044830861303325  1.0000
  H   H6        1.0  0.4600412589042293  0.18003356921179162  0.9224700279673277  1.0000
  H   H7        1.0  0.5562205353700792  0.33275001055574394  0.35722154120655136  1.0000
  C   C13       1.0  0.9931574123982877  0.007694257078599394  0.40604016176697444  1.0000
  C   C14       1.0  0.07685844103161266  0.0020567787116829734  0.4510464868411812  1.0000
  C   C15       1.0  0.11851378521978818  0.882213452189187  0.4738993796016823  1.0000
  C   C16       1.0  0.07707553866782924  0.7668775364987446  0.4511676298020461  1.0000
  C   C17       1.0  0.9933232973987488  0.7702255682444377  0.4061312636793091  1.0000
  C   C18       1.0  0.9518150687170551  0.8911439784104924  0.38387069309877075  1.0000
  S   S1        1.0  0.22544751186544554  0.8765304701030728  0.5307578063497271  1.0000
  C   C19       1.0  0.19881988034004405  0.8654541344889666  0.715577897841136  1.0000
  N   N4        1.0  0.181337759910551  0.8581936046736794  0.8367433831653652  1.0000
  H   H8        1.0  0.11001676499162572  0.09040925312862823  0.468793717937568  1.0000
  H   H9        1.0  0.11038267433373661  0.674945493607051  0.4689979721060633  1.0000
  H   H10       1.0  0.8872615142381167  0.8946422931729041  0.34918023594442044  1.0000
  H   H11       1.0  0.8354854268060491  0.5693274618627233  0.3210945140893007  1.0000
  C   C20       1.0  0.9912775255616824  0.3863465109124767  0.9828081121781723  1.0000
  C   C21       1.0  0.9369795094702239  0.4722227151087852  0.04901890347936689  1.0000
  C   C22       1.0  0.889367503877857  0.5643838898983295  0.9662936435331465  1.0000
  C   C23       1.0  0.8951923751193057  0.5725518601778334  0.8158398261162048  1.0000
  C   C24       1.0  0.9477608881931426  0.48661871970795434  0.7478804168261108  1.0000
  C   C25       1.0  0.9952032124183444  0.39157337804612197  0.8293633952634137  1.0000
  C   C26       1.0  0.8463711847407155  0.6683088937508985  0.7307501337435918  1.0000
  C   C27       1.0  0.8054982011334028  0.7484799953562529  0.6594939528270354  1.0000
  H   H12       1.0  0.1644248805991786  0.21207635829690274  0.10066817700761299  1.0000
  H   H13       1.0  0.9328119937520057  0.47013236742439996  0.16570617694641387  1.0000
  H   H14       1.0  0.8485663760556049  0.6302051999201228  0.01991032674425974  1.0000
  H   H15       1.0  0.9501504005300437  0.49196091667931624  0.6307864717067582  1.0000
  H   H16       1.0  0.10997653693375473  0.27015508189248916  0.5590553739849224  1.0000
  H   H17       1.0  0.7696202059756102  0.8188531245955644  0.5969443421105494  1.0000
  Zn  Zn1       1.0  0.901958546632791  0.3909817107412838  0.40646921517281975  1.0000
  Zn  Zn2       1.0  0.08451421100254786  0.38693769145834  0.4057016181826134  1.0000
  C   C28       1.0  0.9944581878448541  0.3854130554812793  0.6693456728726412  1.0000
  C   C29       1.0  0.992016564305153  0.39250794162868696  0.14282529377022143  1.0000
  C   C30       1.0  0.9932610401413124  0.6260555731365005  0.40037021935333295  1.0000
  C   C31       1.0  0.993213649732161  0.15186386592729217  0.41180082421229125  1.0000
  O   O1        1.0  0.06154351445770478  0.393035425538405  0.19623722195309434  1.0000
  O   O2        1.0  0.06348676076117155  0.38181527247609004  0.6153507412900701  1.0000
  O   O3        1.0  0.06251912188772679  0.5761371787647517  0.3981511636155325  1.0000
  O   O4        1.0  0.06251109053811632  0.19871352925024044  0.4134366918154817  1.0000
  O   O5        1.0  0.9239616047998989  0.5792058743307756  0.3987341417943133  1.0000
  O   O6        1.0  0.9249292436525531  0.38488552746967986  0.6159336428004512  1.0000
  O   O7        1.0  0.9229859893583761  0.3961056245866126  0.19681839047452243  1.0000
  O   O8        1.0  0.9239535659344966  0.20178371967934305  0.41401796840342164  1.0000
