data_image0
_chemical_formula_structural       NC9NC3NH7C8NH7C8NH11Zn2C4O8
_chemical_formula_sum              "N5 C32 H25 Zn2 O8"
_cell_length_a       16.053384444249904
_cell_length_b       9.274263428431858
_cell_length_c       9.275652972338536
_cell_angle_alpha    85.89520880153039
_cell_angle_beta     90.23845156290304
_cell_angle_gamma    89.79185309571561

_space_group_name_H-M_alt    "P 1"
_space_group_IT_number       1

loop_
  _space_group_symop_operation_xyz
  'x, y, z'

loop_
  _atom_site_type_symbol
  _atom_site_label
  _atom_site_symmetry_multiplicity
  _atom_site_fract_x
  _atom_site_fract_y
  _atom_site_fract_z
  _atom_site_occupancy
  N   N1        1.0  0.7871051758472539  0.5486920182283126  0.4057313986570412  1.0000
  C   C1        1.0  0.7358428341781794  0.5250365934294374  0.32268121387279625  1.0000
  C   C2        1.0  0.6721379633815926  0.49564461654618075  0.21951264328183417  1.0000
  C   C3        1.0  0.6850367665658557  0.4812831704222684  0.07443283361448792  1.0000
  C   C4        1.0  0.6079838983419124  0.4527777818786851  0.01646156127360121  1.0000
  C   C5        1.0  0.5513687780157671  0.4513341452823721  0.12929989376934392  1.0000
  C   C6        1.0  0.4605021114784576  0.4248058362869887  0.11794721644112038  1.0000
  C   C7        1.0  0.4053572320980381  0.47292053424229646  0.22213184962322183  1.0000
  C   C8        1.0  0.31960504769752884  0.44776020687218643  0.21125794778916185  1.0000
  C   C9        1.0  0.2637036666964975  0.49782980796212817  0.31807354025210777  1.0000
  N   N2        1.0  0.2187755028030332  0.538078695708252  0.40393654828020265  1.0000
  C   C10       1.0  0.2882710062619984  0.374360921407039  0.09621471953220984  1.0000
  C   C11       1.0  0.3424091877384838  0.32638059281914444  0.9922649023607754  1.0000
  C   C12       1.0  0.4279523357799062  0.3513540007562837  0.0026988052117105084  1.0000
  N   N3        1.0  0.5912578770481733  0.47765480291940526  0.2530865741933377  1.0000
  H   H1        1.0  0.743580113270467  0.4904978265474147  0.017141602165111843  1.0000
  H   H2        1.0  0.5951369739159844  0.43674782414336516  0.9041868289818651  1.0000
  H   H3        1.0  0.4284247794930886  0.531755831596121  0.31065065181030627  1.0000
  H   H4        1.0  0.2220837381267869  0.35434748494177204  0.08687077131938346  1.0000
  H   H5        1.0  0.3180615029808782  0.26936679256303653  0.9034852328672124  1.0000
  H   H6        1.0  0.468471037331791  0.3114610285310933  0.9214361229929517  1.0000
  H   H7        1.0  0.5655608374069084  0.4809575101089347  0.3560302050942026  1.0000
  C   C13       1.0  0.000309856268307481  0.11986863669031211  0.40515120532359256  1.0000
  C   C14       1.0  0.9889627110846659  0.20263348875415765  0.273470047574504  1.0000
  C   C15       1.0  0.985790462742045  0.13693420762273267  0.1429473325980779  1.0000
  C   C16       1.0  0.994563984873741  0.9869231583570578  0.14087450924858125  1.0000
  C   C17       1.0  0.003671840403780543  0.9027028984606426  0.2716814280738342  1.0000
  C   C18       1.0  0.0055787662172621655  0.9668909506380262  0.4045291801251365  1.0000
  C   C19       1.0  0.9899015808720821  0.9161170346114471  0.00026014630135673037  1.0000
  C   C20       1.0  0.9033378622070701  0.879096481384428  0.9685856997901716  1.0000
  N   N4        1.0  0.8350150069541764  0.8498756643340614  0.9435952659044079  1.0000
  H   H8        1.0  0.07365624323631748  0.1985365133747381  0.7371552730262954  1.0000
  H   H9        1.0  0.9843477938991292  0.3193501929177147  0.27112853013799776  1.0000
  H   H10       1.0  0.9772663163348444  0.2034090302624816  0.04309454326943185  1.0000
  H   H11       1.0  0.007259981322109921  0.7861125201539721  0.26976791149924745  1.0000
  H   H12       1.0  0.051727457576262736  0.6697585512538662  0.6300241853557238  1.0000
  H   H13       1.0  0.028409240745985276  0.8160919852127695  0.0056779942642091194  1.0000
  H   H14       1.0  0.014104212953950144  0.9897399222812174  0.910461181153055  1.0000
  C   C21       1.0  0.0010725193663885261  0.5406144869730638  0.9815792203113166  1.0000
  C   C22       1.0  0.9476324964079692  0.6362818407270416  0.047881707118020186  1.0000
  C   C23       1.0  0.9008216269355062  0.7402032443600091  0.965303494210353  1.0000
  C   C24       1.0  0.906317011474033  0.7470955369725236  0.8144902900199411  1.0000
  C   C25       1.0  0.9579234643699304  0.6515374725923382  0.7467873042508999  1.0000
  C   C26       1.0  0.0048161227879832645  0.5461450655109608  0.8281011353455803  1.0000
  C   C27       1.0  0.8429741960675845  0.8403078579529673  0.038017838146493295  1.0000
  C   C28       1.0  0.7568923194576397  0.7719473740221643  0.05921304761334656  1.0000
  N   N5        1.0  0.701004981062849  0.8708001630381328  0.1275842598705763  1.0000
  H   H15       1.0  0.06079251659972853  0.3248377221632497  0.27808996771904027  1.0000
  H   H16       1.0  0.9436454698625628  0.6323667347859607  0.16472865863706684  1.0000
  H   H17       1.0  0.8698659478291121  0.8256860685651374  0.7490036116765082  1.0000
  H   H18       1.0  0.9594658249078006  0.6576945040705986  0.6297566289662213  1.0000
  H   H19       1.0  0.11822268014257409  0.41124399330730604  0.5572430508748005  1.0000
  H   H20       1.0  0.8692171999325314  0.8650078590030964  0.14460506808656692  1.0000
  H   H21       1.0  0.8369535222121833  0.9445949893341326  0.9716596003406418  1.0000
  H   H22       1.0  0.7307003625741317  0.748405073374387  0.9522076300388846  1.0000
  H   H23       1.0  0.7621296142042036  0.668509371304636  0.12745713035355874  1.0000
  H   H24       1.0  0.6418720227646728  0.823815490043845  0.13226727417369144  1.0000
  H   H25       1.0  0.7205545957726371  0.8775391653793125  0.23461778744670325  1.0000
  Zn  Zn1       1.0  0.9116759181942444  0.5456254506335234  0.4052217623341423  1.0000
  Zn  Zn2       1.0  0.09420471600266334  0.5411335905509436  0.40445797341825207  1.0000
  C   C29       1.0  0.004070881852284099  0.5393542475202404  0.6680946013967697  1.0000
  C   C30       1.0  0.0018117574985776488  0.5474065652524729  0.1415852661468866  1.0000
  C   C31       1.0  0.004553137876716297  0.806748247830989  0.39890311087430663  1.0000
  C   C32       1.0  0.0013294287511231868  0.2800108342339283  0.41077683504674123  1.0000
  O   O1        1.0  0.0713285409414397  0.5479751193752507  0.19499490751024173  1.0000
  O   O2        1.0  0.0730892239143599  0.5353753848200835  0.614104847806423  1.0000
  O   O3        1.0  0.07347772460524538  0.7512994545005548  0.39673081744121563  1.0000
  O   O4        1.0  0.07093997755209364  0.3320510608384386  0.41236883005756597  1.0000
  O   O5        1.0  0.9349405943566699  0.7547079818804001  0.397310905947889  1.0000
  O   O6        1.0  0.9345521041006618  0.5387856444420969  0.614684858188766  1.0000
  O   O7        1.0  0.9327914132070338  0.5513853174167519  0.19557318501414733  1.0000
  O   O8        1.0  0.932402850228004  0.33546124927065213  0.4129472156324161  1.0000
