data_image0
_chemical_formula_structural       NC12NC2H8C10IC2H9C10FC2H9Zn2C4O8
_chemical_formula_sum              "N2 C42 H26 I1 F1 Zn2 O8"
_cell_length_a       17.80743265337812
_cell_length_b       10.299770258652044
_cell_length_c       10.29976833762649
_cell_angle_alpha    85.54416727294225
_cell_angle_beta     91.53853342504704
_cell_angle_gamma    89.45364399786216

_space_group_name_H-M_alt    "P 1"
_space_group_IT_number       1

loop_
  _space_group_symop_operation_xyz
  'x, y, z'

loop_
  _atom_site_type_symbol
  _atom_site_label
  _atom_site_symmetry_multiplicity
  _atom_site_fract_x
  _atom_site_fract_y
  _atom_site_fract_z
  _atom_site_occupancy
  N   N1        1.0  0.7076073474426049  0.40706496164948813  0.6014226133759843  1.0000
  C   C1        1.0  0.6567893034911585  0.43664299498235315  0.5327261626406461  1.0000
  C   C2        1.0  0.5935666421010033  0.47343592040273075  0.4472764257261272  1.0000
  C   C3        1.0  0.6052964975452957  0.5274920597647851  0.32066086357219437  1.0000
  C   C4        1.0  0.5439810407446567  0.5627807304214021  0.23760700298260182  1.0000
  C   C5        1.0  0.47078143861671984  0.5442769112143824  0.28050882324047577  1.0000
  C   C6        1.0  0.4580748131710093  0.49010183680815045  0.40759251694900483  1.0000
  C   C7        1.0  0.5202475857761876  0.4548164247225627  0.4906298661848835  1.0000
  C   C8        1.0  0.38030695270197573  0.47048308858693066  0.4533545418604554  1.0000
  C   C9        1.0  0.3615331907416188  0.4976329553471423  0.5803992877719351  1.0000
  C   C10       1.0  0.28830365254270185  0.47917069738235435  0.6233416729352522  1.0000
  C   C11       1.0  0.23290490785007495  0.43330406595645665  0.5400772585932077  1.0000
  C   C12       1.0  0.1575387428970077  0.4142885913219785  0.5844205270229001  1.0000
  N   N2        1.0  0.0969496833911523  0.3990014286162739  0.6200694643180613  1.0000
  C   C13       1.0  0.25098717672260773  0.4059851346069205  0.4135754676893446  1.0000
  C   C14       1.0  0.3241638478899366  0.4244622505193827  0.3703771986665503  1.0000
  H   H1        1.0  0.6617629063501745  0.5423254128483355  0.2862250219637277  1.0000
  H   H2        1.0  0.5531811980182961  0.6049050116831155  0.13983120891028863  1.0000
  H   H3        1.0  0.4241437385316081  0.5739306700133402  0.21492029459919945  1.0000
  H   H4        1.0  0.5117455551144448  0.4113068878821146  0.5882811379264419  1.0000
  H   H5        1.0  0.4032200615795336  0.5347931429614525  0.6459738945264446  1.0000
  H   H6        1.0  0.2748698536319195  0.5009881601321012  0.7213509012249019  1.0000
  H   H7        1.0  0.2085836786764139  0.370092095680099  0.3484138829319785  1.0000
  H   H8        1.0  0.33706899356347214  0.4011091740278636  0.27267121682376055  1.0000
  C   C15       1.0  0.9022113129007553  0.021669344290547118  0.6107397032262407  1.0000
  C   C16       1.0  0.9077804109668931  0.03115759805156726  0.474610033446637  1.0000
  C   C17       1.0  0.9106743107529814  0.9188245935083302  0.40564463298248876  1.0000
  C   C18       1.0  0.90792353854208  0.7958668335440575  0.4746345045250684  1.0000
  C   C19       1.0  0.9023528981305865  0.7843868988720757  0.6107639324274912  1.0000
  C   C20       1.0  0.899528392534262  0.8978447153297465  0.6780543046589693  1.0000
  C   C21       1.0  0.9165663963858769  0.9299156994193644  0.2616326416645227  1.0000
  C   C22       1.0  0.9646363465402447  0.846104018268755  0.1999878788245519  1.0000
  C   C23       1.0  0.9701063940072963  0.8567565600705881  0.064428957207467  1.0000
  C   C24       1.0  0.9277248983974781  0.9509200552928819  0.988880887167069  1.0000
  I   I1        1.0  0.9360895473455623  0.9666656352663925  0.7844125575595043  1.0000
  C   C25       1.0  0.8797927751703661  0.03463506932418614  0.04901346763802805  1.0000
  C   C26       1.0  0.8741721852131585  0.024410998397119462  0.1845466495471988  1.0000
  H   H9        1.0  0.9000551066233397  0.3455083143198534  0.6626056419684745  1.0000
  H   H10       1.0  0.9109170122311043  0.12611853831187791  0.4220689522068994  1.0000
  H   H11       1.0  0.9091002158976255  0.7090246948718709  0.4217589508853601  1.0000
  H   H12       1.0  0.8952314059319653  0.8897567448373853  0.7830719946188714  1.0000
  H   H13       1.0  0.900263577996133  0.45255790523676165  0.662641140664964  1.0000
  H   H14       1.0  0.9986943481091546  0.77351491440014  0.2566979452915026  1.0000
  H   H15       1.0  0.007442924017639239  0.791990727979245  0.018219916115101546  1.0000
  H   H16       1.0  0.8467286812633514  0.10744327605633819  0.990787831649507  1.0000
  H   H17       1.0  0.8359785441590485  0.08921555689555993  0.22892425428370244  1.0000
  C   C27       1.0  0.9022642708799528  0.40314759461545324  0.22938056552705466  1.0000
  C   C28       1.0  0.9786185663737599  0.43595431227770187  0.2293804299017017  1.0000
  C   C29       1.0  0.017327051828565088  0.4524566882716898  0.1122519924606471  1.0000
  C   C30       1.0  0.9786546153596574  0.4357127032798182  0.9941145809353674  1.0000
  C   C31       1.0  0.9022999535284862  0.4029087167014911  0.9921230390686614  1.0000
  C   C32       1.0  0.8645326371503431  0.3868092106684861  0.11025949187217375  1.0000
  C   C33       1.0  0.09810502963804946  0.48716300287591324  0.11330536709221684  1.0000
  C   C34       1.0  0.14840598944858696  0.42758743169184443  0.03241918821445821  1.0000
  C   C35       1.0  0.22441951305579308  0.46040153580681475  0.03363011320207553  1.0000
  C   C36       1.0  0.2510580547032706  0.552879823517747  0.1152993849590622  1.0000
  F   F1        1.0  0.32478487469393924  0.5845569127959775  0.11626046597382578  1.0000
  C   C37       1.0  0.20168636291935926  0.6127001137331973  0.19597774517811056  1.0000
  C   C38       1.0  0.12562947115153733  0.5801763621014082  0.19520627780638033  1.0000
  H   H18       1.0  0.8731596326234484  0.3907032109395968  0.5568292690686436  1.0000
  H   H19       1.0  0.008428094039620635  0.44700144757420784  0.32083760228939173  1.0000
  H   H20       1.0  0.007970275995416998  0.45006849433194057  0.9034283677715798  1.0000
  H   H21       1.0  0.805628705294644  0.36150148044521124  0.10949140334450447  1.0000
  H   H22       1.0  0.8732120179548112  0.3903514925155233  0.663915485225727  1.0000
  H   H23       1.0  0.1291560218973531  0.35448000111892464  0.9695573537262736  1.0000
  H   H24       1.0  0.2626902949613361  0.41375837340932226  0.971359961489742  1.0000
  H   H25       1.0  0.2222586646357765  0.6846253881205158  0.25901491829022216  1.0000
  H   H26       1.0  0.08819003746083087  0.6289271011391687  0.25732890661058566  1.0000
  Zn  Zn1       1.0  0.8199631383852215  0.40473453061937237  0.6068111786317225  1.0000
  Zn  Zn2       1.0  0.9845938884835328  0.4013212630116316  0.614691491841775  1.0000
  C   C39       1.0  0.9022905677995036  0.3977802611926269  0.8479481405660894  1.0000
  C   C40       1.0  0.902268257142082  0.4082771337232005  0.3735547434794142  1.0000
  C   C41       1.0  0.9023220339483022  0.6402187676646851  0.6055839450135284  1.0000
  C   C42       1.0  0.9022367345298957  0.16583706811258644  0.6159190055325099  1.0000
  O   O1        1.0  0.9647461055982114  0.4086976709727795  0.42493145226241763  1.0000
  O   O2        1.0  0.9647636491723728  0.3947681532141982  0.8025520332920728  1.0000
  O   O3        1.0  0.9647882163353768  0.5905403302822714  0.6068411903448772  1.0000
  O   O4        1.0  0.9647214822550539  0.21292550439002178  0.6206421951456298  1.0000
  O   O5        1.0  0.8398354884333051  0.5931302904071791  0.600860472631872  1.0000
  O   O6        1.0  0.839810921553293  0.39735967364385893  0.7965712463825381  1.0000
  O   O7        1.0  0.8397933779476586  0.4112891466351414  0.41894910394363033  1.0000
  O   O8        1.0  0.8397687546042591  0.21551697073326487  0.6146599441948315  1.0000
