data_image0
_chemical_formula_structural       NC6NCNCH5C7NH3C6SCH6Zn2C4O8
_chemical_formula_sum              "N4 C26 H14 S1 Zn2 O8"
_cell_length_a       14.933214217465613
_cell_length_b       9.275154477615127
_cell_length_c       10.302812801239593
_cell_angle_alpha    85.78691219350036
_cell_angle_beta     89.96595459003231
_cell_angle_gamma    89.46799387830556

_space_group_name_H-M_alt    "P 1"
_space_group_IT_number       1

loop_
  _space_group_symop_operation_xyz
  'x, y, z'

loop_
  _atom_site_type_symbol
  _atom_site_label
  _atom_site_symmetry_multiplicity
  _atom_site_fract_x
  _atom_site_fract_y
  _atom_site_fract_z
  _atom_site_occupancy
  N   N1        1.0  0.8335432722319854  0.5787539322873432  0.5728060847645631  1.0000
  C   C1        1.0  0.7560468942185804  0.5797504181030291  0.5719175350903976  1.0000
  C   C2        1.0  0.6596408259029746  0.5809927813677265  0.5708096229920359  1.0000
  C   C3        1.0  0.6124042623589986  0.48524864724057193  0.6562004280739475  1.0000
  C   C4        1.0  0.5188641904792471  0.4863313070643838  0.655234868682506  1.0000
  C   C5        1.0  0.4716586649788455  0.5831032444153572  0.5689274352790452  1.0000
  C   C6        1.0  0.37509608167791714  0.58099493761674  0.5708077655737369  1.0000
  N   N2        1.0  0.297621238286693  0.5792361439616673  0.5723760403345868  1.0000
  C   C7        1.0  0.5189865717670133  0.6800563658771559  0.4824584924833802  1.0000
  N   N3        1.0  0.4730573546677132  0.7806395843952251  0.39275212374538043  1.0000
  C   C8        1.0  0.6130129321658688  0.6780077637242846  0.48428567298272523  1.0000
  H   H1        1.0  0.6478653130741581  0.409760836499401  0.7235252964878589  1.0000
  H   H2        1.0  0.483240336628032  0.4114785115499906  0.7219932744313486  1.0000
  H   H3        1.0  0.5089767657369695  0.851681118993289  0.3293926563297112  1.0000
  H   H4        1.0  0.40328302043815734  0.7859914694502756  0.3879790311606342  1.0000
  H   H5        1.0  0.6497658464132425  0.7521074169586186  0.41819882024580807  1.0000
  C   C9        1.0  0.06817783084388987  0.15560842043829726  0.5710863367528984  1.0000
  C   C10       1.0  0.04359814880121162  0.23876196681752648  0.4566408779776386  1.0000
  C   C11       1.0  0.011734743982547926  0.17269043570797862  0.3482657212593195  1.0000
  C   C12       1.0  0.003926375742627551  0.022561798001891068  0.35305980926910735  1.0000
  C   C13       1.0  0.029336010115549985  0.9382014389101041  0.4648952867785632  1.0000
  C   C14       1.0  0.06299531195099652  0.0023705538790079737  0.5741070386006935  1.0000
  C   C15       1.0  0.9859637125066478  0.2594245565868443  0.2324417256612963  1.0000
  N   N4        1.0  0.9652509516365126  0.32914289116044526  0.13934890074308418  1.0000
  H   H6        1.0  0.08554075866439681  0.23229751844289792  0.8897480549594823  1.0000
  H   H7        1.0  0.9789602017877634  0.9704092823608544  0.2697671369502626  1.0000
  H   H8        1.0  0.07848625652650815  0.7036164038550276  0.7876158798946646  1.0000
  C   C16       1.0  0.065586595765893  0.5789894837834629  0.19134820769045224  1.0000
  C   C17       1.0  0.03450719938345938  0.7227373702607387  0.18069181530871936  1.0000
  C   C18       1.0  0.018813513990953986  0.7940488886461177  0.058413400986451654  1.0000
  C   C19       1.0  0.034507119580710316  0.7227372188296725  0.9455406451543742  1.0000
  C   C20       1.0  0.06558653774181787  0.5789894740069266  0.9538451113391502  1.0000
  C   C21       1.0  0.08094685091847253  0.5078053710105892  0.07729144143358702  1.0000
  S   S1        1.0  0.9792882465501591  0.977815011749806  0.04629334890887483  1.0000
  C   C22       1.0  0.8618074734809675  0.9273192414709943  0.04973493150337994  1.0000
  H   H9        1.0  0.02216123786638847  0.7798344397457964  0.2670257095710433  1.0000
  H   H10       1.0  0.022161059855371878  0.7798342318713634  0.8516753960141835  1.0000
  H   H11       1.0  0.10490358719279769  0.396916679782717  0.08460475126071287  1.0000
  H   H12       1.0  0.8463211135601488  0.8631635996306566  0.9658745187383806  1.0000
  H   H13       1.0  0.8463214881678089  0.8631650571117142  0.14210921561435774  1.0000
  H   H14       1.0  0.8197539334517835  0.026791353941070923  0.04319183059289622  1.0000
  Zn  Zn1       1.0  0.9674661728827378  0.5788892195377027  0.572689474524914  1.0000
  Zn  Zn2       1.0  0.1636983953645893  0.5790890287786546  0.5725032699035106  1.0000
  C   C23       1.0  0.06561970701924413  0.57324577438209  0.8096963952054249  1.0000
  C   C24       1.0  0.06554699294387722  0.584734295272223  0.3354964811053343  1.0000
  C   C25       1.0  0.06397030558620465  0.8423144622200525  0.5683624967482404  1.0000
  C   C26       1.0  0.06719633801839175  0.31566387515568395  0.5768304426634883  1.0000
  O   O1        1.0  0.14000284613121017  0.5867318430831341  0.38380327235243095  1.0000
  O   O2        1.0  0.14009957684805285  0.5713987894974413  0.7612479013511728  1.0000
  O   O3        1.0  0.1387666604520852  0.7886751567423804  0.5663690771700884  1.0000
  O   O4        1.0  0.14133569550329594  0.36945548608379664  0.5786819992899351  1.0000
  O   O5        1.0  0.9898288057795955  0.7885227621659452  0.5665107451952087  1.0000
  O   O6        1.0  0.9911617115696512  0.5712481271329666  0.761389506332043  1.0000
  O   O7        1.0  0.991064981219977  0.5865811304766704  0.38394331624649497  1.0000
  O   O8        1.0  0.9923978306515082  0.3693047631651156  0.5788221404842989  1.0000
