data_image0
_chemical_formula_structural       NC9NC5H8C8NH7C6NO2H3Zn2C4O8
_chemical_formula_sum              "N4 C32 H18 O10 Zn2"
_cell_length_a       17.807436237873137
_cell_length_b       9.27426342843186
_cell_length_c       9.273395971720356
_cell_angle_alpha    84.92461197253164
_cell_angle_beta     89.26497821809997
_cell_angle_gamma    89.00683889979415

_space_group_name_H-M_alt    "P 1"
_space_group_IT_number       1

loop_
  _space_group_symop_operation_xyz
  'x, y, z'

loop_
  _atom_site_type_symbol
  _atom_site_label
  _atom_site_symmetry_multiplicity
  _atom_site_fract_x
  _atom_site_fract_y
  _atom_site_fract_z
  _atom_site_occupancy
  N   N1        1.0  0.7177727285012858  0.5576098849662423  0.3948030709257484  1.0000
  C   C1        1.0  0.6569789538185699  0.5186636991096746  0.3825796429482189  1.0000
  C   C2        1.0  0.5813581799789985  0.470218933079657  0.3673750257014714  1.0000
  C   C3        1.0  0.562946253968235  0.39213597086316093  0.2507123629281145  1.0000
  C   C4        1.0  0.48952179443212684  0.34497699146562355  0.23585790449759966  1.0000
  C   C5        1.0  0.4334582278973045  0.3754821513895301  0.337630369655997  1.0000
  C   C6        1.0  0.3554275736793974  0.3254909526884202  0.3219350628829345  1.0000
  C   C7        1.0  0.2937300009456611  0.4159707063411293  0.35069731151950045  1.0000
  C   C8        1.0  0.22016195484799636  0.36858612101758914  0.3358582421649632  1.0000
  C   C9        1.0  0.1574306348715487  0.46205006702043644  0.3650226300388042  1.0000
  N   N2        1.0  0.10700760635161118  0.5371886007551596  0.3884699954850781  1.0000
  C   C10       1.0  0.20770635880960736  0.23043562160106681  0.2922289735198864  1.0000
  C   C11       1.0  0.2685464853395499  0.13994058377358498  0.2634574108107093  1.0000
  C   C12       1.0  0.341992880732038  0.18688942418480986  0.2780716796030458  1.0000
  C   C13       1.0  0.4525643794729721  0.4541115087119501  0.4545362990395161  1.0000
  C   C14       1.0  0.5260407083774004  0.5010608795944549  0.4692178979362174  1.0000
  H   H1        1.0  0.6052861254897757  0.36799832616285455  0.1710130427735903  1.0000
  H   H2        1.0  0.4763730516122324  0.2863286437435817  0.14372730568609637  1.0000
  H   H3        1.0  0.3028006654096332  0.5238589771627539  0.3827117416658026  1.0000
  H   H4        1.0  0.1510417709816253  0.19276549175954713  0.2804814605420667  1.0000
  H   H5        1.0  0.25878401198811407  0.032976809734547544  0.2301078172450883  1.0000
  H   H6        1.0  0.38824655118740237  0.11410830743537793  0.25695502829172057  1.0000
  H   H7        1.0  0.41093649253796893  0.4776356386291912  0.5356751244219522  1.0000
  H   H8        1.0  0.5397266441904981  0.5610765762270586  0.5601894896622313  1.0000
  C   C15       1.0  0.9100167273771739  0.12393712609305485  0.39198196474826363  1.0000
  C   C16       1.0  0.9004510863060021  0.20917887077016203  0.2602004017221349  1.0000
  C   C17       1.0  0.8982506780858283  0.1457506531102331  0.1294933274211416  1.0000
  C   C18       1.0  0.9061720129837295  0.9955745648150495  0.12732487167850515  1.0000
  C   C19       1.0  0.9137229655032921  0.9089431752792206  0.25825426386927886  1.0000
  C   C20       1.0  0.9147707101802055  0.9708498347690557  0.3913035465457946  1.0000
  C   C21       1.0  0.9026789940386315  0.9272434689838938  0.9865249741384267  1.0000
  C   C22       1.0  0.82478690701823  0.8927293734546898  0.9557071458947793  1.0000
  N   N3        1.0  0.7633083333878943  0.8654866884970952  0.9313928379961887  1.0000
  H   H9        1.0  0.9744726220499584  0.19534047688949027  0.7237691695497919  1.0000
  H   H10       1.0  0.8963017753330018  0.3260401984098573  0.2579034637611617  1.0000
  H   H11       1.0  0.8910695362074929  0.21410185376771762  0.029563557869632055  1.0000
  H   H12       1.0  0.9169679727785779  0.7923032543903522  0.25629985861921756  1.0000
  H   H13       1.0  0.9552416679113337  0.668867007173367  0.616689793027958  1.0000
  H   H14       1.0  0.9373729477042609  0.8262495227143211  0.9915472935352203  1.0000
  H   H15       1.0  0.9249558972159515  0.0018274930464439126  0.8963219665290518  1.0000
  C   C23       1.0  0.9128459871812181  0.5518010201943166  0.9676955291340414  1.0000
  C   C24       1.0  0.8460901690715744  0.5882269825405277  0.03934501426683879  1.0000
  C   C25       1.0  0.7790475848422601  0.6110287952366975  0.9639927201118978  1.0000
  C   C26       1.0  0.7768579379113834  0.5978918198047779  0.8147431114873966  1.0000
  C   C27       1.0  0.8435874903775608  0.5639388519050255  0.7416546220393623  1.0000
  C   C28       1.0  0.9119414252789074  0.5429858935651848  0.8155899842416949  1.0000
  N   N4        1.0  0.7073378380812931  0.6203429109047265  0.7377233842026678  1.0000
  O   O1        1.0  0.642242221246272  0.6547578466294655  0.8095351161131443  1.0000
  O   O2        1.0  0.704879236621919  0.6085845029722464  0.6047762792978957  1.0000
  H   H16       1.0  0.0762836385099428  0.38163021992885093  0.0815729400771299  1.0000
  H   H17       1.0  0.7286357531833526  0.637592018254886  0.023178954204664315  1.0000
  H   H18       1.0  0.02340820690282586  0.432559412427284  0.5424013013388875  1.0000
  Zn  Zn1       1.0  0.8300974746140053  0.5517128089018357  0.39298383457989505  1.0000
  Zn  Zn2       1.0  0.9946827633979912  0.5430737988222942  0.3903011098598481  1.0000
  C   C29       1.0  0.9120784995750317  0.5389075170772584  0.6553243870704792  1.0000
  C   C30       1.0  0.9127035457653266  0.5558808143154885  0.12796066831402353  1.0000
  C   C31       1.0  0.9138743735131979  0.8108252829331701  0.38567886940720175  1.0000
  C   C32       1.0  0.9109076058584429  0.2839613180888787  0.3976062652494454  1.0000
  O   O3        1.0  0.9751149651612302  0.5539652801011201  0.18072903805245244  1.0000
  O   O4        1.0  0.9745835004586964  0.534265158997215  0.6005194766305759  1.0000
  O   O5        1.0  0.9760328477935635  0.7538422223839287  0.3827788258539824  1.0000
  O   O6        1.0  0.9736655618379352  0.3343882311033106  0.39846958149005784  1.0000
  O   O7        1.0  0.8511146200091967  0.7603983795705382  0.38481536385757265  1.0000
  O   O8        1.0  0.8496652824781826  0.5408230495042419  0.6025559362699096  1.0000
  O   O9        1.0  0.8501967488002818  0.5605231383999477  0.18276376200645061  1.0000
  O   O10       1.0  0.8487473453005501  0.3409460779629531  0.40050441369093215  1.0000
