data_image0
_chemical_formula_structural       NC12NC2H8C6BrH5C9H8Zn2C4O8
_chemical_formula_sum              "N2 C33 H21 Br1 Zn2 O8"
_cell_length_a       19.240039667572717
_cell_length_b       9.276564384272257
_cell_length_c       9.275155815604963
_cell_angle_alpha    86.0004437210585
_cell_angle_beta     90.35749810205114
_cell_angle_gamma    90.58593109150864

_space_group_name_H-M_alt    "P 1"
_space_group_IT_number       1

loop_
  _space_group_symop_operation_xyz
  'x, y, z'

loop_
  _atom_site_type_symbol
  _atom_site_label
  _atom_site_symmetry_multiplicity
  _atom_site_fract_x
  _atom_site_fract_y
  _atom_site_fract_z
  _atom_site_occupancy
  N   N1        1.0  0.6574053353228129  0.5645260607897626  0.40892467206743865  1.0000
  C   C1        1.0  0.5972569666877319  0.5645261532614783  0.4089245810609197  1.0000
  C   C2        1.0  0.5224389297235921  0.5645262821863117  0.4089244285792912  1.0000
  C   C3        1.0  0.4859625080189284  0.4939303791391543  0.5237453640523635  1.0000
  C   C4        1.0  0.4132914461042139  0.49380808119558334  0.52384150566204  1.0000
  C   C5        1.0  0.37610669452206963  0.5645263827982825  0.4089241758233826  1.0000
  C   C6        1.0  0.4132976230089216  0.6352448938907067  0.294007061708661  1.0000
  C   C7        1.0  0.4859679967838959  0.6351223356146063  0.29410333947794776  1.0000
  C   C8        1.0  0.2989016033289945  0.5645262945408105  0.4089240700062903  1.0000
  C   C9        1.0  0.2612357391455691  0.43915959450660536  0.455492955482259  1.0000
  C   C10       1.0  0.18856532659959369  0.4392774262022836  0.4553915095079968  1.0000
  C   C11       1.0  0.1525693159051184  0.5645261516868563  0.40892413771889524  1.0000
  C   C12       1.0  0.07775127896948268  0.564526027759052  0.4089244137754959  1.0000
  N   N2        1.0  0.0176029625995116  0.5645259844177355  0.40892464510780635  1.0000
  C   C13       1.0  0.1895208163031627  0.6897749608665875  0.3624567071651874  1.0000
  C   C14       1.0  0.2621917887944686  0.6898929910189464  0.3623550805871236  1.0000
  H   H1        1.0  0.5136775703720762  0.43927996181830814  0.6133939067355029  1.0000
  H   H2        1.0  0.3862064791906225  0.4400545186232984  0.614727271113122  1.0000
  H   H3        1.0  0.3861960591102945  0.68899848601697  0.2031212398035776  1.0000
  H   H4        1.0  0.5136827062787689  0.6897726442354322  0.20445510295212155  1.0000
  H   H5        1.0  0.2879466383071465  0.34045768889367123  0.49016213790900354  1.0000
  H   H6        1.0  0.1604765258722348  0.34158384469598313  0.49120622366087185  1.0000
  H   H7        1.0  0.1621797934977146  0.7874685152657093  0.32664200918198616  1.0000
  H   H8        1.0  0.2896673687318193  0.7885949841233413  0.3276858484031375  1.0000
  C   C15       1.0  0.8354145797358318  0.14104824682882366  0.4092931896382008  1.0000
  C   C16       1.0  0.8261057531368229  0.2234130383758581  0.27756788361173523  1.0000
  C   C17       1.0  0.8232690217186713  0.1573002682739948  0.14707295650126875  1.0000
  C   C18       1.0  0.8297181135061747  0.00788236312233526  0.14582550593475618  1.0000
  C   C19       1.0  0.8377964369807871  0.9238070871414973  0.27555890311616515  1.0000
  C   C20       1.0  0.8396003778770758  0.9879928074883274  0.4085685136749066  1.0000
  Br  Br1       1.0  0.8263467436509863  0.9179824001678425  0.9667636656872931  1.0000
  H   H9        1.0  0.8157485171889584  0.4056186821849191  0.6436046582187389  1.0000
  H   H10       1.0  0.8226682903538755  0.3400481809872733  0.27510052141240693  1.0000
  H   H11       1.0  0.8167169851069946  0.2226558753031553  0.046682137361330436  1.0000
  H   H12       1.0  0.8410027751035615  0.8075403424695058  0.2724516128269734  1.0000
  H   H13       1.0  0.8786265183988884  0.6919934040765177  0.6330375187360415  1.0000
  C   C21       1.0  0.8362160026736238  0.5608754346243272  0.9857027599706406  1.0000
  C   C22       1.0  0.7821915187648794  0.6311426988145821  0.05345752092610947  1.0000
  C   C23       1.0  0.7328697492820003  0.710994056708568  0.9721044407958539  1.0000
  C   C24       1.0  0.7366587366136842  0.722250250418162  0.8215130120411898  1.0000
  C   C25       1.0  0.789280746467502  0.6512081843608128  0.7520505494564129  1.0000
  C   C26       1.0  0.8387989375184193  0.5681656040226815  0.8321589477064508  1.0000
  C   C27       1.0  0.6859486888066821  0.8054707114901096  0.737844431222566  1.0000
  C   C28       1.0  0.6434881769924621  0.8751564827811182  0.6677567711602963  1.0000
  C   C29       1.0  0.591969984776529  0.9597083837231324  0.5827057695722369  1.0000
  H   H14       1.0  0.9969646210903047  0.44452625110351635  0.09876012582234295  1.0000
  H   H15       1.0  0.7790491989957352  0.6271452303448819  0.17025247975674018  1.0000
  H   H16       1.0  0.6921225903174756  0.7651960771748345  0.02687110387845437  1.0000
  H   H17       1.0  0.790598442926193  0.6579892897136073  0.6348984515349776  1.0000
  H   H18       1.0  0.9460276446740282  0.48465371480568753  0.5586479926945089  1.0000
  H   H19       1.0  0.6061140667391206  0.9638517421143034  0.4667032341697359  1.0000
  H   H20       1.0  0.5399515455524067  0.9083561476220616  0.5977759958512736  1.0000
  H   H21       1.0  0.5907613340566851  0.07106030136166241  0.619115226024848  1.0000
  Zn  Zn1       1.0  0.7613506053605561  0.5645222602905176  0.4089329779398685  1.0000
  Zn  Zn2       1.0  0.9136576890888998  0.564518123059434  0.4089281115388947  1.0000
  C   C30       1.0  0.8382807749222446  0.5610427101880144  0.6721655538845928  1.0000
  C   C31       1.0  0.8367291921401097  0.5679994938831574  0.14569567544148132  1.0000
  C   C32       1.0  0.8387880677594436  0.8278528159767358  0.40296233136660686  1.0000
  C   C33       1.0  0.8362218390027923  0.3011876561739377  0.4148989762817784  1.0000
  O   O1        1.0  0.8947011366397962  0.5703825318665239  0.19938891803574288  1.0000
  O   O2        1.0  0.8959063761837008  0.5586554406700299  0.618468203855854  1.0000
  O   O3        1.0  0.8963152469700835  0.7741079882967898  0.4010846957571115  1.0000
  O   O4        1.0  0.8942922136025557  0.3549299936264767  0.41677231806477033  1.0000
  O   O5        1.0  0.7807160288719522  0.7741103897263915  0.4010887714080712  1.0000
  O   O6        1.0  0.78030716641074  0.5586595740230456  0.6184722011785806  1.0000
  O   O7        1.0  0.779101921377144  0.5703866000428303  0.19939118262082833  1.0000
  O   O8        1.0  0.7786929986158134  0.35493405241898657  0.41677469071365003  1.0000
