data_image0
_chemical_formula_structural       NC12NC2H8C6NCOC6H11C7OC4NC2H9Zn2C4O8
_chemical_formula_sum              "N4 C44 H28 O10 Zn2"
_cell_length_a       19.240039667572717
_cell_length_b       10.29965916528486
_cell_length_c       10.29937507404574
_cell_angle_alpha    85.55751919023885
_cell_angle_beta     89.99323599274587
_cell_angle_gamma    90.0154664442568

_space_group_name_H-M_alt    "P 1"
_space_group_IT_number       1

loop_
  _space_group_symop_operation_xyz
  'x, y, z'

loop_
  _atom_site_type_symbol
  _atom_site_label
  _atom_site_symmetry_multiplicity
  _atom_site_fract_x
  _atom_site_fract_y
  _atom_site_fract_z
  _atom_site_occupancy
  N   N1        1.0  0.6547730794000635  0.42179003614657495  0.5678904983501887  1.0000
  C   C1        1.0  0.5946247106000987  0.4217901201572853  0.5678904164393699  1.0000
  C   C2        1.0  0.5198066734845654  0.4217902374928761  0.5678902791701147  1.0000
  C   C3        1.0  0.483317105009801  0.3572868035429313  0.6712840658303877  1.0000
  C   C4        1.0  0.41064633541555745  0.3571758916382275  0.6713705725003654  1.0000
  C   C5        1.0  0.37347443857500856  0.4217903301431245  0.5678900515109357  1.0000
  C   C6        1.0  0.4106782201363854  0.48640495555567864  0.4644097251378847  1.0000
  C   C7        1.0  0.4833488870640911  0.48629380810989953  0.46449635422999247  1.0000
  C   C8        1.0  0.2962693481300512  0.42179025152026317  0.5678899560628676  1.0000
  C   C9        1.0  0.2590625268590825  0.3085159758402809  0.6097219942682877  1.0000
  C   C10       1.0  0.1863918596961741  0.3086229086456734  0.6096307029643058  1.0000
  C   C11       1.0  0.14993706118433867  0.42179012232695556  0.5678900169296288  1.0000
  C   C12       1.0  0.07511902399722518  0.42179000849136594  0.5678902655610791  1.0000
  N   N2        1.0  0.0149707071260455  0.42178996758886095  0.5678904739753778  1.0000
  C   C13       1.0  0.18642977354341705  0.534957411854416  0.5261492780289592  1.0000
  C   C14       1.0  0.25910049101883137  0.5350645248390147  0.5260578241875247  1.0000
  H   H1        1.0  0.5110196531509241  0.3073465823270811  0.7520111486597372  1.0000
  H   H2        1.0  0.38354075558398476  0.30803330979214405  0.7532134997951347  1.0000
  H   H3        1.0  0.3835972691869543  0.5355475644730754  0.3825667470020495  1.0000
  H   H4        1.0  0.5110761103541207  0.536233928959766  0.38376954717279355  1.0000
  H   H5        1.0  0.2861409490545272  0.2193506460001733  0.6408590556675078  1.0000
  H   H6        1.0  0.1586622293134547  0.22035634251636635  0.6418011012467193  1.0000
  H   H7        1.0  0.15872958047388117  0.6232239534418402  0.49397889428884617  1.0000
  H   H8        1.0  0.28620854765486786  0.6242299338711235  0.49492071804311755  1.0000
  C   C15       1.0  0.834814102879024  0.04042936961930964  0.5677749870572123  1.0000
  C   C16       1.0  0.8352950757242059  0.049762291068044195  0.4309546101614868  1.0000
  C   C17       1.0  0.8365622488772161  0.9376278804802144  0.36211680902765764  1.0000
  C   C18       1.0  0.8354260090478933  0.8145718856509395  0.43125100393857624  1.0000
  C   C19       1.0  0.8349363438125205  0.8031406264062791  0.5680171554949542  1.0000
  C   C20       1.0  0.8348777236426449  0.9166775220568442  0.6355071840563624  1.0000
  N   N3        1.0  0.8359862683341484  0.9507538881571103  0.2220461899486914  1.0000
  C   C21       1.0  0.8685705129160975  0.859655310626034  0.14231751988291297  1.0000
  O   O1        1.0  0.9165138318095175  0.786818799869543  0.18929705753820691  1.0000
  C   C22       1.0  0.8483772552115247  0.8535113006990918  0.003946868299987248  1.0000
  C   C23       1.0  0.7841124803037649  0.9033862277535912  0.9575996305183656  1.0000
  C   C24       1.0  0.7654965437894901  0.8964224950119823  0.8270728377408338  1.0000
  C   C25       1.0  0.8104980654340833  0.8393680086811461  0.7416134885524222  1.0000
  C   C26       1.0  0.8741510975690445  0.788706083926133  0.7865844633955447  1.0000
  C   C27       1.0  0.8930323717785822  0.7953135238444926  0.9170067782264569  1.0000
  H   H9        1.0  0.8332434549921319  0.23008833830089293  0.8258620765641914  1.0000
  H   H10       1.0  0.8352184910871091  0.1443920639820795  0.3771299161960442  1.0000
  H   H11       1.0  0.833703292078701  0.7278013694313404  0.3784440030529251  1.0000
  H   H12       1.0  0.8345162413625381  0.9086175048161658  0.7409802549453621  1.0000
  H   H13       1.0  0.8338238455161151  0.47130651400241347  0.620480296749982  1.0000
  H   H14       1.0  0.816158192171226  0.03690430652806632  0.17610432233402817  1.0000
  H   H15       1.0  0.7476876286661795  0.946058514915795  0.022084013954262186  1.0000
  H   H16       1.0  0.7159663093504794  0.9348690559649181  0.7922860124239107  1.0000
  H   H17       1.0  0.7959493733003288  0.834049128447245  0.6406528312631457  1.0000
  H   H18       1.0  0.9089316013474785  0.7442386940716068  0.7203363057209486  1.0000
  H   H19       1.0  0.9427367911201666  0.7556816874874764  0.9495748258554083  1.0000
  C   C28       1.0  0.834898877484377  0.42192736736685016  0.1865093671155398  1.0000
  C   C29       1.0  0.8884125411437818  0.5150360635147133  0.17809542015734015  1.0000
  C   C30       1.0  0.9148635722818429  0.563077713552746  0.05659457005169056  1.0000
  C   C31       1.0  0.888299973045444  0.5147983335619946  0.9428700284783452  1.0000
  C   C32       1.0  0.8348515576625865  0.42164268984166986  0.9492828327946575  1.0000
  C   C33       1.0  0.8083357052124025  0.3759975405039071  0.0715807179468062  1.0000
  C   C34       1.0  0.9718692061767016  0.6603942365492126  0.04764791390664813  1.0000
  O   O2        1.0  0.016283593649889738  0.6557093243269125  0.958011482934254  1.0000
  C   C35       1.0  0.9784791695199433  0.76303727624739  0.1403070053795017  1.0000
  C   C36       1.0  0.044579642196640235  0.8095971725164246  0.17207833649657278  1.0000
  C   C37       1.0  0.05133031663420762  0.907606638974167  0.25832619062177686  1.0000
  C   C38       1.0  0.11921038822201593  0.9539572117783918  0.2911285639561294  1.0000
  N   N4        1.0  0.17377831758175177  0.9912122335368697  0.3174942134776373  1.0000
  C   C39       1.0  0.9919871554693868  0.9604564556094182  0.3125364127970598  1.0000
  C   C40       1.0  0.9261185407217669  0.9159081614087705  0.2802647671454395  1.0000
  H   H20       1.0  0.7346430014896168  0.24475674833853064  0.4098218933857556  1.0000
  H   H21       1.0  0.9101166079125264  0.5492365532792005  0.2662895266410541  1.0000
  H   H22       1.0  0.9089936086933618  0.5510333222481321  0.8491363704898377  1.0000
  H   H23       1.0  0.7670808115313019  0.30421686976858986  0.07726343723997564  1.0000
  H   H24       1.0  0.8147197516868487  0.3850568200446498  0.6243511050702529  1.0000
  H   H25       1.0  0.09077844813891267  0.7688780206083468  0.13068473591419338  1.0000
  H   H26       1.0  0.9966357315491859  0.03633263382893226  0.3792396986373603  1.0000
  H   H27       1.0  0.8802661590701887  0.9576059877787595  0.3215098597635842  1.0000
  H   H28       1.0  0.8676006163723662  0.7867758893524017  0.1689792824089762  1.0000
  Zn  Zn1       1.0  0.7587183422161848  0.4217865464402184  0.5678979789905708  1.0000
  Zn  Zn2       1.0  0.9110254607258139  0.4217828600887545  0.5678935893657551  1.0000
  C   C41       1.0  0.8348581396532503  0.41652291229160615  0.8051006439639851  1.0000
  C   C42       1.0  0.8348873267324847  0.4270481327335496  0.3306910523371234  1.0000
  C   C43       1.0  0.8349099900888897  0.6589739234454919  0.5627959859852039  1.0000
  C   C44       1.0  0.8348354240706886  0.18459556128636434  0.5729957790638164  1.0000
  O   O3        1.0  0.8926832070056974  0.42875964379977316  0.37907807537464394  1.0000
  O   O4        1.0  0.8926598380481657  0.4148076238082248  0.7567099151282191  1.0000
  O   O5        1.0  0.892700928678565  0.6105898810413222  0.5610471899159373  1.0000
  O   O6        1.0  0.8926420644107229  0.23297739589430067  0.5747407032121608  1.0000
  O   O7        1.0  0.7771016865563318  0.6105920106373466  0.5610508651388324  1.0000
  O   O8        1.0  0.7770605961771456  0.4148113137002223  0.7567135215978693  1.0000
  O   O9        1.0  0.7770839652704712  0.4287632890196045  0.3790801203563565  1.0000
  O   O10       1.0  0.7770428226651278  0.2329810317891805  0.5747428455633052  1.0000
