data_image0
_chemical_formula_structural       NC6NC2H4C9H10C6NCH7Zn2C4O8
_chemical_formula_sum              "N3 C28 H21 Zn2 O8"
_cell_length_a       14.927258858638513
_cell_length_b       10.297183801781406
_cell_length_c       9.273390368590327
_cell_angle_alpha    86.14107260812962
_cell_angle_beta     89.9908392513429
_cell_angle_gamma    89.99762792032334

_space_group_name_H-M_alt    "P 1"
_space_group_IT_number       1

loop_
  _space_group_symop_operation_xyz
  'x, y, z'

loop_
  _atom_site_type_symbol
  _atom_site_label
  _atom_site_symmetry_multiplicity
  _atom_site_fract_x
  _atom_site_fract_y
  _atom_site_fract_z
  _atom_site_occupancy
  N   N1        1.0  0.8436863458045583  0.406460517838277  0.4094787270059135  1.0000
  C   C1        1.0  0.7661598546365677  0.4064604922581154  0.4094787376056479  1.0000
  C   C2        1.0  0.6697273470942917  0.4064605954613505  0.4094786877023868  1.0000
  C   C3        1.0  0.6226881952687426  0.38390765283645534  0.28282719547204116  1.0000
  C   C4        1.0  0.528976883937834  0.3839076746521099  0.28282706202709806  1.0000
  C   C5        1.0  0.48191128310529613  0.4064604357027164  0.40947870640908723  1.0000
  C   C6        1.0  0.3854787085714841  0.406460538908565  0.40947865649990134  1.0000
  N   N2        1.0  0.30795221740349354  0.4064605133284034  0.40947866709963626  1.0000
  C   C7        1.0  0.5289503679393094  0.42901337833022524  0.5361301986335085  1.0000
  C   C8        1.0  0.6226616792702183  0.4290133565145704  0.5361303320784514  1.0000
  H   H1        1.0  0.6583946801653715  0.36636019069312975  0.18428506562738933  1.0000
  H   H2        1.0  0.4932910246496935  0.3663603685875847  0.18428506060307415  1.0000
  H   H3        1.0  0.4932439500200193  0.4465608322138268  0.634672436547847  1.0000
  H   H4        1.0  0.6583475385426943  0.44656075130572914  0.6346724434665518  1.0000
  C   C9        1.0  0.07582669219049137  0.02498690111324331  0.40968292788149263  1.0000
  C   C10       1.0  0.07323003462665567  0.03339526155852913  0.2580166302575624  1.0000
  C   C11       1.0  0.07189948381023914  0.9210866231087979  0.1803135507929854  1.0000
  C   C12       1.0  0.07321959755725588  0.7982185424522177  0.2574287941458533  1.0000
  C   C13       1.0  0.07582047386218682  0.7879242375096507  0.4092869274731703  1.0000
  C   C14       1.0  0.0771061927730905  0.9017750573448413  0.4844226991537264  1.0000
  C   C15       1.0  0.06909076744109655  0.9396130534662531  0.016275740526316532  1.0000
  C   C16       1.0  0.01664310169431627  0.8401282243692921  0.9360433877133012  1.0000
  C   C17       1.0  0.11870316590092661  0.8403926098456812  0.9314647957667819  1.0000
  H   H5        1.0  0.07683577393837254  0.3492853441223396  0.46812481707727777  1.0000
  H   H6        1.0  0.07222776966505044  0.12806371793496504  0.19946507170631023  1.0000
  H   H7        1.0  0.07224299195282227  0.71007399301808  0.2005032010468928  1.0000
  H   H8        1.0  0.0791091196020095  0.894560387826285  0.6014364326541839  1.0000
  H   H9        1.0  0.08072089672407362  0.5612647441811953  0.6961041815409905  1.0000
  H   H10       1.0  0.0681888190757931  0.03982398178486623  0.9635511046133858  1.0000
  H   H11       1.0  0.986743169958632  0.7571184981551936  0.00163429725759912  1.0000
  H   H12       1.0  0.9850484168589503  0.8800251951978638  0.8340702700532194  1.0000
  H   H13       1.0  0.15079924245113452  0.7575442905260332  0.9942752089764864  1.0000
  H   H14       1.0  0.1467580972591087  0.8804417222944542  0.8268143627851052  1.0000
  C   C18       1.0  0.07586512984096871  0.40240463617713523  0.9862412730179825  1.0000
  C   C19       1.0  0.15814353764164646  0.39982351760797386  0.05984509424268558  1.0000
  C   C20       1.0  0.238986726356858  0.40931831011279407  0.9844253738299457  1.0000
  C   C21       1.0  0.23960554089496033  0.42174614504683583  0.8327909349024273  1.0000
  C   C22       1.0  0.15787318159296485  0.42213650312382206  0.758378648705464  1.0000
  C   C23       1.0  0.07578204191918281  0.41050652314405867  0.832728602510036  1.0000
  N   N3        1.0  0.32196282782667707  0.43273665841622333  0.7519969550068346  1.0000
  C   C24       1.0  0.41041266719278013  0.4328897595238914  0.818985068761906  1.0000
  H   H15       1.0  0.934468237215414  0.3400046516473898  0.2721136624422056  1.0000
  H   H16       1.0  0.3007096117964472  0.4081229643159281  0.04554699546420115  1.0000
  H   H17       1.0  0.8670100490353815  0.3095847169918835  0.7372899092628669  1.0000
  H   H18       1.0  0.31905608963281806  0.44134596386748703  0.6391166533633696  1.0000
  H   H19       1.0  0.41622594178849254  0.5162216774236592  0.8884103522382435  1.0000
  H   H20       1.0  0.4213407822475139  0.3400321889894007  0.8845872018852794  1.0000
  H   H21       1.0  0.46291164700894183  0.4427103197256441  0.7340894022134337  1.0000
  Zn  Zn1       1.0  0.977663454843762  0.40645711536721857  0.4094870396029589  1.0000
  Zn  Zn2       1.0  0.17397511817286349  0.40645338847593987  0.4094821830416906  1.0000
  C   C25       1.0  0.07579577243982488  0.4037999736419773  0.6727270650174195  1.0000
  C   C26       1.0  0.07584494426677768  0.40911217058407856  0.1462422981859226  1.0000
  C   C27       1.0  0.07581758937867306  0.6436578666368042  0.40361839235573926  1.0000
  C   C28       1.0  0.07582306034568886  0.16925271759485905  0.4153510485004053  1.0000
  O   O1        1.0  0.15033742299655156  0.41135619877178203  0.1999382637613809  1.0000
  O   O2        1.0  0.1502993038828942  0.40155213286741853  0.6190269990381865  1.0000
  O   O3        1.0  0.15031591690421964  0.5952404292407323  0.4017198411991807  1.0000
  O   O4        1.0  0.150320742997887  0.2176679106581922  0.4172453135307004  1.0000
  O   O5        1.0  0.0013177630272025438  0.5952425931875798  0.40172390910802425  1.0000
  O   O6        1.0  0.0013011499965827104  0.4015558568112714  0.619030989288303  1.0000
  O   O7        1.0  0.0013392693403238012  0.41135986086191445  0.19994052119067574  1.0000
  O   O8        1.0  0.0013225893274628733  0.2176715644912144  0.41724767902375803  1.0000
