data_image0
_chemical_formula_structural       NC12NC2H8C6NO2H5C12H16Zn2C4O8
_chemical_formula_sum              "N3 C36 H29 O10 Zn2"
_cell_length_a       17.80743265337812
_cell_length_b       9.273423624067512
_cell_length_c       10.298981074953016
_cell_angle_alpha    85.5009454596832
_cell_angle_beta     91.51542336112495
_cell_angle_gamma    90.04087344610896

_space_group_name_H-M_alt    "P 1"
_space_group_IT_number       1

loop_
  _space_group_symop_operation_xyz
  'x, y, z'

loop_
  _atom_site_type_symbol
  _atom_site_label
  _atom_site_symmetry_multiplicity
  _atom_site_fract_x
  _atom_site_fract_y
  _atom_site_fract_z
  _atom_site_occupancy
  N   N1        1.0  0.7162565998195431  0.5622249285106149  0.6001567445424751  1.0000
  C   C1        1.0  0.6656295555595073  0.5950476421318065  0.5314323032881716  1.0000
  C   C2        1.0  0.6026444830594813  0.6358767157706722  0.445947748329359  1.0000
  C   C3        1.0  0.6147236546409202  0.6958622983873217  0.31928099383775366  1.0000
  C   C4        1.0  0.5536363295731717  0.7350216284898712  0.23619370015305077  1.0000
  C   C5        1.0  0.4803172566633571  0.7144879270496798  0.2791130284843435  1.0000
  C   C6        1.0  0.4672605022157005  0.6543704451106642  0.40624803382391966  1.0000
  C   C7        1.0  0.5292051662200276  0.6152147271834512  0.48931881275703987  1.0000
  C   C8        1.0  0.3893659080636696  0.6325996248510255  0.4520286314084565  1.0000
  C   C9        1.0  0.37072304236073733  0.6628098048524325  0.5790543633191603  1.0000
  C   C10       1.0  0.2973742697246837  0.6423222830156929  0.6220142220416993  1.0000
  C   C11       1.0  0.24172369318157538  0.5913422618247226  0.5387865447785347  1.0000
  C   C12       1.0  0.16623469429368704  0.5702408860511043  0.5831478143675145  1.0000
  N   N2        1.0  0.1055468845814593  0.5532767990890113  0.6188112233816655  1.0000
  C   C13       1.0  0.2596739389434957  0.5609445358492122  0.41230393314614183  1.0000
  C   C14       1.0  0.33296999222469736  0.5814484500450763  0.36908816872624045  1.0000
  H   H1        1.0  0.6712858460044877  0.7123228618994395  0.28483111555254853  1.0000
  H   H2        1.0  0.563108489732547  0.7817669265811746  0.1383780448028105  1.0000
  H   H3        1.0  0.43387027789681654  0.7473960896105027  0.21349655302980788  1.0000
  H   H4        1.0  0.5204229683400668  0.5669307708739149  0.5870111392763531  1.0000
  H   H5        1.0  0.4126143824810665  0.7041119412733405  0.6445991402530651  1.0000
  H   H6        1.0  0.2840466123859957  0.6665972330438144  0.7200080273503385  1.0000
  H   H7        1.0  0.21707336995785684  0.5210500006700813  0.34717109697594595  1.0000
  H   H8        1.0  0.34575984270128035  0.555468023382022  0.2713989484122037  1.0000
  C   C15       1.0  0.908578871850292  0.13416971968442268  0.609807425571388  1.0000
  C   C16       1.0  0.8977058928186598  0.21828694000595575  0.49107578793476403  1.0000
  C   C17       1.0  0.8937842525399572  0.1543268078400739  0.37195388477085434  1.0000
  C   C18       1.0  0.900984343632159  0.0037093143207393934  0.3723497662556413  1.0000
  C   C19       1.0  0.9105313957035849  0.9185273128425828  0.48933731064795977  1.0000
  C   C20       1.0  0.9132317385864174  0.9813208196763685  0.6091720725424479  1.0000
  N   N3        1.0  0.8832738738868502  0.24235114091074464  0.2513259563383159  1.0000
  O   O1        1.0  0.8760660663678707  0.3901246175653188  0.2510531504319664  1.0000
  O   O2        1.0  0.8803056788418312  0.18609493837315494  0.14506181702768428  1.0000
  H   H9        1.0  0.8884899103987652  0.3958392265187356  0.8219978632996969  1.0000
  H   H10       1.0  0.894048136644406  0.33484069817910433  0.49124729609424383  1.0000
  H   H11       1.0  0.8984719565168474  0.9513123778542862  0.28204020171011446  1.0000
  H   H12       1.0  0.9140203453220253  0.8022165986547367  0.4862336635258382  1.0000
  H   H13       1.0  0.8796960319858255  0.8511600923079284  0.9222611716760587  1.0000
  C   C21       1.0  0.9109772930553743  0.5577134253718232  0.22810501353555312  1.0000
  C   C22       1.0  0.9836779268340088  0.49844127856480464  0.2344464782939515  1.0000
  C   C23       1.0  0.020535713939134892  0.4687544863419959  0.1204063159150586  1.0000
  C   C24       1.0  0.9835024958105603  0.4985060239632515  0.9991479723711213  1.0000
  C   C25       1.0  0.9108332945855592  0.5577770216799456  0.9908744536498513  1.0000
  C   C26       1.0  0.8750216214700213  0.5871308390490069  0.10590587382238016  1.0000
  C   C27       1.0  0.09908459676617065  0.404361585176108  0.12708490053948343  1.0000
  C   C28       1.0  0.09981411232567527  0.24872619934180396  0.1943984329692523  1.0000
  C   C29       1.0  0.17669763732759503  0.20409920748170407  0.25751531882164125  1.0000
  C   C30       1.0  0.2417537008974835  0.27971514381274165  0.18541026679532635  1.0000
  C   C31       1.0  0.23687159310921535  0.445710078184798  0.18650978902222407  1.0000
  C   C32       1.0  0.15579115539576716  0.5026594676977454  0.19324606477422468  1.0000
  H   H14       1.0  0.7736133017474438  0.6690250963802122  0.4234853023744987  1.0000
  H   H15       1.0  0.011684825927806177  0.4747163178843597  0.32826877215522227  1.0000
  H   H16       1.0  0.011500980286280214  0.47535560553524125  0.9110198825529348  1.0000
  H   H17       1.0  0.8189700705030869  0.6328423692937191  0.10022634305400291  1.0000
  H   H18       1.0  0.8827632088557794  0.580174065294421  0.6602322148666039  1.0000
  H   H19       1.0  0.11855510387033474  0.3967563678306203  0.02591032571129715  1.0000
  H   H20       1.0  0.08415421171474957  0.17211960757445888  0.12037839690179353  1.0000
  H   H21       1.0  0.057134879386378845  0.23631106441135707  0.27129916138894994  1.0000
  H   H22       1.0  0.1787870094531765  0.23236678301269875  0.36054823275847614  1.0000
  H   H23       1.0  0.18358721310043635  0.08492576945820263  0.2582265923118059  1.0000
  H   H24       1.0  0.24053429557300435  0.24933579129200778  0.08300863120199044  1.0000
  H   H25       1.0  0.2960478646930047  0.2411998459939071  0.23127067989725128  1.0000
  H   H26       1.0  0.2631932859291861  0.49553271717559605  0.09713232073582191  1.0000
  H   H27       1.0  0.27001125376166724  0.48094658916329786  0.2713843114161328  1.0000
  H   H28       1.0  0.14168470879384665  0.5082288160349855  0.29725647953416284  1.0000
  H   H29       1.0  0.15260559037028143  0.6143975518080842  0.14555097767994044  1.0000
  Zn  Zn1       1.0  0.828597347642842  0.5596388412154099  0.6055475143078332  1.0000
  Zn  Zn2       1.0  0.9932060676414262  0.5558511212625112  0.6134310559311537  1.0000
  C   C33       1.0  0.9108272946532742  0.552018742916649  0.8466989614754614  1.0000
  C   C34       1.0  0.9109779281251059  0.563472998201761  0.37227982095835244  1.0000
  C   C35       1.0  0.9123493588236291  0.8211908467433915  0.6041166068639805  1.0000
  C   C36       1.0  0.9094557982539194  0.29429916266723205  0.6148622434209412  1.0000
  O   O3        1.0  0.9734462580715043  0.5639622506165736  0.42365797106267067  1.0000
  O   O4        1.0  0.9732931684932565  0.5486536105043154  0.8013038640050494  1.0000
  O   O5        1.0  0.9745214122044877  0.766013507980057  0.6054168548900698  1.0000
  O   O6        1.0  0.9722179582655207  0.3466023647437184  0.6195448801010839  1.0000
  O   O7        1.0  0.8495854008458803  0.7688875990283353  0.599433687440804  1.0000
  O   O8        1.0  0.8483571666626131  0.5515294345545121  0.7953206260075775  1.0000
  O   O9        1.0  0.8485102563094762  0.5668380242701813  0.4176731716398019  1.0000
  O   O10       1.0  0.8472819564253771  0.3494781280885728  0.6135601780576837  1.0000
