data_image0
_chemical_formula_structural       NC8NC6H8C6SCH6C6FH3Zn2C4O8
_chemical_formula_sum              "N2 C31 H17 S1 F1 Zn2 O8"
_cell_length_a       17.457602349358154
_cell_length_b       10.302809429070853
_cell_length_c       9.275646106892307
_cell_angle_alpha    84.95236572159425
_cell_angle_beta     92.91404810424501
_cell_angle_gamma    91.68806441137123

_space_group_name_H-M_alt    "P 1"
_space_group_IT_number       1

loop_
  _space_group_symop_operation_xyz
  'x, y, z'

loop_
  _atom_site_type_symbol
  _atom_site_label
  _atom_site_symmetry_multiplicity
  _atom_site_fract_x
  _atom_site_fract_y
  _atom_site_fract_z
  _atom_site_occupancy
  N   N1        1.0  0.7221032803723474  0.4670077437307369  0.47351442533957955  1.0000
  C   C1        1.0  0.6610228643369422  0.4212097406102442  0.461716236838489  1.0000
  C   C2        1.0  0.5850362459897878  0.3642426357472617  0.44704989516610816  1.0000
  C   C3        1.0  0.5265251529207453  0.40359462639551347  0.5302903020807432  1.0000
  C   C4        1.0  0.4519767610741441  0.3487385878931081  0.5163068395389114  1.0000
  C   C5        1.0  0.3898758069522859  0.39028595417192097  0.6044615874941157  1.0000
  C   C6        1.0  0.31531608455944893  0.40934238448424004  0.5424866684317988  1.0000
  C   C7        1.0  0.2568050139369009  0.4485093570485956  0.6258470538321237  1.0000
  C   C8        1.0  0.1808066174150823  0.46819504204322193  0.5614098971163646  1.0000
  N   N2        1.0  0.11971682315458881  0.4840159534439785  0.5096025909902382  1.0000
  C   C9        1.0  0.272361622064022  0.46885755132717655  0.7717475188290126  1.0000
  C   C10       1.0  0.3461367311833116  0.45018586067124833  0.8341532099024471  1.0000
  C   C11       1.0  0.4046363040556282  0.41119401330158095  0.75130153063692  1.0000
  C   C12       1.0  0.437227772638879  0.25386860530911015  0.41749043983155265  1.0000
  C   C13       1.0  0.49572724120956063  0.214790949611797  0.3346945919351476  1.0000
  C   C14       1.0  0.5694909961669883  0.269753473508912  0.34928926228854973  1.0000
  H   H1        1.0  0.5388847907982005  0.4780562977362275  0.6043428943599638  1.0000
  H   H2        1.0  0.3029471943421141  0.3954630224227489  0.42909784704622655  1.0000
  H   H3        1.0  0.227514425359145  0.49910433787274394  0.8371369811824683  1.0000
  H   H4        1.0  0.3579918228812141  0.4656263763503114  0.9471271937299135  1.0000
  H   H5        1.0  0.4611327155476296  0.3957159211821734  0.8025437080084066  1.0000
  H   H6        1.0  0.3807406261362435  0.20866047277711708  0.40565211138607976  1.0000
  H   H7        1.0  0.4838811324629759  0.14145815399812744  0.2593101992575684  1.0000
  H   H8        1.0  0.6143383565173304  0.23863181546705814  0.284467858355024  1.0000
  C   C15       1.0  0.9209137367053813  0.09425851241738824  0.4915651133384416  1.0000
  C   C16       1.0  0.965146486428206  0.10503224748623352  0.36858137900120225  1.0000
  C   C17       1.0  0.9869446701950281  0.9934064402750288  0.3072059727420555  1.0000
  C   C18       1.0  0.9651463896718512  0.8698810861704903  0.36858129265246165  1.0000
  C   C19       1.0  0.9209137061235048  0.8567553725509538  0.49156510298582695  1.0000
  C   C20       1.0  0.8989936218965665  0.9695918518165705  0.5524268105163135  1.0000
  S   S1        1.0  0.04360012048402508  0.008666530185551745  0.15025756411103997  1.0000
  C   C21       1.0  0.9604336753464002  0.014548969604120776  0.023597275258701256  1.0000
  H   H9        1.0  0.9827152583102637  0.19987839410500638  0.31973023239620324  1.0000
  H   H10       1.0  0.9827150889796441  0.7845279944520895  0.31973010455554185  1.0000
  H   H11       1.0  0.864862412569668  0.9603751686738435  0.6472736740548934  1.0000
  H   H12       1.0  0.9252296090567816  0.9234034062890822  0.03964810288971776  1.0000
  H   H13       1.0  0.9252303274544144  0.09963840371490762  0.039647643429727264  1.0000
  H   H14       1.0  0.980220087014667  0.024430539097593625  0.9113115106303513  1.0000
  C   C22       1.0  0.9208244267348399  0.4795666721943834  0.06771653395246391  1.0000
  C   C23       1.0  0.9910735298661782  0.4961407991775563  0.1461533294979671  1.0000
  C   C24       1.0  0.06037163791245659  0.5004837222903937  0.07699714144571755  1.0000
  C   C25       1.0  0.06063767268375564  0.48819848277067224  0.9286450336678573  1.0000
  C   C26       1.0  0.9915908253160338  0.473840510835235  0.8483853979812892  1.0000
  C   C27       1.0  0.9210029816461113  0.4714472168025676  0.9154136235180772  1.0000
  F   F1        1.0  0.1275596799342398  0.51507915446782  0.15453047040094603  1.0000
  H   H15       1.0  0.7429197166149913  0.36647944681762534  0.16472247479954505  1.0000
  H   H16       1.0  0.11443904602602833  0.4910430073769698  0.8752127874904437  1.0000
  H   H17       1.0  0.8005613320210457  0.40062226823186275  0.6296363585377076  1.0000
  Zn  Zn1       1.0  0.8368459616821503  0.471912384186252  0.4839370241016441  1.0000
  Zn  Zn2       1.0  0.004974130084815401  0.47910055520831757  0.4991918090844636  1.0000
  C   C28       1.0  0.9209675424230334  0.46780976867680324  0.7551805717761992  1.0000
  C   C29       1.0  0.9208543853280714  0.4832048859787792  0.2279485696561385  1.0000
  C   C30       1.0  0.9209085471512154  0.712682146005108  0.48581308386119  1.0000
  C   C31       1.0  0.9209133232457811  0.2383309456305711  0.4973161293168153  1.0000
  O   O1        1.0  0.9846682034073965  0.4871481131762323  0.28751301597648293  1.0000
  O   O2        1.0  0.9847591138528407  0.46932122151601313  0.7071937387984837  1.0000
  O   O3        1.0  0.9847106146356699  0.6670587118944317  0.4896775084462139  1.0000
  O   O4        1.0  0.984716645231013  0.2894106306689561  0.5050291329023636  1.0000
  O   O5        1.0  0.857103389162059  0.6616023062741297  0.4780996950704423  1.0000
  O   O6        1.0  0.8571518883594447  0.4638663764641304  0.6956158484637438  1.0000
  O   O7        1.0  0.857060977599449  0.4816932395056457  0.27593339032556896  1.0000
  O   O8        1.0  0.8571094194427258  0.28395574667574297  0.49344961546453797  1.0000
