data_image0
_chemical_formula_structural       NC9NC5H8C7OC6OCH12C7OC3NC3H11Zn2C4O8
_chemical_formula_sum              "N3 C45 H31 O11 Zn2"
_cell_length_a       17.807436237873137
_cell_length_b       10.299359160628079
_cell_length_c       10.298749378158433
_cell_angle_alpha    85.56206142688012
_cell_angle_beta     89.40102399035862
_cell_angle_gamma    88.41300836981586

_space_group_name_H-M_alt    "P 1"
_space_group_IT_number       1

loop_
  _space_group_symop_operation_xyz
  'x, y, z'

loop_
  _atom_site_type_symbol
  _atom_site_label
  _atom_site_symmetry_multiplicity
  _atom_site_fract_x
  _atom_site_fract_y
  _atom_site_fract_z
  _atom_site_occupancy
  N   N1        1.0  0.7076025138422614  0.38789336167147814  0.5571389135011016  1.0000
  C   C1        1.0  0.6470058387816847  0.3527041421485191  0.5461107457487042  1.0000
  C   C2        1.0  0.571630235144535  0.3089326283029628  0.5323929024955749  1.0000
  C   C3        1.0  0.5535128069399861  0.23752554818527855  0.42737446692727393  1.0000
  C   C4        1.0  0.4803269521509224  0.19491529064261082  0.4139726794139247  1.0000
  C   C5        1.0  0.4242097166924433  0.223334581781556  0.5055568374572124  1.0000
  C   C6        1.0  0.3464320530661566  0.17816576320679745  0.49139630013261887  1.0000
  C   C7        1.0  0.2842769770929751  0.25992072521841303  0.517345114428704  1.0000
  C   C8        1.0  0.21094877164939219  0.2171074260079997  0.503956990028364  1.0000
  C   C9        1.0  0.14774426215783848  0.30155374159450626  0.5302699918840859  1.0000
  N   N2        1.0  0.0969408234007416  0.3694427369008456  0.5514249182760209  1.0000
  C   C10       1.0  0.1991920352854842  0.09228118388225194  0.46459467509743546  1.0000
  C   C11       1.0  0.2604897374711338  0.010512370114011297  0.4386374690887933  1.0000
  C   C12       1.0  0.3336984012658794  0.05293114061086972  0.4518230007907922  1.0000
  C   C13       1.0  0.44301868366120617  0.2952360157434624  0.6107945678038502  1.0000
  C   C14       1.0  0.5162573516489994  0.33765588971298777  0.6240406734584711  1.0000
  H   H1        1.0  0.5958960509746791  0.21504608678728904  0.3556535402494989  1.0000
  H   H2        1.0  0.4673944865972608  0.14123935231452345  0.3310401637888494  1.0000
  H   H3        1.0  0.2927996211729384  0.3573843290026397  0.5462337718369665  1.0000
  H   H4        1.0  0.1427181715741069  0.05824562578985382  0.45399569179425886  1.0000
  H   H5        1.0  0.2512688303839595  0.9138689763545366  0.40854837641682323  1.0000
  H   H6        1.0  0.3803222892273596  0.9871869367928581  0.4327667995721954  1.0000
  H   H7        1.0  0.40135231187003934  0.31717631268347224  0.6838100512662542  1.0000
  H   H8        1.0  0.5297183554786276  0.39255251559653953  0.705931589463308  1.0000
  C   C15       1.0  0.9021868496358404  0.9972937943943416  0.5542516917072537  1.0000
  C   C16       1.0  0.840041578546681  0.00552608311887615  0.4707601457779787  1.0000
  C   C17       1.0  0.8092356505390292  0.8926681883190355  0.4275481686608287  1.0000
  C   C18       1.0  0.8402205495052647  0.7702560695732856  0.4710126455194126  1.0000
  C   C19       1.0  0.902363669996561  0.7600319566776497  0.5543233489383503  1.0000
  C   C20       1.0  0.9330926711021788  0.8741492279719292  0.5952507513743373  1.0000
  C   C21       1.0  0.7430947120194259  0.9035217997984005  0.34057844972527396  1.0000
  O   O1        1.0  0.6953548555736495  0.9946559896525471  0.35284652363574986  1.0000
  C   C22       1.0  0.7311099898659221  0.8110593984824389  0.23969889556736623  1.0000
  C   C23       1.0  0.7922093059551096  0.7548198879622641  0.17474199290745673  1.0000
  C   C24       1.0  0.780125663840491  0.6690130924339546  0.07882997262882219  1.0000
  C   C25       1.0  0.7071403220182466  0.638560121732986  0.04513567442722776  1.0000
  C   C26       1.0  0.645788018506734  0.6958464953723824  0.10878442786272036  1.0000
  C   C27       1.0  0.6578029688847635  0.7817154320477077  0.20474388140435762  1.0000
  O   O2        1.0  0.6980325655775578  0.5517719712923087  0.9483634222131982  1.0000
  C   C28       1.0  0.6272323446322343  0.5122860883367863  0.904530882989888  1.0000
  H   H9        1.0  0.01925860149731839  0.18900663629824788  0.712221373909117  1.0000
  H   H10       1.0  0.8158778813833234  0.10000171770331391  0.43812739571940135  1.0000
  H   H11       1.0  0.8152783434158514  0.6828031886494543  0.44092484488103745  1.0000
  H   H12       1.0  0.981029463875858  0.8669945312422629  0.6595210649760106  1.0000
  H   H13       1.0  0.9260101311301621  0.42861350342948334  0.586697003480944  1.0000
  H   H14       1.0  0.8493267725477863  0.7781993775910215  0.19703667244289846  1.0000
  H   H15       1.0  0.8277990191036668  0.6263098016856122  0.029945265761317508  1.0000
  H   H16       1.0  0.5886390082581207  0.6747456146738647  0.08484546633565904  1.0000
  H   H17       1.0  0.6097096533220441  0.8243929098190683  0.25258390780404505  1.0000
  H   H18       1.0  0.6366033036415306  0.44345232691955316  0.827912526331149  1.0000
  H   H19       1.0  0.5942177164746562  0.5982020839180359  0.8625020385047781  1.0000
  H   H20       1.0  0.5957037324984508  0.46220470906597333  0.986535731666681  1.0000
  C   C29       1.0  0.9022406135465226  0.3786925442082889  0.17288695454329783  1.0000
  C   C30       1.0  0.9433034042886576  0.4936140750373035  0.1622760028204977  1.0000
  C   C31       1.0  0.9633136398388567  0.5525629909719522  0.03968283253577987  1.0000
  C   C32       1.0  0.9433064013153548  0.49366279557434756  0.9270319341695763  1.0000
  C   C33       1.0  0.9023098759908906  0.378633228241746  0.9356880423409931  1.0000
  C   C34       1.0  0.881864605288204  0.3220668127314943  0.05903654289351867  1.0000
  C   C35       1.0  0.007284706989644228  0.6732500366153337  0.028369321903946032  1.0000
  O   O3        1.0  0.054230561373168604  0.6893685174092762  0.9363352130729984  1.0000
  C   C36       1.0  0.9979998467681627  0.7756432325330198  0.12140519373488569  1.0000
  C   C37       1.0  0.9277228450281882  0.8015481683383763  0.17914304736562303  1.0000
  C   C38       1.0  0.9193420547435053  0.8994496321920817  0.26597580606013804  1.0000
  N   N3        1.0  0.8478222477613923  0.9246910707312234  0.3246997143723689  1.0000
  C   C39       1.0  0.9813505554045623  0.9727639591765308  0.29447085978650267  1.0000
  C   C40       1.0  0.0510360085252064  0.9488377533083951  0.236282543439142  1.0000
  C   C41       1.0  0.05937357751178541  0.8512500154736413  0.14982725402437302  1.0000
  H   H21       1.0  0.8256475552716923  0.16048654890093372  0.4003621391757724  1.0000
  H   H22       1.0  0.9604703239581931  0.5366473707631181  0.24957447712187397  1.0000
  H   H23       1.0  0.9591606166424373  0.5384344932946074  0.8323973735402497  1.0000
  H   H24       1.0  0.8502161794848537  0.2334804874809156  0.06646382904945769  1.0000
  H   H25       1.0  0.8251189684286738  0.16103456682985182  0.7447554434019001  1.0000
  H   H26       1.0  0.8792369256644149  0.7468373453856028  0.15580608521145134  1.0000
  H   H27       1.0  0.8012247532544945  0.8706259498698126  0.3041501024753457  1.0000
  H   H28       1.0  0.8409557959961986  0.9975365412021417  0.3892952662721785  1.0000
  H   H29       1.0  0.9755954488658853  0.048652794213820634  0.3612957447935359  1.0000
  H   H30       1.0  0.09871993385926259  0.0060464558265316245  0.2582248710494859  1.0000
  H   H31       1.0  0.11394695024458423  0.8340187680354327  0.10602444473306649  1.0000
  Zn  Zn1       1.0  0.8199571384964589  0.3825654440010779  0.5554974889981525  1.0000
  Zn  Zn2       1.0  0.984586179065144  0.3747600674234519  0.5530770192824443  1.0000
  C   C42       1.0  0.9022939248120722  0.37347078915826054  0.7915018442053408  1.0000
  C   C43       1.0  0.9022511908849695  0.3838562756637304  0.3170727652746832  1.0000
  C   C44       1.0  0.9023259031135991  0.6158588292819438  0.5491342269742572  1.0000
  C   C45       1.0  0.9022191560516459  0.14146667787432254  0.5594404524295724  1.0000
  O   O4        1.0  0.9647306023473349  0.3826215055599287  0.36454428433507013  1.0000
  O   O5        1.0  0.9647641456235674  0.3687804793370173  0.742192870667556  1.0000
  O   O6        1.0  0.9647891264246181  0.5645119269775871  0.5464793174718936  1.0000
  O   O7        1.0  0.9647055653628526  0.18689006988072324  0.5602577409748029  1.0000
  O   O8        1.0  0.8398376960189382  0.5704354442088131  0.5483167681249503  1.0000
  O   O9        1.0  0.8398127155698721  0.3747055568989744  0.7440302522159636  1.0000
  O   O10       1.0  0.8397791721912828  0.38854653798431604  0.3663801043483059  1.0000
  O   O11       1.0  0.8397541352104197  0.1928150930087527  0.5620936583631242  1.0000
