data_image0
_chemical_formula_structural       NC8NC6H8C7OC3NC3H11C7OC3NC3H11Zn2C4O8
_chemical_formula_sum              "N4 C44 H30 O10 Zn2"
_cell_length_a       17.457602349358154
_cell_length_b       10.298746005989749
_cell_length_c       10.29874937815843
_cell_angle_alpha    85.5599185525692
_cell_angle_beta     92.88501269270333
_cell_angle_gamma    91.69721484149154

_space_group_name_H-M_alt    "P 1"
_space_group_IT_number       1

loop_
  _space_group_symop_operation_xyz
  'x, y, z'

loop_
  _atom_site_type_symbol
  _atom_site_label
  _atom_site_symmetry_multiplicity
  _atom_site_fract_x
  _atom_site_fract_y
  _atom_site_fract_z
  _atom_site_occupancy
  N   N1        1.0  0.7224371768535134  0.4530543824650879  0.6264764866719976  1.0000
  C   C1        1.0  0.6613538442069755  0.4071260147958604  0.615856672163769  1.0000
  C   C2        1.0  0.585363596796345  0.3499968395995372  0.6026551661480104  1.0000
  C   C3        1.0  0.5268457790707483  0.3901567565357966  0.6775625162485968  1.0000
  C   C4        1.0  0.452293875045658  0.3351459804794321  0.6649756485415241  1.0000
  C   C5        1.0  0.3901857869532868  0.37754892093620207  0.7443053646281527  1.0000
  C   C6        1.0  0.3156357236740185  0.3960228846802156  0.6885379236997988  1.0000
  C   C7        1.0  0.2571178954439117  0.43599885276025985  0.7635532250773716  1.0000
  C   C8        1.0  0.1811295294873969  0.455078879643837  0.7055701583546581  1.0000
  N   N2        1.0  0.12004779916643321  0.47041284100711395  0.6589519233401941  1.0000
  C   C9        1.0  0.2726580383518575  0.45774398289839646  0.8948445486502308  1.0000
  C   C10       1.0  0.3464234709806887  0.4396590112311487  0.9509996499890698  1.0000
  C   C11       1.0  0.40492975407515003  0.3998630800536092  0.8764421246076456  1.0000
  C   C12       1.0  0.4375482364899735  0.23929791288551727  0.5760483321565224  1.0000
  C   C13       1.0  0.49605439997701434  0.19941667105377237  0.5015410413642778  1.0000
  C   C14       1.0  0.56982160018047  0.25453979293602047  0.5146779175471379  1.0000
  H   H1        1.0  0.5392032304655598  0.4653527274895706  0.7442044991835073  1.0000
  H   H2        1.0  0.3032798157884684  0.38105863459857914  0.5865029553330201  1.0000
  H   H3        1.0  0.22780549500356684  0.48862517300811587  0.9536879370615807  1.0000
  H   H4        1.0  0.3582657829325507  0.45618108113420663  0.05266142844682652  1.0000
  H   H5        1.0  0.461418205970746  0.3848666932796499  0.9225518462480843  1.0000
  H   H6        1.0  0.3810582351981383  0.19395926617357032  0.5653924372627095  1.0000
  H   H7        1.0  0.4842107544936619  0.1253373425255231  0.4337007013666685  1.0000
  H   H8        1.0  0.6146741512706444  0.222788794213731  0.4563456427795616  1.0000
  C   C15       1.0  0.9212094904568218  0.08033007517034682  0.6426943393220228  1.0000
  C   C16       1.0  0.9570881150676374  0.09041347674033706  0.5231111833531601  1.0000
  C   C17       1.0  0.9744232517224206  0.9783535986966012  0.4618892035127493  1.0000
  C   C18       1.0  0.9570886857414177  0.8551769055543925  0.5230620891222619  1.0000
  C   C19       1.0  0.92128280648524  0.8431274641731638  0.6427458855959383  1.0000
  C   C20       1.0  0.9033857187486165  0.9562717161648947  0.7016330109643687  1.0000
  C   C21       1.0  0.012962905941304996  0.9888384978522181  0.336211647682068  1.0000
  O   O1        1.0  0.05980454736441887  0.9029077187771918  0.3148233328342527  1.0000
  C   C22       1.0  0.9983653005121285  0.09674774421898145  0.23480603774144246  1.0000
  C   C23       1.0  0.9257168297269714  0.15296930311938217  0.21676399613979358  1.0000
  C   C24       1.0  0.9122639081084805  0.2540615133054107  0.11975110577099322  1.0000
  N   N3        1.0  0.8383873756505715  0.31107157359978155  0.10251220538444315  1.0000
  C   C25       1.0  0.9715067885043318  0.298541917301097  0.039449213406544725  1.0000
  C   C26       1.0  0.04345477435408762  0.24212517739366277  0.05557782930457144  1.0000
  C   C27       1.0  0.05684799111232586  0.141454861677907  0.15228161215252164  1.0000
  H   H9        1.0  0.8544805785499494  0.2686189620880606  0.8695974021338174  1.0000
  H   H10       1.0  0.9723408973239221  0.18560024956709145  0.47813166974719973  1.0000
  H   H11       1.0  0.97092111263231  0.7685934236344335  0.47649037166242203  1.0000
  H   H12       1.0  0.8757335590694021  0.9477473223764149  0.7938121711971519  1.0000
  H   H13       1.0  0.8539162738131787  0.6130545811093  0.8691083069797378  1.0000
  H   H14       1.0  0.8792613172214272  0.11753145175405688  0.27693714394142144  1.0000
  H   H15       1.0  0.7938162771301029  0.2786661248020488  0.16182772714728277  1.0000
  H   H16       1.0  0.8277373721310124  0.3862282842992655  0.030398557772766344  1.0000
  H   H17       1.0  0.9618311586293177  0.3764776457226384  0.9641661598101177  1.0000
  H   H18       1.0  0.08897004376497324  0.2764865799635947  0.9929953991218093  1.0000
  H   H19       1.0  0.11311719118116417  0.09926888899895236  0.16340553077945463  1.0000
  C   C28       1.0  0.921210772028982  0.46175522170461814  0.2613161752499882  1.0000
  C   C29       1.0  0.9631295972798857  0.5804600371201747  0.2547272576149755  1.0000
  C   C30       1.0  0.9835565711800458  0.641252744477343  0.13409391313053942  1.0000
  C   C31       1.0  0.9631326511147321  0.5805090360541839  0.0194834805404227  1.0000
  C   C32       1.0  0.9212815139789688  0.46170227293438576  0.0241240596049952  1.0000
  C   C33       1.0  0.9004099296042994  0.4032521868979835  0.14546994685321768  1.0000
  C   C34       1.0  0.028444635328482397  0.7659908927153825  0.1270874139580398  1.0000
  O   O2        1.0  0.07638537478739997  0.7864282058426108  0.039657227506304064  1.0000
  C   C35       1.0  0.018948164061217465  0.8675358567182306  0.21920755418208815  1.0000
  C   C36       1.0  0.9471748046015419  0.8869784013564836  0.2700509752010878  1.0000
  C   C37       1.0  0.9386022376614409  0.9841145340472104  0.356056898772674  1.0000
  N   N4        1.0  0.8655597684976052  0.0027792349499189462  0.4077645056969337  1.0000
  C   C38       1.0  0.001917519179328808  0.06313632314806261  0.3906304993298604  1.0000
  C   C39       1.0  0.07308648705011939  0.04561821103793484  0.33927849616889505  1.0000
  C   C40       1.0  0.08161487054248288  0.9487918466583346  0.25364578710742824  1.0000
  H   H20       1.0  0.8430215218875369  0.23649217509241405  0.481289382034024  1.0000
  H   H21       1.0  0.9806550996970405  0.6250747102262207  0.3437074497081243  1.0000
  H   H22       1.0  0.9793173223339051  0.6267414706896113  0.9264017950632621  1.0000
  H   H23       1.0  0.8681017319839407  0.31174996069670446  0.1497973213909798  1.0000
  H   H24       1.0  0.8424816305685293  0.23699160615987777  0.8256308126282246  1.0000
  H   H25       1.0  0.897666714528404  0.8278049253252172  0.24196092467960484  1.0000
  H   H26       1.0  0.8179801234998783  0.9444251884536631  0.3826470010739986  1.0000
  H   H27       1.0  0.8585372281658331  0.07499724888037473  0.4716829858098801  1.0000
  H   H28       1.0  0.9960295016583949  0.1385000907081686  0.4568871703033155  1.0000
  H   H29       1.0  0.12177519717571217  0.10721594234612385  0.3658951256006724  1.0000
  H   H30       1.0  0.13734982925344993  0.936579109932451  0.21519668514409696  1.0000
  Zn  Zn1       1.0  0.8371790139839906  0.45806017509674546  0.6358556951082439  1.0000
  Zn  Zn2       1.0  0.005305947748818427  0.4653963988472545  0.6495833476882338  1.0000
  C   C41       1.0  0.9212659498239705  0.4565380763534805  0.8799365500079769  1.0000
  C   C42       1.0  0.921220848019087  0.4669202164619523  0.40550277028297205  1.0000
  C   C43       1.0  0.9212645278268347  0.6989426908005922  0.6375601848525176  1.0000
  C   C44       1.0  0.9212222125026714  0.22451403906189601  0.6478791998936544  1.0000
  O   O3        1.0  0.9850275242315926  0.4714320283077451  0.45910268096568546  1.0000
  O   O4        1.0  0.9850637260176589  0.4575933087997985  0.8367552360506123  1.0000
  O   O5        1.0  0.9850617177633336  0.6533380629664599  0.6410345361973209  1.0000
  O   O6        1.0  0.9850294751074432  0.2756872809355524  0.6548232787516748  1.0000
  O   O7        1.0  0.8574554292518947  0.6477692905063688  0.6306157593533968  1.0000
  O   O8        1.0  0.8574574376462996  0.45202609679057293  0.8263363900600595  1.0000
  O   O9        1.0  0.8574212357620492  0.46586477114899627  0.448682273432134  1.0000
  O   O10       1.0  0.8574231866429025  0.2701200144802558  0.6444029685940198  1.0000
