data_image0
_chemical_formula_structural       NC9NC5H8C9H10C8NH7Zn2C4O8
_chemical_formula_sum              "N3 C35 H25 Zn2 O8"
_cell_length_a       17.807436237873137
_cell_length_b       9.272676604525724
_cell_length_c       9.274266800404106
_cell_angle_alpha    86.24029602187467
_cell_angle_beta     88.95510806583813
_cell_angle_gamma    88.94495835625186

_space_group_name_H-M_alt    "P 1"
_space_group_IT_number       1

loop_
  _space_group_symop_operation_xyz
  'x, y, z'

loop_
  _atom_site_type_symbol
  _atom_site_label
  _atom_site_symmetry_multiplicity
  _atom_site_fract_x
  _atom_site_fract_y
  _atom_site_fract_z
  _atom_site_occupancy
  N   N1        1.0  0.7216053548421302  0.5284032423452023  0.4048828482188751  1.0000
  C   C1        1.0  0.6608716321222463  0.48924247641845847  0.39247804096317696  1.0000
  C   C2        1.0  0.5853255563674877  0.44053079606981527  0.37704780789550174  1.0000
  C   C3        1.0  0.5673083907728083  0.3603546145348733  0.2601458537420531  1.0000
  C   C4        1.0  0.49395680569221706  0.3129348415908786  0.2450718396717706  1.0000
  C   C5        1.0  0.4375717140448719  0.3452718468634832  0.34686196088736865  1.0000
  C   C6        1.0  0.3596181582726808  0.2950051172595032  0.33093384348181565  1.0000
  C   C7        1.0  0.2977799868256147  0.38598996601874447  0.36011698009556237  1.0000
  C   C8        1.0  0.22428490642990856  0.338344899603791  0.3450571881015012  1.0000
  C   C9        1.0  0.161409977526702  0.43232073789702197  0.37465708306489276  1.0000
  N   N2        1.0  0.11087149375462069  0.5078708195512942  0.3984545643768873  1.0000
  C   C10       1.0  0.2120431318709314  0.199428363680638  0.30078489266363273  1.0000
  C   C11       1.0  0.273023894129213  0.10842806502292211  0.27159237689147747  1.0000
  C   C12       1.0  0.3463982578133249  0.15563339698488066  0.28642545778308026  1.0000
  C   C13       1.0  0.4562820490114166  0.42599872923227605  0.46400962945260726  1.0000
  C   C14       1.0  0.529686145433071  0.4732058065951861  0.47890995228885913  1.0000
  H   H1        1.0  0.6099002037957281  0.33478246659602195  0.1804314435209402  1.0000
  H   H2        1.0  0.4811179804565406  0.2526329765742952  0.15276758730231377  1.0000
  H   H3        1.0  0.306689794153972  0.4944393380414218  0.39263635702582894  1.0000
  H   H4        1.0  0.15543640389253238  0.16155204538430112  0.2888618414558428  1.0000
  H   H5        1.0  0.2634256912427074  0.0008789535723845397  0.23774433528589392  1.0000
  H   H6        1.0  0.3927590124261184  0.08248242831168962  0.2649675228584778  1.0000
  H   H7        1.0  0.4143983076735156  0.45098343360729465  0.5451584853625633  1.0000
  H   H8        1.0  0.5430647835012274  0.5348538949440926  0.570063708606904  1.0000
  C   C15       1.0  0.9141212212784271  0.09474637361350169  0.3998621918850298  1.0000
  C   C16       1.0  0.883567939518445  0.1613608007917029  0.5197528757859031  1.0000
  C   C17       1.0  0.8598726134044337  0.07940415327935237  0.6430534055459396  1.0000
  C   C18       1.0  0.865965231383563  0.9283914887660414  0.6506117098383875  1.0000
  C   C19       1.0  0.8952923850741791  0.8603836612116414  0.5296306393915533  1.0000
  C   C20       1.0  0.9183627204550717  0.9415163296152103  0.4034875858639879  1.0000
  C   C21       1.0  0.8395208743705165  0.8472187932791523  0.7895237623218538  1.0000
  C   C22       1.0  0.8016170600627907  0.7030149636628628  0.7757969325286184  1.0000
  C   C23       1.0  0.8806818958655159  0.7067498928048859  0.8354859958392897  1.0000
  H   H9        1.0  0.9317635693259074  0.3908526992218655  0.16335116199155467  1.0000
  H   H10       1.0  0.8796051799893142  0.2780912995778346  0.5196797389624599  1.0000
  H   H11       1.0  0.8372519155621245  0.1347297730564172  0.7340014728196087  1.0000
  H   H12       1.0  0.8988702682792201  0.7438047394225128  0.5309101619690768  1.0000
  H   H13       1.0  0.939291211538086  0.8609236270742701  0.05017495925032578  1.0000
  H   H14       1.0  0.8178882729919398  0.9091701786470352  0.8806432131715677  1.0000
  H   H15       1.0  0.7985790055546756  0.663092634901203  0.6659527243146801  1.0000
  H   H16       1.0  0.7577466249695263  0.6771765759787721  0.85968461551407  1.0000
  H   H17       1.0  0.9256482773102339  0.6689697253743792  0.7619852053563804  1.0000
  H   H18       1.0  0.8830190434177073  0.6830885860063588  0.9542781410537382  1.0000
  C   C24       1.0  0.9179537077006642  0.5148878652219782  0.9783221299758078  1.0000
  C   C25       1.0  0.8737881260801329  0.4139779695257113  0.059750517948437  1.0000
  C   C26       1.0  0.825133572040329  0.32452089598599954  0.9922554675753572  1.0000
  C   C27       1.0  0.8190311253297496  0.33464491562644233  0.8417011456385706  1.0000
  C   C28       1.0  0.8642105863643194  0.43205349083174127  0.758934720715133  1.0000
  C   C29       1.0  0.9145301866779799  0.5213748520618309  0.8250275947161239  1.0000
  C   C30       1.0  0.7673666695671073  0.2366424273736023  0.7690330472517979  1.0000
  C   C31       1.0  0.8073802897628298  0.10268553350585563  0.7365819419521542  1.0000
  N   N3        1.0  0.8389657877665558  0.9969623287732406  0.7109676245773283  1.0000
  H   H19       1.0  0.0022853154691873105  0.8278408238372554  0.057749599720457345  1.0000
  H   H20       1.0  0.87566839781692  0.40640975040522975  0.17670090339918754  1.0000
  H   H21       1.0  0.7915946872561108  0.2481067509547732  0.05771218228550535  1.0000
  H   H22       1.0  0.8613019493411528  0.43549747926934335  0.6421061139804136  1.0000
  H   H23       1.0  0.9740230700520015  0.7291318803080789  0.5286252909108047  1.0000
  H   H24       1.0  0.7462066485107651  0.2905646800174093  0.6668438334891365  1.0000
  H   H25       1.0  0.7179556561410037  0.209617105527564  0.8398812921046419  1.0000
  Zn  Zn1       1.0  0.8339390997460183  0.5224742454169751  0.40303610552399377  1.0000
  Zn  Zn2       1.0  0.9985376238633303  0.5137881546578447  0.4003131087241134  1.0000
  C   C32       1.0  0.9151468759429127  0.5144050157403139  0.6649575973808014  1.0000
  C   C33       1.0  0.91733165361732  0.5218591097396901  0.1383917364197833  1.0000
  C   C34       1.0  0.9175803283640389  0.7814149859268691  0.39705746784241464  1.0000
  C   C35       1.0  0.9148981360427203  0.25484741087947826  0.4062919363318671  1.0000
  O   O1        1.0  0.9795871371677445  0.5208961068795448  0.19107916857150742  1.0000
  O   O2        1.0  0.9778178598767506  0.5087743858427689  0.6102030540053371  1.0000
  O   O3        1.0  0.9797820553725193  0.7243883694912381  0.3938718243141315  1.0000
  O   O4        1.0  0.9776228859943709  0.30528213568076734  0.4074102911416726  1.0000
  O   O5        1.0  0.8548537814456183  0.7309802673597001  0.39593892402808306  1.0000
  O   O6        1.0  0.8528895949339627  0.5153680153505351  0.6122700842672404  1.0000
  O   O7        1.0  0.8546588790314932  0.5274896728626082  0.1931444653265595  1.0000
  O   O8        1.0  0.8526946273663646  0.3118756921797876  0.40947569593941413  1.0000
