data_image0
_chemical_formula_structural       NC12NC2H8C6NH7C6H6Zn2C4O8
_chemical_formula_sum              "N3 C30 H21 Zn2 O8"
_cell_length_a       19.240039667572717
_cell_length_b       9.274771166103584
_cell_length_c       10.681121600428288
_cell_angle_alpha    85.45578074471726
_cell_angle_beta     89.99986269578453
_cell_angle_gamma    90.59704977044065

_space_group_name_H-M_alt    "P 1"
_space_group_IT_number       1

loop_
  _space_group_symop_operation_xyz
  'x, y, z'

loop_
  _atom_site_type_symbol
  _atom_site_label
  _atom_site_symmetry_multiplicity
  _atom_site_fract_x
  _atom_site_fract_y
  _atom_site_fract_z
  _atom_site_occupancy
  N   N1        1.0  0.6624088280846037  0.5786600984783945  0.6161555291682109  1.0000
  C   C1        1.0  0.6022604597359934  0.5786601917593648  0.6161554500123543  1.0000
  C   C2        1.0  0.5274424232493917  0.5786603220330069  0.6161553174087944  1.0000
  C   C3        1.0  0.4906088967828453  0.5070559754369499  0.7159851083025417  1.0000
  C   C4        1.0  0.41793752992090116  0.5069328158592123  0.7160687516258805  1.0000
  C   C5        1.0  0.38111018882881775  0.5786604248499145  0.6161550976998507  1.0000
  C   C6        1.0  0.41865852716695323  0.6503882415290738  0.5162416310398705  1.0000
  C   C7        1.0  0.49132859555463276  0.6502648203747445  0.5163253928967964  1.0000
  C   C8        1.0  0.3039050979504385  0.5786603374799606  0.6161550058295364  1.0000
  C   C9        1.0  0.2660853105686916  0.4528582314337726  0.6567265780468157  1.0000
  C   C10       1.0  0.19341521874097167  0.45297696924133213  0.6566383295144693  1.0000
  C   C11       1.0  0.1575728103064586  0.5786601940036755  0.6161550647881217  1.0000
  C   C12       1.0  0.08275477251656241  0.5786600676638365  0.6161553047632862  1.0000
  N   N2        1.0  0.022606455436416102  0.5786600223177771  0.6161555058079871  1.0000
  C   C13       1.0  0.19467791315169816  0.7043435029902746  0.5756717489288383  1.0000
  C   C14       1.0  0.2673492069311695  0.7044624408645725  0.5755833432977202  1.0000
  H   H1        1.0  0.518045187102461  0.45161832530325396  0.7939286400526697  1.0000
  H   H2        1.0  0.3905700988291494  0.45238160667283767  0.7950865547436385  1.0000
  H   H3        1.0  0.3918394276215799  0.7049394807638409  0.4372237788432185  1.0000
  H   H4        1.0  0.5193220761383308  0.7057023591412261  0.4383821272636985  1.0000
  H   H5        1.0  0.2926811138081998  0.35383071297150653  0.6869355298194639  1.0000
  H   H6        1.0  0.16520792029207657  0.35494818142167567  0.6878417857524244  1.0000
  H   H7        1.0  0.16745538801588405  0.802372263556053  0.5444683067641148  1.0000
  H   H8        1.0  0.2949398829506855  0.8034900472708351  0.5453743482155045  1.0000
  C   C15       1.0  0.8403771574130905  0.15506352389243316  0.6168380854807054  1.0000
  C   C16       1.0  0.8243836547133409  0.23837226951686263  0.5048502741229919  1.0000
  C   C17       1.0  0.8148793972910335  0.17332287714749128  0.39215194759082433  1.0000
  C   C18       1.0  0.8214050800282048  0.023587266089207352  0.3906251478916942  1.0000
  C   C19       1.0  0.836113351809404  0.9389590924282045  0.5010745743170786  1.0000
  C   C20       1.0  0.8446447543363005  0.0022455620440229437  0.6154837897853732  1.0000
  N   N3        1.0  0.7993129179001148  0.25973112061212444  0.27893332519897696  1.0000
  H   H9        1.0  0.918597026188853  0.23472384891052833  0.8909067068374762  1.0000
  H   H10       1.0  0.8208792202700208  0.3549649779974495  0.504369232242666  1.0000
  H   H11       1.0  0.8144214681146212  0.9721000382307242  0.30391515573532546  1.0000
  H   H12       1.0  0.8391763589720942  0.8227950764730807  0.497488056176766  1.0000
  H   H13       1.0  0.8945119590966718  0.7051792564161236  0.801947491676033  1.0000
  H   H14       1.0  0.7945242368976904  0.371805022428328  0.2788926516158589  1.0000
  H   H15       1.0  0.7923947370164549  0.21226110061899917  0.19428279854162775  1.0000
  C   C21       1.0  0.8425109658737773  0.5786545047948346  0.24841569652314077  1.0000
  C   C22       1.0  0.7923595324301771  0.4984289883706021  0.18712146230769022  1.0000
  C   C23       1.0  0.7923594895019909  0.4984290808637859  0.05623932220694083  1.0000
  C   C24       1.0  0.8425109115915395  0.5786545755051218  0.9839061320864531  1.0000
  C   C25       1.0  0.892620950146001  0.6588136090017895  0.0451998922392185  1.0000
  C   C26       1.0  0.8926209411409849  0.6588135866341023  0.17609219093802242  1.0000
  H   H16       1.0  0.8932273632792714  0.6597845453935776  0.5415437394830104  1.0000
  H   H17       1.0  0.7530484712961196  0.4355444369696526  0.24025882848785907  1.0000
  H   H18       1.0  0.7530484571225317  0.4355445048697088  0.011754799153782303  1.0000
  H   H19       1.0  0.9319371451838121  0.72170644696762  0.9921068481793149  1.0000
  H   H20       1.0  0.9319371099108097  0.721706396400568  0.22053121574456225  1.0000
  H   H21       1.0  0.8932275776686286  0.6597840428270263  0.6796147145729597  1.0000
  Zn  Zn1       1.0  0.766354072412976  0.5786562253872807  0.6161627494993434  1.0000
  Zn  Zn2       1.0  0.9186611706064504  0.5786521289506871  0.6161585245610224  1.0000
  C   C27       1.0  0.8424804420253141  0.572907994255842  0.8448918935795762  1.0000
  C   C28       1.0  0.8425364733512266  0.5844021800955264  0.3874295004380241  1.0000
  C   C29       1.0  0.8438345019105837  0.8421100923839757  0.6107494605254686  1.0000
  C   C30       1.0  0.8411823527640402  0.3151983488994352  0.6215720030293026  1.0000
  O   O1        1.0  0.900344752202237  0.5863233047668617  0.43408220965682387  1.0000
  O   O2        1.0  0.9002697210750986  0.5709826722801927  0.7982356189788838  1.0000
  O   O3        1.0  0.9013623623885475  0.7883667710648816  0.6091639453150148  1.0000
  O   O4        1.0  0.8992520589686768  0.3689392163024612  0.6231537894094983  1.0000
  O   O5        1.0  0.7857631320758196  0.788369138038475  0.6091674846457196  1.0000
  O   O6        1.0  0.7846704994893577  0.5709867723247113  0.7982390887672698  1.0000
  O   O7        1.0  0.7847455304095695  0.5863273545443024  0.43408417390298254  1.0000
  O   O8        1.0  0.7836528371211908  0.3689432557625818  0.6231558475617041  1.0000
