data_image0
_chemical_formula_structural       NC6NC3H6C6ClH5C6NCH7Zn2C4O8
_chemical_formula_sum              "N3 C26 H18 Cl1 Zn2 O8"
_cell_length_a       14.934028789175542
_cell_length_b       10.30297070629231
_cell_length_c       9.273390368590327
_cell_angle_alpha    86.16779528597041
_cell_angle_beta     89.96634751040418
_cell_angle_gamma    89.96080423122717

_space_group_name_H-M_alt    "P 1"
_space_group_IT_number       1

loop_
  _space_group_symop_operation_xyz
  'x, y, z'

loop_
  _atom_site_type_symbol
  _atom_site_label
  _atom_site_symmetry_multiplicity
  _atom_site_fract_x
  _atom_site_fract_y
  _atom_site_fract_z
  _atom_site_occupancy
  N   N1        1.0  0.8433157341017066  0.4048577163562137  0.40968530079880683  1.0000
  C   C1        1.0  0.7658297495142267  0.40386261629385556  0.4090065457641541  1.0000
  C   C2        1.0  0.6694332796500089  0.4026201383507821  0.4081592463562078  1.0000
  C   C3        1.0  0.6216654923398848  0.49938412740749416  0.4740404999351347  1.0000
  C   C4        1.0  0.5281538210438416  0.49838651381322907  0.4733611510657388  1.0000
  C   C5        1.0  0.4814973853263811  0.4006742944198228  0.40683437014714174  1.0000
  C   C6        1.0  0.38485150454379097  0.40277082113264734  0.40826306376601584  1.0000
  N   N2        1.0  0.30737129531111257  0.4044346825412273  0.4093972405776638  1.0000
  C   C7        1.0  0.5292596742452618  0.3025715914339744  0.34004110900040346  1.0000
  C   C8        1.0  0.4809491633831149  0.19633810961290582  0.26771390009897056  1.0000
  C   C9        1.0  0.623402358711655  0.30458717291228665  0.3414134591053526  1.0000
  H   H1        1.0  0.6567056517445256  0.5756251806175778  0.525949405940134  1.0000
  H   H2        1.0  0.4921140669698507  0.5740403989934791  0.5248701435523146  1.0000
  H   H3        1.0  0.438207385680244  0.2396659607200389  0.1791197793517039  1.0000
  H   H4        1.0  0.43819768203222487  0.1405276096183881  0.3478158992492115  1.0000
  H   H5        1.0  0.5284117170616828  0.12752908343781733  0.22085922138992875  1.0000
  H   H6        1.0  0.6609351183477686  0.22993971265251645  0.2905899750394134  1.0000
  C   C10       1.0  0.07534780164931876  0.0233987968789251  0.40954747596026  1.0000
  C   C11       1.0  0.16780676742732037  0.02043703138845387  0.43725104042076374  1.0000
  C   C12       1.0  0.21368243848751634  0.9020106375290325  0.45099670893833715  1.0000
  C   C13       1.0  0.16780676671910366  0.7853290620707026  0.43725097263704477  1.0000
  C   C14       1.0  0.0753478111973353  0.7858837394722411  0.40954755846042934  1.0000
  C   C15       1.0  0.02956902402118855  0.9055118541849779  0.3958307869550848  1.0000
  Cl  Cl1       1.0  0.3291857156585052  0.8998142027639058  0.48560496210667514  1.0000
  H   H7        1.0  0.04052012868066111  0.3518175526702978  0.3991112215142676  1.0000
  H   H8        1.0  0.2045799451463638  0.10978432859864573  0.4482692975440948  1.0000
  H   H9        1.0  0.20457990974552842  0.6945831348121353  0.4482691940145598  1.0000
  H   H10       1.0  0.9582618637863066  0.9068677300592534  0.3744649208942321  1.0000
  H   H11       1.0  0.04052012428721152  0.4587895886014729  0.39911149363552134  1.0000
  C   C16       1.0  0.0753893184947525  0.40059268299071615  0.9863016933033459  1.0000
  C   C17       1.0  0.1576304367639365  0.39793812453805333  0.05985312765755313  1.0000
  C   C18       1.0  0.2384370851156573  0.4073536237217268  0.9843881787305229  1.0000
  C   C19       1.0  0.2390557213259471  0.41977352492599007  0.8327598064595776  1.0000
  C   C20       1.0  0.15736038624589135  0.42023812448868  0.7583984312547551  1.0000
  C   C21       1.0  0.07530633468167776  0.40868984113493  0.8327932795729556  1.0000
  N   N3        1.0  0.3213757943489235  0.430682478373567  0.7519204350166082  1.0000
  C   C22       1.0  0.4097855712408991  0.43075489487648305  0.8188537522001651  1.0000
  H   H12       1.0  0.9340559602178781  0.33835854067641824  0.27222941989031396  1.0000
  H   H13       1.0  0.30013200310475247  0.4061027460605291  0.04547088582446657  1.0000
  H   H14       1.0  0.8666280779236591  0.30801811208203467  0.7374317298553108  1.0000
  H   H15       1.0  0.31847044341137964  0.43928932695245093  0.6390464053714657  1.0000
  H   H16       1.0  0.4155968964039489  0.5140320988528535  0.8883186818586659  1.0000
  H   H17       1.0  0.4207079744894953  0.3379424326726599  0.884400908226795  1.0000
  H   H18       1.0  0.4622608519961653  0.44052179527714663  0.7339306115351816  1.0000
  Zn  Zn1       1.0  0.9772321576126195  0.4047322385057706  0.4096104895696456  1.0000
  Zn  Zn2       1.0  0.1734549007097439  0.40454963836555946  0.40948383541789646  1.0000
  C   C23       1.0  0.07532000395768623  0.4019872561983202  0.6727882525737121  1.0000
  C   C24       1.0  0.0753691970971204  0.4072962581298472  0.14630621249396403  1.0000
  C   C25       1.0  0.07534377898043032  0.6417028902713577  0.4038040629498256  1.0000
  C   C26       1.0  0.07534535510967563  0.16757906504854891  0.41529047900250604  1.0000
  O   O1        1.0  0.1498279525539902  0.4094710794460839  0.19995712620291806  1.0000
  O   O2        1.0  0.1497897702669676  0.3996728622215934  0.6190407963972644  1.0000
  O   O3        1.0  0.1498079649208825  0.5932462836231547  0.4018341608162049  1.0000
  O   O4        1.0  0.149809690953142  0.2158976663603769  0.4171636537601324  1.0000
  O   O5        1.0  0.0008773004080302421  0.5933842105746063  0.4019306712630495  1.0000
  O   O6        1.0  0.0008591057576246007  0.399812348244959  0.6191372299950932  1.0000
  O   O7        1.0  0.0008972882741193848  0.4096105036522004  0.20005182694767765  1.0000
  O   O8        1.0  0.0008790266590132934  0.21603708231429236  0.4172584625643774  1.0000
