data_image0
_chemical_formula_structural       NC9NC5H8C8NH7C9H10Zn2C4O8
_chemical_formula_sum              "N3 C35 H25 Zn2 O8"
_cell_length_a       17.807436237873137
_cell_length_b       9.27426342843186
_cell_length_c       9.272679976505533
_cell_angle_alpha    85.97590121954681
_cell_angle_beta     89.80029134641114
_cell_angle_gamma    89.00683889979415

_space_group_name_H-M_alt    "P 1"
_space_group_IT_number       1

loop_
  _space_group_symop_operation_xyz
  'x, y, z'

loop_
  _atom_site_type_symbol
  _atom_site_label
  _atom_site_symmetry_multiplicity
  _atom_site_fract_x
  _atom_site_fract_y
  _atom_site_fract_z
  _atom_site_occupancy
  N   N1        1.0  0.7102228757129238  0.5283329466718413  0.3971203252911544  1.0000
  C   C1        1.0  0.6493716095909159  0.48916381960465755  0.38491454299393224  1.0000
  C   C2        1.0  0.5736793226429917  0.44044173891445126  0.3697318750576093  1.0000
  C   C3        1.0  0.5547186876770317  0.3602309844517748  0.2532376259285196  1.0000
  C   C4        1.0  0.4812243619629051  0.31280107688649084  0.23840461132089066  1.0000
  C   C5        1.0  0.4256394701102588  0.34516244904737836  0.34003015825081717  1.0000
  C   C6        1.0  0.3475349948841885  0.29488498607577057  0.32435750914515826  1.0000
  C   C7        1.0  0.2859727019651187  0.3858893299287778  0.35307823674152994  1.0000
  C   C8        1.0  0.21233486207012356  0.33823409711646546  0.338260588994284  1.0000
  C   C9        1.0  0.14974071332240324  0.4322299678749056  0.3673828753017123  1.0000
  N   N2        1.0  0.0994279666963491  0.5077961544781977  0.3907963922469371  1.0000
  C   C10       1.0  0.1996740609571621  0.19928785022322118  0.2946943033461198  1.0000
  C   C11       1.0  0.2603788638648057  0.10826805231751302  0.2659642751228861  1.0000
  C   C12       1.0  0.333893995731924  0.15548344011485687  0.28055744682891315  1.0000
  C   C13       1.0  0.445295474816683  0.4259240355180216  0.45676732281159094  1.0000
  C   C14       1.0  0.5188408568748771  0.47314118180999576  0.4714277274245766  1.0000
  H   H1        1.0  0.5966837029279176  0.3346397161891464  0.1736533593192664  1.0000
  H   H2        1.0  0.46764229383212097  0.25247237343514484  0.14640701178718074  1.0000
  H   H3        1.0  0.2951939424925818  0.49436150698579784  0.3850464510144589  1.0000
  H   H4        1.0  0.1429542200994704  0.16140345931109112  0.28296374902006227  1.0000
  H   H5        1.0  0.25045953466757814  0.0006960202041674768  0.23266282486596102  1.0000
  H   H6        1.0  0.3800483465300575  0.0823171800311531  0.2594712794112135  1.0000
  H   H7        1.0  0.4040492146939187  0.4509280439105918  0.5377890165861132  1.0000
  H   H8        1.0  0.5329546667469233  0.5348160952210927  0.5622679930097059  1.0000
  C   C15       1.0  0.902453605851528  0.09460873407980852  0.3943032916486253  1.0000
  C   C16       1.0  0.8922681458764903  0.1774469352295296  0.2627119678365586  1.0000
  C   C17       1.0  0.8894529724823397  0.11163477147573508  0.13219358162300687  1.0000
  C   C18       1.0  0.897364108306633  0.9614191330519527  0.13002825625237935  1.0000
  C   C19       1.0  0.9055308716459183  0.8771757444315649  0.26076863941870343  1.0000
  C   C20       1.0  0.9072043977952547  0.9415090691912378  0.39362585280732554  1.0000
  C   C21       1.0  0.8932088537941785  0.8905200096863085  0.9894316167495631  1.0000
  C   C22       1.0  0.8151718187849775  0.8554438325585701  0.9586582769706866  1.0000
  N   N3        1.0  0.7535788857000724  0.8277576827032267  0.9343790690869916  1.0000
  H   H9        1.0  0.9684700221699392  0.17206350034178963  0.7256115300786223  1.0000
  H   H10       1.0  0.8881080315290535  0.29426636937333583  0.26041834572389133  1.0000
  H   H11       1.0  0.8818018228213929  0.17816336853615128  0.032408070193683525  1.0000
  H   H12       1.0  0.9087666866086227  0.7605001774478956  0.2588170555384164  1.0000
  H   H13       1.0  0.948735432922895  0.6436370264538719  0.6186867328163147  1.0000
  H   H14       1.0  0.9279264293415944  0.789617664722726  0.9944466859508605  1.0000
  H   H15       1.0  0.9150614978565055  0.963458835057087  0.8993588257568353  1.0000
  C   C23       1.0  0.903287284882294  0.5147341335642175  0.9706293538390662  1.0000
  C   C24       1.0  0.953822646172466  0.4228428657129555  0.05013768430650356  1.0000
  C   C25       1.0  0.008121792007517394  0.3424417513917828  0.9807093460393884  1.0000
  C   C26       1.0  0.01372212814231677  0.35128510275817515  0.8297496244072358  1.0000
  C   C27       1.0  0.962274364514305  0.44126686478193866  0.7488732292766427  1.0000
  C   C28       1.0  0.9063707029482364  0.5213836476426217  0.8172998218038225  1.0000
  C   C29       1.0  0.07497194617286129  0.2611624317166408  0.762667746718225  1.0000
  C   C30       1.0  0.0567198569335472  0.19611374640130166  0.6209112140059334  1.0000
  C   C31       1.0  0.11026589184401579  0.32244378966356235  0.6221312035148264  1.0000
  H   H16       1.0  0.7907590367175228  0.6181974241634207  0.24533952748620558  1.0000
  H   H17       1.0  0.9525929766545952  0.415631758903269  0.16723742156757404  1.0000
  H   H18       1.0  0.04662509747706567  0.27374998649718707  0.04576336978904427  1.0000
  H   H19       1.0  0.9639892031785477  0.4474120269527125  0.6320620443793246  1.0000
  H   H20       1.0  0.7366361879418267  0.6660377116756044  0.7052588368977283  1.0000
  H   H21       1.0  0.1138581669311034  0.1942226971375085  0.8342681635035096  1.0000
  H   H22       1.0  0.0010758514002267034  0.2236648080191901  0.5721162870194365  1.0000
  H   H23       1.0  0.08530709526460956  0.09076289003268556  0.6062263005994506  1.0000
  H   H24       1.0  0.08718389757967016  0.42666547517746395  0.5739601233825566  1.0000
  H   H25       1.0  0.17015716217092836  0.2909173996602805  0.6081553565334659  1.0000
  Zn  Zn1       1.0  0.8225390652639217  0.5224026898373517  0.3953037151859118  1.0000
  Zn  Zn2       1.0  0.9871117361713462  0.5137147499569453  0.3926248632340321  1.0000
  C   C32       1.0  0.90575397780338  0.5143821867376173  0.657265554149532  1.0000
  C   C33       1.0  0.9038986314820653  0.5217369787488014  0.13066313505501248  1.0000
  C   C34       1.0  0.9062816061284839  0.7813819297397582  0.3880092954248928  1.0000
  C   C35       1.0  0.9033709375610909  0.25473550682179424  0.39991947293735874  1.0000
  O   O1        1.0  0.9665582406272707  0.5207838786612031  0.18335532863529094  1.0000
  O   O2        1.0  0.9680012103108374  0.5087402503802192  0.6025397598078859  1.0000
  O   O3        1.0  0.9684264403990103  0.7243459757450947  0.3851134383602357  1.0000
  O   O4        1.0  0.9661329540458139  0.3051781657274917  0.4007815428989068  1.0000
  O   O5        1.0  0.84351779122886  0.7309392770330829  0.38714703642761417  1.0000
  O   O6        1.0  0.8430925705759628  0.5153352835593501  0.6045732796241338  1.0000
  O   O7        1.0  0.8416495943483726  0.527378847975239  0.18538711527183005  1.0000
  O   O8        1.0  0.841224308099605  0.31177312557664094  0.40281343762605704  1.0000
