data_image0
_chemical_formula_structural       NC6NC3H6C6ClH5C6OCH7Zn2C4O8
_chemical_formula_sum              "N2 C26 H18 Cl1 O9 Zn2"
_cell_length_a       14.934028789175542
_cell_length_b       9.276545438789551
_cell_length_c       9.273891588657152
_cell_angle_alpha    86.10611493905307
_cell_angle_beta     89.65557739525336
_cell_angle_gamma    89.37211250715544

_space_group_name_H-M_alt    "P 1"
_space_group_IT_number       1

loop_
  _space_group_symop_operation_xyz
  'x, y, z'

loop_
  _atom_site_type_symbol
  _atom_site_label
  _atom_site_symmetry_multiplicity
  _atom_site_fract_x
  _atom_site_fract_y
  _atom_site_fract_z
  _atom_site_occupancy
  N   N1        1.0  0.8386937674669053  0.5628740802300292  0.4104770447081876  1.0000
  C   C1        1.0  0.7612171179813907  0.5617699369686022  0.40979760067865456  1.0000
  C   C2        1.0  0.6648323032453515  0.5603913078191134  0.4089494410080574  1.0000
  C   C3        1.0  0.6161571732541986  0.6677589014907299  0.47489768416117134  1.0000
  C   C4        1.0  0.5226548568770621  0.6666519674737752  0.47421764463612853  1.0000
  C   C5        1.0  0.4769146550306595  0.5582322342473647  0.4076232176898007  1.0000
  C   C6        1.0  0.3802491110914483  0.5605585007835636  0.40905336282238464  1.0000
  N   N2        1.0  0.3027532955403633  0.5624046895296708  0.4101886916184958  1.0000
  C   C7        1.0  0.5255968414186425  0.4493792283953717  0.34076204013995537  1.0000
  C   C8        1.0  0.47828246301326205  0.3315044526392922  0.2683612860399902  1.0000
  C   C9        1.0  0.6197206258786451  0.45161568151433623  0.3421357856328364  1.0000
  H   H1        1.0  0.6504824287724111  0.7523546112319208  0.526859371782169  1.0000
  H   H2        1.0  0.4859057051918701  0.7505961662870666  0.5257790122329256  1.0000
  H   H3        1.0  0.43553091913086056  0.37976894160342406  0.1797887758048866  1.0000
  H   H4        1.0  0.4356577736900698  0.26938942887522277  0.34843303342807674  1.0000
  H   H5        1.0  0.526390251050426  0.2551551966443495  0.22145897048295393  1.0000
  H   H6        1.0  0.6579533450458719  0.36878819335187973  0.29126062322378177  1.0000
  C   C10       1.0  0.07343116499198027  0.13919934969324577  0.4100935677491151  1.0000
  C   C11       1.0  0.07423043459794187  0.22164970623281158  0.2770523122178776  1.0000
  C   C12       1.0  0.06687307012646349  0.15540357826105014  0.14691178101775004  1.0000
  C   C13       1.0  0.0585384797610673  0.0058289267515432295  0.14781036545507464  1.0000
  C   C14       1.0  0.05912916589632065  0.9218167173278411  0.27840879246209993  1.0000
  C   C15       1.0  0.06802455036630949  0.9860684462747096  0.41058461715748296  1.0000
  Cl  Cl1       1.0  0.06674864821139279  0.26054047229538413  0.9823554250884743  1.0000
  H   H7        1.0  0.11844360170070889  0.4041573854752341  0.6366816701393876  1.0000
  H   H8        1.0  0.07843609746591587  0.33834027072582096  0.2741959233214464  1.0000
  H   H9        1.0  0.05245477630365955  0.9542050668340412  0.04712612297333463  1.0000
  H   H10       1.0  0.054760621654365904  0.8055367577265158  0.275761009639212  1.0000
  H   H11       1.0  0.037200761863753984  0.689466901810069  0.6436814558918558  1.0000
  C   C16       1.0  0.07221915408687549  0.5588134800052053  0.9870606281621459  1.0000
  C   C17       1.0  0.14516111106958976  0.6196440778141168  0.05562407570966287  1.0000
  C   C18       1.0  0.21295513554733259  0.6912471814590313  0.9758134766395772  1.0000
  C   C19       1.0  0.2080489563361133  0.7023807585011821  0.824382321016508  1.0000
  C   C20       1.0  0.13699381086063023  0.6406751561885691  0.7544750003556491  1.0000
  C   C21       1.0  0.06923652006533038  0.5664542224569805  0.8336175204916652  1.0000
  O   O1        1.0  0.28346301162609566  0.7503048794289424  0.05101032206994315  1.0000
  C   C22       1.0  0.3567159838507552  0.8261174545841902  0.9839321327333863  1.0000
  H   H12       1.0  0.8597963800431414  0.470465062542877  0.09815886381653294  1.0000
  H   H13       1.0  0.2592796172711766  0.7573907923119372  0.759460059114224  1.0000
  H   H14       1.0  0.13622384936075582  0.6481075112432468  0.6373985822036516  1.0000
  H   H15       1.0  0.9276188268684404  0.501255375990602  0.5582252437203277  1.0000
  H   H16       1.0  0.3320566312985113  0.9237199475534736  0.919608068669362  1.0000
  H   H17       1.0  0.3945090983483843  0.7545157805359538  0.9134547702699085  1.0000
  H   H18       1.0  0.40233284318939955  0.8605374947815925  0.0687671797535141  1.0000
  Zn  Zn1       1.0  0.9726113319095535  0.5627348352814987  0.4104021473649435  1.0000
  Zn  Zn2       1.0  0.16883579505250745  0.5625322291534262  0.41027536663380215  1.0000
  C   C23       1.0  0.06983499267072799  0.5592655843260486  0.6735968297908925  1.0000
  C   C24       1.0  0.07161426494248332  0.5660032985591377  0.14708082535238254  1.0000
  C   C25       1.0  0.06906212615648744  0.8259402890683393  0.4047479068654882  1.0000
  C   C26       1.0  0.07238707528856492  0.29932686215041393  0.41592982416396995  1.0000
  O   O2        1.0  0.14587745991216505  0.5683330886116607  0.2007369490576889  1.0000
  O   O3        1.0  0.1445016333082395  0.5567809293635397  0.6198440668845502  1.0000
  O   O4        1.0  0.14387652470375184  0.7721241405689321  0.4027466609894881  1.0000
  O   O5        1.0  0.14650250187345554  0.3529898868150285  0.41783424692659055  1.0000
  O   O6        1.0  0.9949445581268435  0.7722771776905375  0.40284326710783835  1.0000
  O   O7        1.0  0.9955696559377273  0.5569356982222184  0.6199405971523999  1.0000
  O   O8        1.0  0.9969454890277167  0.5684877915803754  0.2008317463096203  1.0000
  O   O9        1.0  0.9975705306704425  0.35314458044562397  0.41792915224036564  1.0000
