data_image0
_chemical_formula_structural       NC6NC3H6C6ClH5C7ONH5Zn2C4O8
_chemical_formula_sum              "N3 C26 H16 Cl1 O9 Zn2"
_cell_length_a       14.934028789175542
_cell_length_b       10.30297070629231
_cell_length_c       9.273042158839658
_cell_angle_alpha    86.1623812568413
_cell_angle_beta     90.06873718233021
_cell_angle_gamma    89.96080423122717

_space_group_name_H-M_alt    "P 1"
_space_group_IT_number       1

loop_
  _space_group_symop_operation_xyz
  'x, y, z'

loop_
  _atom_site_type_symbol
  _atom_site_label
  _atom_site_symmetry_multiplicity
  _atom_site_fract_x
  _atom_site_fract_y
  _atom_site_fract_z
  _atom_site_occupancy
  N   N1        1.0  0.8415509318159626  0.4049950869733096  0.4096145050329154  1.0000
  C   C1        1.0  0.76406419400119  0.40400004554148455  0.40893571978224186  1.0000
  C   C2        1.0  0.6676667838728004  0.4027576407877252  0.40808838265521374  1.0000
  C   C3        1.0  0.6199721062352226  0.49951593905351216  0.47397256905857327  1.0000
  C   C4        1.0  0.5264596810528965  0.49851838414107474  0.4732931899467203  1.0000
  C   C5        1.0  0.4797294193089976  0.4008119112989346  0.40676344746686155  1.0000
  C   C6        1.0  0.3830851239747254  0.40290831460189264  0.40819220468664386  1.0000
  N   N2        1.0  0.30560617335949586  0.40457207804082645  0.40932643198824575  1.0000
  C   C7        1.0  0.5274175864832934  0.3027149778827858  0.33996721289600695  1.0000
  C   C8        1.0  0.4790268127501218  0.1964877436511563  0.2676367842166575  1.0000
  C   C9        1.0  0.621561793872541  0.3047304408181577  0.3413396240936293  1.0000
  H   H1        1.0  0.6550698699341675  0.5757525083973183  0.5258837858834113  1.0000
  H   H2        1.0  0.49047708748161745  0.5741678199993838  0.5248044754502539  1.0000
  H   H3        1.0  0.4361867204766336  0.23982324747573203  0.17903871954015727  1.0000
  H   H4        1.0  0.43636422210197345  0.14067032448456554  0.3477423492538152  1.0000
  H   H5        1.0  0.5264373709059638  0.127682764760628  0.22078001968594288  1.0000
  H   H6        1.0  0.6590381537275966  0.2300873706664415  0.29051387752739277  1.0000
  C   C10       1.0  0.07358284641674605  0.02353617940126406  0.40947667405884425  1.0000
  C   C11       1.0  0.1660725553639505  0.02057202089024956  0.4371814717941616  1.0000
  C   C12       1.0  0.21196348025235479  0.9021444396866078  0.4509277522252959  1.0000
  C   C13       1.0  0.16607255458051254  0.7854640515783539  0.43718140400742517  1.0000
  C   C14       1.0  0.07358285605631472  0.7860211219874543  0.4094767565626867  1.0000
  C   C15       1.0  0.02778884711952045  0.9056504215483014  0.3957593744301844  1.0000
  Cl  Cl1       1.0  0.3275051628561349  0.8999450154772556  0.4855375460432865  1.0000
  H   H7        1.0  0.03874359213923784  0.3519558366712656  0.3990399550239081  1.0000
  H   H8        1.0  0.20285796025121788  0.10991836634870265  0.44820021941534943  1.0000
  H   H9        1.0  0.2028579247354937  0.6947171725711353  0.4482001158812059  1.0000
  H   H10       1.0  0.9564579767791604  0.9070081429957877  0.3743925572287478  1.0000
  H   H11       1.0  0.03874358804776645  0.4589278725789346  0.3990402271572761  1.0000
  C   C16       1.0  0.07315467941593279  0.40076662527973334  0.9862120498422327  1.0000
  C   C17       1.0  0.9909112832525324  0.4091088390214559  0.05894391643423403  1.0000
  C   C18       1.0  0.9102848804053191  0.430007338286414  0.9827378105613108  1.0000
  C   C19       1.0  0.9123983040725652  0.44099504421628144  0.8312377985146147  1.0000
  C   C20       1.0  0.9931758127638616  0.4307480407767659  0.7574974112621069  1.0000
  C   C21       1.0  0.07401106911068345  0.40879060575243814  0.8327413571691296  1.0000
  C   C22       1.0  0.8247187883090464  0.43904786141674707  0.06265095295293399  1.0000
  O   O1        1.0  0.8187366386027137  0.3888128564856057  0.19002528679301411  1.0000
  N   N3        1.0  0.7485524526046148  0.504981927784856  0.9991617792196279  1.0000
  H   H12       1.0  0.2904044197705249  0.4501586547460384  0.08603723331591763  1.0000
  H   H13       1.0  0.8515063891393861  0.4538869536817767  0.7686524694470172  1.0000
  H   H14       1.0  0.22044441971043177  0.4360348103636784  0.5497286648480966  1.0000
  H   H15       1.0  0.7528647397514864  0.5610407598441189  0.9014932758353722  1.0000
  H   H16       1.0  0.6880306222901266  0.5048909704613431  0.05544181413888594  1.0000
  Zn  Zn1       1.0  0.97546727230744  0.40486961558502466  0.4095396904733955  1.0000
  Zn  Zn2       1.0  0.1716898748540584  0.4046870263851381  0.40941303068340584  1.0000
  C   C23       1.0  0.07384717199134627  0.40210190010927277  0.6727291693166648  1.0000
  C   C24       1.0  0.07331211805804516  0.4074563793056279  0.14622369192650697  1.0000
  C   C25       1.0  0.07357245017386366  0.6418407689069443  0.40373300536988094  1.0000
  C   C26       1.0  0.07358677299614769  0.16771595149305396  0.41521993276136865  1.0000
  O   O2        1.0  0.14783041094809923  0.4096265662818009  0.19987699400395711  1.0000
  O   O3        1.0  0.14825729373244212  0.39979214881190056  0.6189793204739567  1.0000
  O   O4        1.0  0.1480344500766788  0.593384332417938  0.40176301554246585  1.0000
  O   O5        1.0  0.14805318753705343  0.21603439100094946  0.41709319090679386  1.0000
  O   O6        1.0  0.9991038926632932  0.5935222510328639  0.40185953028564914  1.0000
  O   O7        1.0  0.999326736237285  0.3999316265053788  0.6190757583647035  1.0000
  O   O8        1.0  0.998899851759435  0.4097659823077127  0.19997169896449332  1.0000
  O   O9        1.0  0.9991226284540468  0.21617379876532583  0.41718800393162603  1.0000
