data_image0
_chemical_formula_structural       NC9NC5H8C9H8C6BrH5Zn2C4O8
_chemical_formula_sum              "N2 C33 H21 Br1 Zn2 O8"
_cell_length_a       17.807436237873137
_cell_length_b       9.275152443626249
_cell_length_c       10.302972455390007
_cell_angle_alpha    85.36323497079522
_cell_angle_beta     89.39215201277248
_cell_angle_gamma    88.96355956710403

_space_group_name_H-M_alt    "P 1"
_space_group_IT_number       1

loop_
  _space_group_symop_operation_xyz
  'x, y, z'

loop_
  _atom_site_type_symbol
  _atom_site_label
  _atom_site_symmetry_multiplicity
  _atom_site_fract_x
  _atom_site_fract_y
  _atom_site_fract_z
  _atom_site_occupancy
  N   N1        1.0  0.7154741216298779  0.541129974547246  0.5526867219394993  1.0000
  C   C1        1.0  0.6546821674443483  0.5020514199367178  0.5417911731675837  1.0000
  C   C2        1.0  0.579063658082568  0.4534420015568972  0.5282382933284717  1.0000
  C   C3        1.0  0.5605574283948933  0.3741354238925769  0.4235232291683444  1.0000
  C   C4        1.0  0.48713511648417424  0.32681560707238355  0.41028204844397237  1.0000
  C   C5        1.0  0.4311681225604441  0.3583831167291651  0.50172482910752  1.0000
  C   C6        1.0  0.3531397994360386  0.308221954251471  0.4877345232567818  1.0000
  C   C7        1.0  0.2914383850622188  0.39901301994938415  0.5133750888458453  1.0000
  C   C8        1.0  0.2178725887547873  0.3514677266862576  0.5001483044040551  1.0000
  C   C9        1.0  0.15513671955969124  0.44524756999463033  0.5261431132173462  1.0000
  N   N2        1.0  0.104710035079262  0.5206400759428809  0.5470422339641439  1.0000
  C   C10       1.0  0.2054231632767848  0.21284487793033502  0.4612565274056466  1.0000
  C   C11       1.0  0.2662671273600128  0.12203842914230466  0.4356076239867921  1.0000
  C   C12       1.0  0.3397111997518827  0.16914558106657718  0.4486333353327536  1.0000
  C   C13       1.0  0.4503686285661411  0.43823869290863504  0.6066572982736209  1.0000
  C   C14       1.0  0.5238427058340738  0.48534707546869765  0.6197435544470498  1.0000
  H   H1        1.0  0.6028217672459744  0.3491658058667465  0.3519138319271258  1.0000
  H   H2        1.0  0.47391075355951756  0.26720135631076625  0.32757922837298525  1.0000
  H   H3        1.0  0.3005020434569665  0.507248774617787  0.5418971178705874  1.0000
  H   H4        1.0  0.1487604164621426  0.1750475005473009  0.4507857871989236  1.0000
  H   H5        1.0  0.2565098892925459  0.014713413452464907  0.4058826727147127  1.0000
  H   H6        1.0  0.3859701068815423  0.0961350457008683  0.4298242652479673  1.0000
  H   H7        1.0  0.4088180377130478  0.4626096809778892  0.679562677590763  1.0000
  H   H8        1.0  0.5376025097694163  0.5463168089266441  0.7014007648036205  1.0000
  C   C15       1.0  0.9078800663147527  0.10736919313863932  0.5512220209731375  1.0000
  C   C16       1.0  0.8807860609631348  0.19153484925900874  0.44131959652989466  1.0000
  C   C17       1.0  0.8606735179889896  0.1271522466127839  0.3292509278490807  1.0000
  C   C18       1.0  0.867339175691094  0.9774594187108604  0.32486456187862545  1.0000
  C   C19       1.0  0.892964489546298  0.8916829294563099  0.433856145948081  1.0000
  C   C20       1.0  0.9123112115970037  0.9543894506694656  0.5485181032306561  1.0000
  C   C21       1.0  0.846990700541595  0.9113810724944972  0.20880345638222583  1.0000
  C   C22       1.0  0.8299536075668832  0.8560225666962246  0.11162045493191308  1.0000
  C   C23       1.0  0.8092824628753094  0.7888427932537921  0.9937059211432103  1.0000
  H   H9        1.0  0.015801321295151105  0.183339545917984  0.8089388293532164  1.0000
  H   H10       1.0  0.8768296955228082  0.30826060320516047  0.44096859167339786  1.0000
  H   H11       1.0  0.8405927680944438  0.19444908222397062  0.24545888121502799  1.0000
  H   H12       1.0  0.8961267144988317  0.775206435880705  0.4301885664410967  1.0000
  H   H13       1.0  0.9825636899821103  0.6553918828815244  0.7248394018731872  1.0000
  H   H14       1.0  0.8230126872204993  0.6713981887207036  0.0056355506926459836  1.0000
  H   H15       1.0  0.7481526045057056  0.8046433091992466  0.9768190204667365  1.0000
  H   H16       1.0  0.841000383100152  0.8395216515014432  0.909210130591358  1.0000
  C   C24       1.0  0.9100956125257488  0.530879295624505  0.16862752768647393  1.0000
  C   C25       1.0  0.9312297149585778  0.38380612132923053  0.17772685434409752  1.0000
  C   C26       1.0  0.9417134118853705  0.3108498840038156  0.06530277584185162  1.0000
  C   C27       1.0  0.9312298412511999  0.38380605837490744  0.9426444620867827  1.0000
  C   C28       1.0  0.9100956480814129  0.5308792977007022  0.931112609233065  1.0000
  C   C29       1.0  0.8996306152649113  0.6037056352198215  0.04476209659540498  1.0000
  Br  Br1       1.0  0.9704592775573778  0.11080495472365026  0.07933382305533487  1.0000
  H   H17       1.0  0.9021412386217551  0.5862364956698092  0.49250416613444886  1.0000
  H   H18       1.0  0.9396427023749718  0.32525898786855917  0.2718326045130435  1.0000
  H   H19       1.0  0.9396429994032316  0.3252590205603252  0.8567516974258291  1.0000
  H   H20       1.0  0.8833311463425162  0.7171341089964907  0.03680629081697262  1.0000
  H   H21       1.0  0.9021401802347799  0.5862360097071715  0.5994705591834553  1.0000
  Zn  Zn1       1.0  0.8277991769684802  0.5352131841664269  0.551065365225669  1.0000
  Zn  Zn2       1.0  0.9923849000427554  0.5265451102257177  0.5486743012804938  1.0000
  C   C30       1.0  0.9100639168935917  0.5251339542431648  0.7870049830707156  1.0000
  C   C31       1.0  0.9101219669083448  0.536626065204455  0.31273477894038026  1.0000
  C   C32       1.0  0.9114697597300804  0.7942847674666461  0.5438558268651352  1.0000
  C   C33       1.0  0.9087160588455322  0.267473522200369  0.5558840107088554  1.0000
  O   O1        1.0  0.9725902029252185  0.5352589527992444  0.3601911126762929  1.0000
  O   O2        1.0  0.9725124307438792  0.5199211110970436  0.7377335168768411  1.0000
  O   O3        1.0  0.9736468246308225  0.7372638409955306  0.5413888603654906  1.0000
  O   O4        1.0  0.9714557529302831  0.31791623617550613  0.5565356726282142  1.0000
  O   O5        1.0  0.848728267915931  0.743842061176196  0.5432039946870675  1.0000
  O   O6        1.0  0.8475938830902902  0.5265010640178709  0.7395485764446428  1.0000
  O   O7        1.0  0.8476716550585669  0.5418388554600047  0.3620046115204758  1.0000
  O   O8        1.0  0.846537205006602  0.32449612852107546  0.5583492688409455  1.0000
