data_image0
_chemical_formula_structural       NC6NCNCH5C6NCH9C6H4Zn2C4O8
_chemical_formula_sum              "N4 C25 H18 Zn2 O8"
_cell_length_a       14.933214217465613
_cell_length_b       9.273386996610927
_cell_length_c       10.681121600428288
_cell_angle_alpha    85.46621756597041
_cell_angle_beta     89.96595612778619
_cell_angle_gamma    89.43266693644959

_space_group_name_H-M_alt    "P 1"
_space_group_IT_number       1

loop_
  _space_group_symop_operation_xyz
  'x, y, z'

loop_
  _atom_site_type_symbol
  _atom_site_label
  _atom_site_symmetry_multiplicity
  _atom_site_fract_x
  _atom_site_fract_y
  _atom_site_fract_z
  _atom_site_occupancy
  N   N1        1.0  0.8329377342798966  0.5797401996642204  0.6156574169764586  1.0000
  C   C1        1.0  0.7554409740602354  0.5807373079979818  0.6147954797042092  1.0000
  C   C2        1.0  0.659034429231059  0.5819804473836916  0.6137207506393147  1.0000
  C   C3        1.0  0.6118345887460517  0.48617650061101725  0.6965539735448307  1.0000
  C   C4        1.0  0.5182941016076439  0.48725983678695295  0.6956173339542175  1.0000
  C   C5        1.0  0.47105145883009314  0.5840922288659157  0.611894936934299  1.0000
  C   C6        1.0  0.3744896841789642  0.5819826049797476  0.6137189484944865  1.0000
  N   N2        1.0  0.2970155153803211  0.5802227125826505  0.6152402528933212  1.0000
  C   C7        1.0  0.5183421788471975  0.6811059182438557  0.5280158675197935  1.0000
  N   N3        1.0  0.47237438263808373  0.781751972448424  0.44099633720014925  1.0000
  C   C8        1.0  0.6123693249958906  0.679056036301734  0.5297883206610046  1.0000
  H   H1        1.0  0.6473245931234956  0.41064153162139183  0.7618623617853733  1.0000
  H   H2        1.0  0.482698957855992  0.4123602797266317  0.7603762265617479  1.0000
  H   H3        1.0  0.508266545432674  0.8528378876465589  0.37953458068603335  1.0000
  H   H4        1.0  0.40259799567086263  0.7871072008978983  0.43636620551721733  1.0000
  H   H5        1.0  0.6490938180145377  0.7532019805838959  0.4656808678582287  1.0000
  C   C9        1.0  0.06773458525314702  0.15633031558661248  0.6160617490688309  1.0000
  C   C10       1.0  0.08345791668386804  0.2398222605491549  0.5028179459319004  1.0000
  C   C11       1.0  0.09074983408094961  0.17532695130354514  0.38957472193788556  1.0000
  C   C12       1.0  0.08242872667883505  0.02501763577180549  0.3866800033407689  1.0000
  C   C13       1.0  0.06828346155401738  0.9405644170412817  0.499529053539175  1.0000
  C   C14       1.0  0.062227277638266215  0.0036214464505477475  0.614846813609125  1.0000
  N   N4        1.0  0.08896364710525906  0.9554851148478064  0.27109957671483254  1.0000
  C   C15       1.0  0.10388120602344175  0.033397119636022994  0.1488810343383591  1.0000
  H   H6        1.0  0.08602936193057255  0.4184940570808149  0.8216432863376703  1.0000
  H   H7        1.0  0.08802528562332457  0.3564729022968167  0.5012774513614966  1.0000
  H   H8        1.0  0.10204266390065579  0.24394080950859554  0.30450082915738896  1.0000
  H   H9        1.0  0.064056760070202  0.8241589532130401  0.49755729510006685  1.0000
  H   H10       1.0  0.09519809375260203  0.8722937759526814  0.9198296650566009  1.0000
  H   H11       1.0  0.08263275809909154  0.8431114104493802  0.27370210010248597  1.0000
  H   H12       1.0  0.04836816356601225  0.11191296767328265  0.12717261425237614  1.0000
  H   H13       1.0  0.1686958598736139  0.09101625176943617  0.14902485470106708  1.0000
  H   H14       1.0  0.10613861353447623  0.9559628718802037  0.07474184355853097  1.0000
  C   C16       1.0  0.06498096057709013  0.579975870608546  0.24770904105094815  1.0000
  C   C17       1.0  0.0014081762509592364  0.49967337656100813  0.18645921266787946  1.0000
  C   C18       1.0  0.0014081197408215567  0.4996734690079773  0.055577072632592366  1.0000
  C   C19       1.0  0.06498088972139904  0.57997594125475  0.9831994766891592  1.0000
  C   C20       1.0  0.12850120464517945  0.6602118888052055  0.044448867616893706  1.0000
  C   C21       1.0  0.128501193333715  0.6602118664227237  0.17534116632231544  1.0000
  H   H15       1.0  0.951576826741418  0.43672848646435236  0.23963138623510094  1.0000
  H   H16       1.0  0.9515768075981206  0.4367285543537109  0.011127356929001355  1.0000
  H   H17       1.0  0.1783390610140112  0.7231650733558297  0.9913210116368112  1.0000
  H   H18       1.0  0.17833901622527137  0.7231650227353511  0.2197453792342885  1.0000
  Zn  Zn1       1.0  0.966860583040738  0.5798755714306352  0.6155442772592166  1.0000
  Zn  Zn2       1.0  0.16309272888478277  0.5800755054945193  0.6153636934901079  1.0000
  C   C22       1.0  0.06501628593625552  0.5742286175958344  0.8441842946284978  1.0000
  C   C23       1.0  0.06493915700650921  0.5857242818052177  0.3867237944516282  1.0000
  C   C24       1.0  0.06326368206961268  0.8434653961552122  0.6100861478072908  1.0000
  C   C25       1.0  0.06669170517902324  0.31648576988497856  0.6208220105850946  1.0000
  O   O1        1.0  0.13939424493131447  0.5877230811508025  0.4333098940341376  1.0000
  O   O2        1.0  0.13949686327842506  0.5723804752346535  0.7974607772131848  1.0000
  O   O3        1.0  0.13808060961256574  0.7897925778623927  0.6084248661446701  1.0000
  O   O4        1.0  0.14081043156935924  0.37031098877505975  0.6223457112533335  1.0000
  O   O5        1.0  0.9891428133917503  0.7896400880834373  0.608562259551026  1.0000
  O   O6        1.0  0.990559055787327  0.5722297187499035  0.7975981013623161  1.0000
  O   O7        1.0  0.9904564378266263  0.58757227439256  0.4334457126327187  1.0000
  O   O8        1.0  0.9918726245280748  0.37016017169816395  0.6224816237562685  1.0000
