data_image0
_chemical_formula_structural       NC8NH4C6NCOH7C9H10Zn2C4O8
_chemical_formula_sum              "N3 C28 H21 O9 Zn2"
_cell_length_a       13.859017124695912
_cell_length_b       9.273730183620392
_cell_length_c       10.297187173949778
_cell_angle_alpha    85.71383111101245
_cell_angle_beta     89.97407186165773
_cell_angle_gamma    90.59428990829208

_space_group_name_H-M_alt    "P 1"
_space_group_IT_number       1

loop_
  _space_group_symop_operation_xyz
  'x, y, z'

loop_
  _atom_site_type_symbol
  _atom_site_label
  _atom_site_symmetry_multiplicity
  _atom_site_fract_x
  _atom_site_fract_y
  _atom_site_fract_z
  _atom_site_occupancy
  N   N1        1.0  0.92002278181575  0.578108060888759  0.5708116774846517  1.0000
  C   C1        1.0  0.8475266057111309  0.5552417616028632  0.5201441696898104  1.0000
  C   C2        1.0  0.7573456795867433  0.5267994313385442  0.45712030275539783  1.0000
  C   C3        1.0  0.6699022786595478  0.5545278260418495  0.5185606452788283  1.0000
  C   C4        1.0  0.5821153684087395  0.5268006571056576  0.45711978351121735  1.0000
  C   C5        1.0  0.581954222295948  0.4713375910110469  0.33421972198148797  1.0000
  C   C6        1.0  0.669215723119824  0.44371576897171516  0.27301587940953453  1.0000
  C   C7        1.0  0.7568195645103092  0.4713352416698151  0.3342207785056617  1.0000
  C   C8        1.0  0.4922867735733261  0.5552426881062178  0.5201437230083629  1.0000
  N   N2        1.0  0.42007390970808833  0.5781083834760926  0.570811483558685  1.0000
  H   H1        1.0  0.6701682184732806  0.5974584058084862  0.6136882392676282  1.0000
  H   H2        1.0  0.5145235963457022  0.44951432294240834  0.28585945123266243  1.0000
  H   H3        1.0  0.6689503931195695  0.4008728817938597  0.1780809365961511  1.0000
  H   H4        1.0  0.8239797814256224  0.44950987297074535  0.285861403427915  1.0000
  C   C9        1.0  0.16710576667677457  0.154607485154723  0.5698451397595324  1.0000
  C   C10       1.0  0.18129520435923907  0.23807858321853587  0.45143408201137336  1.0000
  C   C11       1.0  0.20290286646676603  0.17325544529917142  0.33649184394929144  1.0000
  C   C12       1.0  0.21337989900359333  0.02280068540576585  0.3408545676297374  1.0000
  C   C13       1.0  0.19810924104308536  0.9381594255245276  0.45692929318686604  1.0000
  C   C14       1.0  0.17300010036991087  0.001597933631376503  0.5717892874096016  1.0000
  N   N3        1.0  0.21925219670237062  0.26301637527195604  0.21834141420611025  1.0000
  C   C15       1.0  0.1951928496459685  0.22204412515975758  0.09073160783159696  1.0000
  O   O1        1.0  0.1455973035715563  0.11014045945227902  0.07495723253987796  1.0000
  H   H5        1.0  0.18212420056266734  0.2312806096541437  0.8890589527852218  1.0000
  H   H6        1.0  0.17700334316012475  0.3549047945159707  0.44856917919391287  1.0000
  H   H7        1.0  0.2343468975960925  0.970294956308848  0.2550102659948692  1.0000
  H   H8        1.0  0.20431842049471127  0.8218678248751254  0.45621690871329035  1.0000
  H   H9        1.0  0.1789772355293964  0.7028093672761543  0.7865805066961088  1.0000
  H   H10       1.0  0.24430322307361596  0.36879080183919677  0.22547629155794538  1.0000
  H   H11       1.0  0.21763128186748215  0.2906466174774546  0.006287321943237562  1.0000
  C   C16       1.0  0.17018011889750317  0.5780505577015629  0.1893639204931106  1.0000
  C   C17       1.0  0.07267257086520497  0.6176621733183147  0.18597296644705175  1.0000
  C   C18       1.0  0.022716578372771412  0.6379561296658149  0.06761927641664367  1.0000
  C   C19       1.0  0.07229457984304499  0.6178151741916205  0.950750592684177  1.0000
  C   C20       1.0  0.16992573243659792  0.5781548459040617  0.952270469648723  1.0000
  C   C21       1.0  0.21823092456081006  0.5585301133792573  0.0719666996895818  1.0000
  C   C22       1.0  0.9172551351315447  0.6807986279926339  0.07338388657367557  1.0000
  C   C23       1.0  0.8493000622094299  0.622792345216431  0.9729789233439905  1.0000
  C   C24       1.0  0.8790994682413014  0.7818954395320091  0.9622446041498391  1.0000
  H   H12       1.0  0.2077555928591257  0.5628000194935437  0.5182080043064987  1.0000
  H   H13       1.0  0.0350293842761149  0.6329547915687865  0.27608623117915343  1.0000
  H   H14       1.0  0.03569591900705116  0.6326797410634929  0.8581776244128553  1.0000
  H   H15       1.0  0.2934598516463083  0.5279682024349208  0.07385554307817621  1.0000
  H   H16       1.0  0.3543197005043839  0.503229199347637  0.7479258983325527  1.0000
  H   H17       1.0  0.8833582585987954  0.6945701508132456  0.16949279093622385  1.0000
  H   H18       1.0  0.8815238849832248  0.5576998346698208  0.8983045218783814  1.0000
  H   H19       1.0  0.7741719644527475  0.6032786561616643  0.008052738825724104  1.0000
  H   H20       1.0  0.9294252727064588  0.8134491785780568  0.8810506187132048  1.0000
  H   H21       1.0  0.8213869536165417  0.8553709382710177  0.9910422665996137  1.0000
  Zn  Zn1       1.0  0.06432670933748108  0.5781043046200409  0.5708191180001165  1.0000
  Zn  Zn2       1.0  0.27576988912894973  0.578100376904421  0.5708146700741568  1.0000
  C   C25       1.0  0.16993167328670136  0.5723898680232622  0.8080516060091762  1.0000
  C   C26       1.0  0.17016724675330375  0.5838166331222425  0.33358231368782887  1.0000
  C   C27       1.0  0.17188268484509472  0.8414979667054545  0.5662454530012553  1.0000
  C   C28       1.0  0.1682161509631277  0.31470680177344085  0.5753885319741776  1.0000
  O   O2        1.0  0.2504044677451318  0.5857439984938839  0.3819816214892102  1.0000
  O   O3        1.0  0.25017492584791357  0.570458433597643  0.7596485459089783  1.0000
  O   O4        1.0  0.2517493102098882  0.7877666268246034  0.5643883700010912  1.0000
  O   O5        1.0  0.2488300113361943  0.36843581557151595  0.5772417000260874  1.0000
  O   O6        1.0  0.09126651497506998  0.7877688659558559  0.5643920880428746  1.0000
  O   O7        1.0  0.08969214268971082  0.5704624053984153  0.7596521986670232  1.0000
  O   O8        1.0  0.08992168482214183  0.5857479198255944  0.3819837123858356  1.0000
  O   O9        1.0  0.08834722830500043  0.3684397266015435  0.5772438882884114  1.0000
