data_image0
_chemical_formula_structural       NC6NCNCH5C6NCH9C6ClH3Zn2C4O8
_chemical_formula_sum              "N4 C25 H17 Cl1 Zn2 O8"
_cell_length_a       14.933214217465613
_cell_length_b       9.273386996610927
_cell_length_c       10.302974078461048
_cell_angle_alpha    85.46621229036245
_cell_angle_beta     89.96595870270414
_cell_angle_gamma    89.43266693644959

_space_group_name_H-M_alt    "P 1"
_space_group_IT_number       1

loop_
  _space_group_symop_operation_xyz
  'x, y, z'

loop_
  _atom_site_type_symbol
  _atom_site_label
  _atom_site_symmetry_multiplicity
  _atom_site_fract_x
  _atom_site_fract_y
  _atom_site_fract_z
  _atom_site_occupancy
  N   N1        1.0  0.8329376888754075  0.5797403476656429  0.564848221357352  1.0000
  C   C1        1.0  0.7554409286274765  0.5807374560915544  0.5639546486069962  1.0000
  C   C2        1.0  0.6590343837630503  0.5819805955921646  0.5628404740175867  1.0000
  C   C3        1.0  0.6118345459948563  0.4861766399637091  0.6487139049452928  1.0000
  C   C4        1.0  0.5182940588257274  0.48725997623978173  0.6477428880952005  1.0000
  C   C5        1.0  0.4710514133021999  0.5840923772695885  0.5609476479076649  1.0000
  C   C6        1.0  0.37448963871089613  0.5819827531884136  0.5628386057290669  1.0000
  N   N2        1.0  0.2970154699621496  0.5802228606286723  0.5644157462003772  1.0000
  C   C7        1.0  0.518342130568189  0.6811060756151218  0.4739899850160148  1.0000
  N   N3        1.0  0.4723743315049567  0.7817521391230337  0.3837765976317147  1.0000
  C   C8        1.0  0.612369276775016  0.6790561934835051  0.4758274920820864  1.0000
  H   H1        1.0  0.647324552514323  0.4106416639919  0.7164192913814951  1.0000
  H   H2        1.0  0.48269891719807634  0.4123604122560237  0.7148786108912426  1.0000
  H   H3        1.0  0.5082664922836881  0.8528380608921055  0.3200590249286617  1.0000
  H   H4        1.0  0.402597944385874  0.7871073680675196  0.3789765273300436  1.0000
  H   H5        1.0  0.6490937676910283  0.7532021446194572  0.4093671187305657  1.0000
  C   C9        1.0  0.06773453986191957  0.15633046354480729  0.5652673935540657  1.0000
  C   C10       1.0  0.08345786757840323  0.23982242061435532  0.44786723012251173  1.0000
  C   C11       1.0  0.09074978126126636  0.17532712347568943  0.33046766709001774  1.0000
  C   C12       1.0  0.08242867376420904  0.025017808253427583  0.3274667043267048  1.0000
  C   C13       1.0  0.06828341234068125  0.9405645774581011  0.44445762629679175  1.0000
  C   C14       1.0  0.06222723220719043  0.003621594538632196  0.5640078666079793  1.0000
  N   N4        1.0  0.08896359039975765  0.9554852996862447  0.2076441568715801  1.0000
  C   C15       1.0  0.10388114530934424  0.033397317540965414  0.08093985648690794  1.0000
  H   H6        1.0  0.08602932328213014  0.418494183060086  0.7783943409481615  1.0000
  H   H7        1.0  0.08802523646733329  0.35647306252671296  0.44627019514734323  1.0000
  H   H8        1.0  0.1020426082906683  0.24394099077607323  0.2422713275153736  1.0000
  H   H9        1.0  0.06405671079219499  0.8241591138406617  0.44241349887801396  1.0000
  H   H10       1.0  0.09519805832453493  0.8722938914347503  0.8801844309049319  1.0000
  H   H11       1.0  0.08263270147894941  0.84311159500958  0.21034220005435333  1.0000
  H   H12       1.0  0.04836810213990895  0.11191316789909368  0.058434677436592475  1.0000
  H   H13       1.0  0.1686957991642335  0.09101644965900246  0.08108895545408279  1.0000
  H   H14       1.0  0.10613855038871733  0.9559630777114394  0.004079552672221934  1.0000
  C   C16       1.0  0.06498090310441196  0.5799760579476898  0.18339512395654056  1.0000
  C   C17       1.0  0.05037828724479357  0.4301196901761804  0.1928660546524701  1.0000
  C   C18       1.0  0.04313291350220852  0.3557650421771885  0.0806084809177865  1.0000
  C   C19       1.0  0.05037832676509879  0.4301197716935636  0.9577581555229249  1.0000
  C   C20       1.0  0.06498090130432632  0.579975983476089  0.9458801431427923  1.0000
  C   C21       1.0  0.0722110439080037  0.6541737117507647  0.05935244784036954  1.0000
  Cl  Cl1       1.0  0.02489078012520808  0.16855883814268235  0.09394346607695227  1.0000
  H   H15       1.0  0.044570498096652145  0.3705183132748344  0.28715809465996633  1.0000
  H   H16       1.0  0.0445705608053888  0.3705182927541393  0.8719571285583521  1.0000
  H   H17       1.0  0.08347297938039838  0.7697474404237961  0.051119856828433896  1.0000
  Zn  Zn1       1.0  0.9668605376325378  0.5798757194441533  0.5647309291000551  1.0000
  Zn  Zn2       1.0  0.1630926834706603  0.5800756535273437  0.5645437174079433  1.0000
  C   C22       1.0  0.06501624802712662  0.5742287411652243  0.8017626664896067  1.0000
  C   C23       1.0  0.06493910409331938  0.5857244542821578  0.3275121026922607  1.0000
  C   C24       1.0  0.06326363648239378  0.8434655447522639  0.5590724712247768  1.0000
  C   C25       1.0  0.06669165994392579  0.31648591733424886  0.5702023698133019  1.0000
  O   O1        1.0  0.13939419354608273  0.5877232486471771  0.3758080407756188  1.0000
  O   O2        1.0  0.13949682383683049  0.5723806037993002  0.7533242669595055  1.0000
  O   O3        1.0  0.13808056397085944  0.7897927266370539  0.5573502159375565  1.0000
  O   O4        1.0  0.14081038638423693  0.37031113606142996  0.5717819945037201  1.0000
  O   O5        1.0  0.98914276775455  0.7896402368434101  0.5574926520613335  1.0000
  O   O6        1.0  0.9905590163502369  0.5722298472998686  0.7534666312841264  1.0000
  O   O7        1.0  0.9904563864458494  0.5875724418744137  0.3759488442918271  1.0000
  O   O8        1.0  0.99187257934741  0.37016031897000334  0.5719228953708315  1.0000
