data_image0
_chemical_formula_structural       NC12NC2H8C12ClH9C12NCOH11Zn2C4O8
_chemical_formula_sum              "N3 C43 H28 Cl1 O9 Zn2"
_cell_length_a       17.80743265337812
_cell_length_b       10.299768534541528
_cell_length_c       10.299148425239203
_cell_angle_alpha    85.5385229165027
_cell_angle_beta     91.51916060690996
_cell_angle_gamma    89.45366305101135

_space_group_name_H-M_alt    "P 1"
_space_group_IT_number       1

loop_
  _space_group_symop_operation_xyz
  'x, y, z'

loop_
  _atom_site_type_symbol
  _atom_site_label
  _atom_site_symmetry_multiplicity
  _atom_site_fract_x
  _atom_site_fract_y
  _atom_site_fract_z
  _atom_site_occupancy
  N   N1        1.0  0.7078803071474488  0.407194583757595  0.6013373876665444  1.0000
  C   C1        1.0  0.6570756646355341  0.43677896961194085  0.5326368515764919  1.0000
  C   C2        1.0  0.5938696729493664  0.4735797967699295  0.4471820329909715  1.0000
  C   C3        1.0  0.6056242287381151  0.5276476444022073  0.32055894222455095  1.0000
  C   C4        1.0  0.5443249741772527  0.5629439950724404  0.23750014365143768  1.0000
  C   C5        1.0  0.4711170026724725  0.5444362086221461  0.2804045153475667  1.0000
  C   C6        1.0  0.4583855855708471  0.49024938268648527  0.40749576529748466  1.0000
  C   C7        1.0  0.5205421591567304  0.45495629211272587  0.4905380515447799  1.0000
  C   C8        1.0  0.380608797768322  0.4706264027745201  0.45326051144530966  1.0000
  C   C9        1.0  0.3618102641207762  0.49776455114299906  0.5803126039147055  1.0000
  C   C10       1.0  0.2885723486405148  0.4792983222052474  0.6232575427781172  1.0000
  C   C11       1.0  0.23318983490165973  0.433439360749861  0.5399883851395837  1.0000
  C   C12       1.0  0.1578150193877683  0.4144197856176108  0.5843342904520343  1.0000
  N   N2        1.0  0.09721900542610691  0.3991293263937743  0.619985347619608  1.0000
  C   C13       1.0  0.25129676955049  0.4061320976072442  0.41347927980211785  1.0000
  C   C14       1.0  0.3244818679029908  0.4246132081202254  0.3702784421049943  1.0000
  H   H1        1.0  0.6620973553561154  0.5424841818509787  0.28612105271135535  1.0000
  H   H2        1.0  0.553544205750185  0.605077317899904  0.13971853481986618  1.0000
  H   H3        1.0  0.42449209794241705  0.5740960330593654  0.21481208257272066  1.0000
  H   H4        1.0  0.5120210782688391  0.41143772469871354  0.5881951343099703  1.0000
  H   H5        1.0  0.4034843524841066  0.5349186986751733  0.6458909435887572  1.0000
  H   H6        1.0  0.2751194396354027  0.5011067450670998  0.7212724363767865  1.0000
  H   H7        1.0  0.20890597362558  0.3702450610943541  0.3483139830022306  1.0000
  H   H8        1.0  0.337406064299167  0.40126914296429317  0.2725668165705626  1.0000
  C   C15       1.0  0.9024823969832216  0.02179796628354635  0.6106560042776776  1.0000
  C   C16       1.0  0.9074505852152831  0.031317710933486106  0.47441559069404504  1.0000
  C   C17       1.0  0.9100402276725094  0.9190005748658254  0.40539233815590864  1.0000
  C   C18       1.0  0.9075940659998895  0.7960270147804186  0.47443795393230004  1.0000
  C   C19       1.0  0.9026241104625928  0.7845157777289684  0.6106782208144066  1.0000
  C   C20       1.0  0.9000966612314549  0.8979580986966312  0.678024326078918  1.0000
  C   C21       1.0  0.9152971555306143  0.9301253182173477  0.26126138598299087  1.0000
  C   C22       1.0  0.8725693355433901  0.024581594670485263  0.18474592084557062  1.0000
  C   C23       1.0  0.8775842407001051  0.03485533533174756  0.04909696391094398  1.0000
  C   C24       1.0  0.9252546689818048  0.9511971381666314  0.9882680344324567  1.0000
  C   C25       1.0  0.9679704023305051  0.8570539873196503  0.06327159554831696  1.0000
  C   C26       1.0  0.9630889064482526  0.8463852257029281  0.19894158658133398  1.0000
  Cl  Cl1       1.0  0.9314629065359489  0.9643348518389485  0.818068589003841  1.0000
  H   H9        1.0  0.9005507266007833  0.345625025100448  0.66256520890029  1.0000
  H   H10       1.0  0.9103548144593628  0.1262919287925479  0.42181845340364355  1.0000
  H   H11       1.0  0.9085377857081876  0.70919577867164  0.42153334526881486  1.0000
  H   H12       1.0  0.8962631718729974  0.8898458809644161  0.7831274971862141  1.0000
  H   H13       1.0  0.9007602359424368  0.4526750900377947  0.6625984741353683  1.0000
  H   H14       1.0  0.8345780676653729  0.08932500106720952  0.22967297852026292  1.0000
  H   H15       1.0  0.8442373734086944  0.1076834631540409  0.9913841265684984  1.0000
  H   H16       1.0  0.00512409946078485  0.792282021501404  0.016614826362222782  1.0000
  H   H17       1.0  0.9973893002247256  0.7738312781732893  0.2552056858104801  1.0000
  C   C27       1.0  0.9026097843158029  0.403311560709217  0.22927363313205595  1.0000
  C   C28       1.0  0.9788378931833456  0.43729104985362327  0.22895597487318062  1.0000
  C   C29       1.0  0.01736776841358778  0.4543076332177902  0.1116570566150481  1.0000
  C   C30       1.0  0.9786794583995211  0.4369541846096121  0.9936912245241979  1.0000
  C   C31       1.0  0.9024967059738257  0.40300222930157176  0.9920605996165893  1.0000
  C   C32       1.0  0.8649088093181218  0.3863709972917315  0.11037902864741513  1.0000
  C   C33       1.0  0.09796256054257735  0.4902305308268715  0.11241149955001851  1.0000
  C   C34       1.0  0.14843308924407683  0.43181461760485446  0.031229650572551552  1.0000
  C   C35       1.0  0.22423642331380297  0.4657573558522654  0.03208696110756626  1.0000
  C   C36       1.0  0.25134382844657654  0.5574679148358971  0.11489616623119825  1.0000
  C   C37       1.0  0.20079908688195514  0.6177315635366136  0.19450610147813374  1.0000
  C   C38       1.0  0.12496182216650052  0.5838961957213828  0.19374400919410828  1.0000
  N   N3        1.0  0.3293710035821713  0.5920581936803253  0.11209872200569061  1.0000
  C   C39       1.0  0.3725904285076249  0.6278355832362755  0.22289961892653398  1.0000
  O   O1        1.0  0.3471683945367584  0.6141997954707914  0.33604188381611944  1.0000
  H   H18       1.0  0.7588523675316066  0.33841059886229163  0.4372317701004902  1.0000
  H   H19       1.0  0.008646390187269317  0.4488688620003709  0.3203103461493846  1.0000
  H   H20       1.0  0.007830547630391045  0.45174184920671245  0.9028548713509849  1.0000
  H   H21       1.0  0.8061480260449074  0.3601794519831987  0.10983642444582543  1.0000
  H   H22       1.0  0.8731969700289367  0.38990705285897675  0.6639603841141017  1.0000
  H   H23       1.0  0.12947883697766627  0.35869817983861396  0.9681474743783602  1.0000
  H   H24       1.0  0.26218713422182804  0.4194336872707849  0.9689488261210157  1.0000
  H   H25       1.0  0.21932742448425024  0.6930213415160504  0.2551613131672905  1.0000
  H   H26       1.0  0.08710025249945597  0.6328842457943132  0.2549938937631886  1.0000
  H   H27       1.0  0.35826304277386023  0.5825204560461655  0.026299291026150362  1.0000
  H   H28       1.0  0.4290057954639739  0.6637063460600636  0.20977859155773548  1.0000
  Zn  Zn1       1.0  0.8202350468765229  0.40486365443049643  0.6067262734047663  1.0000
  Zn  Zn2       1.0  0.9848642596646512  0.4014496581043836  0.6146070553061806  1.0000
  C   C40       1.0  0.9025154495535372  0.3978871216939639  0.8478773286169132  1.0000
  C   C41       1.0  0.9025856550190615  0.40842779210660535  0.37345621367442283  1.0000
  C   C42       1.0  0.9025942175983561  0.6403480903113075  0.6054983675752155  1.0000
  C   C43       1.0  0.9025068304976497  0.16596526434399972  0.6158352412245136  1.0000
  O   O2        1.0  0.9650534842347653  0.40884358662015363  0.4248359203237595  1.0000
  O   O3        1.0  0.9649973834567377  0.39487920340534094  0.8024785791831364  1.0000
  O   O4        1.0  0.9650601472435084  0.5906695188188704  0.6067558129931547  1.0000
  O   O5        1.0  0.964990664287357  0.21305328170118118  0.6205585864438896  1.0000
  O   O6        1.0  0.8401085860739478  0.5932600320001447  0.6007747395709016  1.0000
  O   O7        1.0  0.8400458225839007  0.39747127689832285  0.7964974365563346  1.0000
  O   O8        1.0  0.8401019236349494  0.41143561548996344  0.41885321619667737  1.0000
  O   O9        1.0  0.8400391036683089  0.21564530124288026  0.6145759796905037  1.0000
