data_image0
_chemical_formula_structural       NC12NC2H8C13OH12C12BrH9Zn2C4O8
_chemical_formula_sum              "N2 C43 H29 O9 Br1 Zn2"
_cell_length_a       17.80743265337812
_cell_length_b       10.29915010939255
_cell_length_c       10.299148005577397
_cell_angle_alpha    85.53215182685325
_cell_angle_beta     91.5074316760828
_cell_angle_gamma    89.41750150667457

_space_group_name_H-M_alt    "P 1"
_space_group_IT_number       1

loop_
  _space_group_symop_operation_xyz
  'x, y, z'

loop_
  _atom_site_type_symbol
  _atom_site_label
  _atom_site_symmetry_multiplicity
  _atom_site_fract_x
  _atom_site_fract_y
  _atom_site_fract_z
  _atom_site_occupancy
  N   N1        1.0  0.7075261056075883  0.4069476927780059  0.6008103008519778  1.0000
  C   C1        1.0  0.6567187468422302  0.4365160947904445  0.5320997401137021  1.0000
  C   C2        1.0  0.5935093758936907  0.4732970402148993  0.4466324514955562  1.0000
  C   C3        1.0  0.6052590959945928  0.52733538292611  0.31999106857742743  1.0000
  C   C4        1.0  0.5439567324381891  0.5626123632072673  0.23692033927827974  1.0000
  C   C5        1.0  0.47075046913566493  0.5441145557551589  0.2798309843201623  1.0000
  C   C6        1.0  0.45802387554869933  0.4899573517227392  0.4069405615781867  1.0000
  C   C7        1.0  0.5201835589072044  0.4546836273206605  0.48999477768727734  1.0000
  C   C8        1.0  0.3802488657537704  0.47034502767411057  0.45271195167563844  1.0000
  C   C9        1.0  0.3614249597500604  0.497520720869578  0.5797497374093504  1.0000
  C   C10       1.0  0.2881887321559489  0.47906448612673597  0.6227009318509593  1.0000
  C   C11       1.0  0.2328332723237507  0.43317817937533537  0.5394524161554759  1.0000
  C   C12       1.0  0.157460181537785  0.41416892925917215  0.5838047614280919  1.0000
  N   N2        1.0  0.09686555414958381  0.39888677063512484  0.6194609958923448  1.0000
  C   C13       1.0  0.25096557676635667  0.40583350404979845  0.4129576708173711  1.0000
  C   C14       1.0  0.32414901251121  0.4243045515319935  0.36975057845124903  1.0000
  H   H1        1.0  0.661730858566026  0.542163908713009  0.2855481513011209  1.0000
  H   H2        1.0  0.5531720883782647  0.6047229387186491  0.13912445198853754  1.0000
  H   H3        1.0  0.4241224459867821  0.5737592574116511  0.2142284130479644  1.0000
  H   H4        1.0  0.511666883062545  0.4111876378812973  0.5876666981472853  1.0000
  H   H5        1.0  0.4030773564039771  0.5346965053660249  0.6453114040184088  1.0000
  H   H6        1.0  0.274715925497165  0.500901958234633  0.720704438296187  1.0000
  H   H7        1.0  0.20859595227879152  0.36992506763633615  0.34780852749378544  1.0000
  H   H8        1.0  0.33709364032516725  0.40093137061857487  0.2720509481570799  1.0000
  C   C15       1.0  0.902270193342198  0.02151603737769458  0.6102833236335433  1.0000
  C   C16       1.0  0.900849643380883  0.009720971579513014  0.747032417004377  1.0000
  C   C17       1.0  0.9000640976633255  0.8866074139044431  0.8161002752580275  1.0000
  C   C18       1.0  0.9007048973606594  0.7744686775655026  0.7466620711676687  1.0000
  C   C19       1.0  0.9021286566553194  0.7843082579129081  0.6099995345558773  1.0000
  C   C20       1.0  0.9029050505168952  0.9082923638526684  0.5426089050481822  1.0000
  C   C21       1.0  0.8985547908769445  0.8751114705482113  0.9606748716109649  1.0000
  C   C22       1.0  0.8523416028569322  0.7831779380090191  0.026485705917777772  1.0000
  C   C23       1.0  0.8508964572976143  0.7724421914122334  0.1625290643129208  1.0000
  C   C24       1.0  0.8961311165253696  0.8524713133933914  0.2352445540089182  1.0000
  C   C25       1.0  0.9416253891060397  0.9453732696465592  0.170041882988809  1.0000
  C   C26       1.0  0.9430879734519143  0.9562844522644213  0.03399907124263112  1.0000
  C   C27       1.0  0.8929986282593473  0.8433220419774372  0.3811876166279331  1.0000
  O   O1        1.0  0.8368377294786967  0.9276542385249553  0.4187398661472458  1.0000
  H   H9        1.0  0.9044634727279377  0.2510827178934452  0.3521396212433504  1.0000
  H   H10       1.0  0.899309426956332  0.09651704538425343  0.7999696978837282  1.0000
  H   H11       1.0  0.9011193370627232  0.6793283335744542  0.7995179157033799  1.0000
  H   H12       1.0  0.9040011128756266  0.9165981791784822  0.4371968994601474  1.0000
  H   H13       1.0  0.9026257196370412  0.4606184845047202  0.5574319077348051  1.0000
  H   H14       1.0  0.8164279824654724  0.720922064496082  0.9726541878043936  1.0000
  H   H15       1.0  0.8143380652198564  0.7018605741942882  0.21115571902059685  1.0000
  H   H16       1.0  0.9761550032625835  0.00921063600039984  0.2245533433407362  1.0000
  H   H17       1.0  0.979671319925032  0.027310843296130205  0.9861802930101115  1.0000
  H   H18       1.0  0.9482479565107891  0.8700002414924306  0.42400613192669284  1.0000
  H   H19       1.0  0.8807797946800312  0.7415470403399722  0.41841664847370796  1.0000
  H   H20       1.0  0.8370900333297484  0.9179546913718079  0.5153831627590322  1.0000
  C   C28       1.0  0.9023018134714724  0.40296209628716917  0.22875810925573165  1.0000
  C   C29       1.0  0.8316262987140255  0.46521013203674566  0.21991340523290992  1.0000
  C   C30       1.0  0.7956865314041289  0.4967201370235173  0.09828563794262558  1.0000
  C   C31       1.0  0.8313755801651561  0.46514251198846734  0.9846243865102677  1.0000
  C   C32       1.0  0.9020970228108125  0.4028622559908093  0.9915246903222933  1.0000
  C   C33       1.0  0.9371245187827133  0.3721535765730375  0.11399429933165384  1.0000
  C   C34       1.0  0.7209209031001286  0.5625729673522266  0.08997394976846353  1.0000
  C   C35       1.0  0.705121725696569  0.6642260882988126  0.16925832664975715  1.0000
  C   C36       1.0  0.634718397676452  0.7260976013806226  0.16123895782246178  1.0000
  C   C37       1.0  0.5793139599803122  0.687297736226187  0.07423476181879464  1.0000
  C   C38       1.0  0.5943584470884675  0.5864471700522706  0.9950614815964618  1.0000
  C   C39       1.0  0.6646979460157586  0.5243549949808877  0.002685334959518841  1.0000
  Br  Br1       1.0  0.48318720477838295  0.7719653393376958  0.06354970266904593  1.0000
  H   H21       1.0  0.9295019929723998  0.3790711912813691  0.5596323670762029  1.0000
  H   H22       1.0  0.8039005474137374  0.48773219251272204  0.30791678853878324  1.0000
  H   H23       1.0  0.8043909186279576  0.49079820622462056  0.8905061410922271  1.0000
  H   H24       1.0  0.9916393940253497  0.3241440292519402  0.12010044909242026  1.0000
  H   H25       1.0  0.03578966826014684  0.2860424969305724  0.7972095299432262  1.0000
  H   H26       1.0  0.7475048991398145  0.6969684325319732  0.23618399112764665  1.0000
  H   H27       1.0  0.6233591241014955  0.8044054739757137  0.22247095782089743  1.0000
  H   H28       1.0  0.5515304627567422  0.5558661966381514  0.9278067265067036  1.0000
  H   H29       1.0  0.6748002625523745  0.44538379909501363  0.9415944669342392  1.0000
  Zn  Zn1       1.0  0.8198810622338476  0.4046180162200193  0.6061999770685755  1.0000
  Zn  Zn2       1.0  0.9845105941512131  0.40120585145246107  0.6140819170684297  1.0000
  C   C40       1.0  0.9021350261414419  0.3977070397696541  0.8473473474130031  1.0000
  C   C41       1.0  0.9022584276546919  0.4081184293833911  0.37293475965607215  1.0000
  C   C42       1.0  0.9021529320165459  0.6401250875780014  0.6048776061351495  1.0000
  C   C43       1.0  0.902240465873988  0.16569882229594685  0.6154045680662037  1.0000
  O   O2        1.0  0.9647199174182464  0.4085483769075671  0.4243129178614893  1.0000
  O   O3        1.0  0.9646235421172734  0.3946863583827078  0.801951025796209  1.0000
  O   O4        1.0  0.9646371587682949  0.5904420150616747  0.6061549533754405  1.0000
  O   O5        1.0  0.9647062446147366  0.21279273069669527  0.6201088902108858  1.0000
  O   O6        1.0  0.8396853555903463  0.593031138141604  0.6001730012295685  1.0000
  O   O7        1.0  0.8396717386649468  0.39727704190755375  0.7959690038215079  1.0000
  O   O8        1.0  0.8397681144434838  0.41113901537599085  0.41832933444640363  1.0000
  O   O9        1.0  0.8397544416124842  0.2153833598628434  0.6141254041706211  1.0000
