data_image0
_chemical_formula_structural       NC8NC6H8C8NH5C9H8Zn2C4O8
_chemical_formula_sum              "N3 C35 H21 Zn2 O8"
_cell_length_a       17.457602349358154
_cell_length_b       9.274263428431858
_cell_length_c       9.272679976505533
_cell_angle_alpha    85.97590121954681
_cell_angle_beta     93.25957942520282
_cell_angle_gamma    92.30649601595262

_space_group_name_H-M_alt    "P 1"
_space_group_IT_number       1

loop_
  _space_group_symop_operation_xyz
  'x, y, z'

loop_
  _atom_site_type_symbol
  _atom_site_label
  _atom_site_symmetry_multiplicity
  _atom_site_fract_x
  _atom_site_fract_y
  _atom_site_fract_z
  _atom_site_occupancy
  N   N1        1.0  0.7259993318081644  0.6015428228554263  0.4744536675835207  1.0000
  C   C1        1.0  0.6645851251845396  0.5504233060592005  0.4626747354715699  1.0000
  C   C2        1.0  0.5881833449261554  0.4868370629379058  0.4480323389040679  1.0000
  C   C3        1.0  0.5302199329241374  0.532140567700615  0.5311964684153894  1.0000
  C   C4        1.0  0.45527226146784805  0.4709133097916105  0.5172359497445516  1.0000
  C   C5        1.0  0.39375050787068094  0.5187493171436717  0.6053099438886753  1.0000
  C   C6        1.0  0.31909099547727915  0.5387583266114633  0.5433816624156211  1.0000
  C   C7        1.0  0.2611268556882826  0.5838584774141766  0.6266657112282086  1.0000
  C   C8        1.0  0.18502389027657318  0.6045203529348233  0.5622770718382917  1.0000
  N   N2        1.0  0.12384998259759551  0.6211254144372023  0.5105087748444503  1.0000
  C   C9        1.0  0.27733371506312005  0.609224391019858  0.7724426903629231  1.0000
  C   C10       1.0  0.3512126018274767  0.5896510824851509  0.8348013110848851  1.0000
  C   C11       1.0  0.4091681745851183  0.5447551507049511  0.7520255159788745  1.0000
  C   C12       1.0  0.4395664133388505  0.363616853425909  0.4185202115377691  1.0000
  C   C13       1.0  0.49752153451748116  0.3186266129757369  0.3358002201990571  1.0000
  C   C14       1.0  0.5716874284180898  0.3799837416154004  0.35037142491284157  1.0000
  H   H1        1.0  0.543318078746097  0.6162893985889151  0.6051729185231098  1.0000
  H   H2        1.0  0.3062290735685837  0.5211947507970172  0.4300884037933004  1.0000
  H   H3        1.0  0.2329125062356662  0.6440722202337243  0.8377723729105386  1.0000
  H   H4        1.0  0.3635691878576553  0.6089417987087828  0.9476797433106073  1.0000
  H   H5        1.0  0.4657488662255957  0.5285204160466612  0.8032290739952272  1.0000
  H   H6        1.0  0.3827490899008807  0.3131521237095176  0.4067010484236202  1.0000
  H   H7        1.0  0.4849393550541569  0.23570721921564222  0.26049282085841563  1.0000
  H   H8        1.0  0.6161052559673992  0.3441743521756224  0.285609520329672  1.0000
  C   C15       1.0  0.9225001576841715  0.18763378157563865  0.4925678730791254  1.0000
  C   C16       1.0  0.9120884441377539  0.2694220640461047  0.3598674950678906  1.0000
  C   C17       1.0  0.9092107362055415  0.2033197118139198  0.22904257582766882  1.0000
  C   C18       1.0  0.9172976051570875  0.05391955440880603  0.22773866255110797  1.0000
  C   C19       1.0  0.9256457799767244  0.9705179969281003  0.3593682920742227  1.0000
  C   C20       1.0  0.9273564808112504  0.03502382900395907  0.4924077290647137  1.0000
  C   C21       1.0  0.9130500483651345  0.982592106810346  0.08668957392209098  1.0000
  C   C22       1.0  0.8332795464419182  0.9394718608893815  0.047419091983734285  1.0000
  N   N3        1.0  0.7703184256545038  0.9054367026324105  0.016433274752565726  1.0000
  H   H9        1.0  0.9899830222531647  0.27189352952721046  0.8310643763406973  1.0000
  H   H10       1.0  0.9078359195574195  0.3858126730046061  0.35712089466093366  1.0000
  H   H11       1.0  0.9013896285907862  0.2690596272667809  0.12842396116287702  1.0000
  H   H12       1.0  0.9485388188783661  0.8852684545278026  0.09548490175089919  1.0000
  H   H13       1.0  0.9353881136823995  0.05778350587425018  0.998996230369111  1.0000
  C   C23       1.0  0.9233523555504699  0.6078451168144516  0.06898471126123429  1.0000
  C   C24       1.0  0.9750102784137973  0.521163041273748  0.15399563609188172  1.0000
  C   C25       1.0  0.03051559222733791  0.44635909071538404  0.09047971570743507  1.0000
  C   C26       1.0  0.03624033079997881  0.45577972553607754  0.9401297923880026  1.0000
  C   C27       1.0  0.9836497380519381  0.5404582446850628  0.8536514550349374  1.0000
  C   C28       1.0  0.9265042667773679  0.6148124700705975  0.9159909203473728  1.0000
  C   C29       1.0  0.0988507147853024  0.3719706945470158  0.8797171636137726  1.0000
  C   C30       1.0  0.08019318481128757  0.30504058124759403  0.7359732335464217  1.0000
  C   C31       1.0  0.13492865855529299  0.4368901574902336  0.7430236376867407  1.0000
  H   H14       1.0  0.8083244737814391  0.6997089794072997  0.3314421318213212  1.0000
  H   H15       1.0  0.06987418654920918  0.38163625208672247  0.15972621114884733  1.0000
  H   H16       1.0  0.7529993731821842  0.7419702758829101  0.7854682196353164  1.0000
  H   H17       1.0  0.13860073024163366  0.3090393571968528  0.9555517462126208  1.0000
  H   H18       1.0  0.02331313740959073  0.3268558507715369  0.681119452257172  1.0000
  H   H19       1.0  0.10941544255081559  0.20263650151799695  0.7244010707463309  1.0000
  H   H20       1.0  0.11133393500334665  0.5387325477153622  0.6923392510639652  1.0000
  H   H21       1.0  0.19615031689012824  0.4115373682467276  0.7355691127676507  1.0000
  Zn  Zn1       1.0  0.840810444423218  0.6071901349948825  0.48486672034685685  1.0000
  Zn  Zn2       1.0  0.009038831875172402  0.615466369702967  0.5001075315408277  1.0000
  C   C32       1.0  0.925873842077761  0.6077474370489544  0.7558894999465888  1.0000
  C   C33       1.0  0.923977282229284  0.6149109796944736  0.22908505957530712  1.0000
  C   C34       1.0  0.926413190815415  0.8748015680547386  0.48669069257034114  1.0000
  C   C35       1.0  0.9234378664386533  0.3478551130021912  0.4982839389667884  1.0000
  O   O1        1.0  0.9880287735658814  0.6204168411302244  0.2886000086139586  1.0000
  O   O2        1.0  0.989503796494476  0.6085219543717719  0.7079415590124656  1.0000
  O   O3        1.0  0.9899384723834614  0.8241715125152997  0.4905615391767268  1.0000
  O   O4        1.0  0.9875940399287051  0.40476728959452535  0.5059799151143347  1.0000
  O   O5        1.0  0.8622551789615742  0.8178892122805601  0.4789943315648231  1.0000
  O   O6        1.0  0.8618205127174543  0.6022413870007652  0.6963742741768013  1.0000
  O   O7        1.0  0.860345483099471  0.614136209219563  0.2770309898860328  1.0000
  O   O8        1.0  0.8599107498023741  0.398486648253271  0.49441100451324527  1.0000
