data_image0
_chemical_formula_structural       NC5NC4H6C9H10C6BrH4Zn2C4O8
_chemical_formula_sum              "N2 C28 H20 Br1 Zn2 O8"
_cell_length_a       13.854160002989762
_cell_length_b       10.297183801781406
_cell_length_c       9.27656775626242
_cell_angle_alpha    86.09344643719086
_cell_angle_beta     90.1862127555096
_cell_angle_gamma    89.99762469776624

_space_group_name_H-M_alt    "P 1"
_space_group_IT_number       1

loop_
  _space_group_symop_operation_xyz
  'x, y, z'

loop_
  _atom_site_type_symbol
  _atom_site_label
  _atom_site_symmetry_multiplicity
  _atom_site_fract_x
  _atom_site_fract_y
  _atom_site_fract_z
  _atom_site_occupancy
  N   N1        1.0  0.9054051580027189  0.40765457944953937  0.4099255075207069  1.0000
  C   C1        1.0  0.8329433328865594  0.42984316072361095  0.35089560883962667  1.0000
  C   C2        1.0  0.7427997992738307  0.45744635183857985  0.2774601547721074  1.0000
  C   C3        1.0  0.6553854221405085  0.43152220789083784  0.3491628297907885  1.0000
  C   C4        1.0  0.5676573868517707  0.4574463645412565  0.27746013160398686  1.0000
  C   C5        1.0  0.4778351917256761  0.42984302883613856  0.3508957004848203  1.0000
  N   N2        1.0  0.4056315874065293  0.4076545222550545  0.409925507462767  1.0000
  C   C6        1.0  0.5673763869444288  0.5098410271896604  0.1340734703182429  1.0000
  C   C7        1.0  0.6547577445791791  0.5377009451581685  0.062266433618417556  1.0000
  C   C8        1.0  0.6544191030485  0.5902115164742273  0.9073960891995848  1.0000
  C   C9        1.0  0.7424534757837923  0.5098410251999714  0.13407338008323744  1.0000
  H   H1        1.0  0.6556282187933404  0.3908695121101107  0.460141523016812  1.0000
  H   H2        1.0  0.4993817619178452  0.5289741690136311  0.07844032567911219  1.0000
  H   H3        1.0  0.719219679793963  0.6513962639556046  0.8835898986120894  1.0000
  H   H4        1.0  0.5895112022767856  0.6513962662199613  0.8835899636653478  1.0000
  H   H5        1.0  0.6542661256372776  0.5080424797871781  0.8359165918723406  1.0000
  H   H6        1.0  0.8102047208108193  0.5289742695780376  0.07844024024229457  1.0000
  C   C10       1.0  0.1555268181964311  0.026180788224889447  0.41012968789774895  1.0000
  C   C11       1.0  0.15238284732180096  0.03470301760314176  0.2585059804503198  1.0000
  C   C12       1.0  0.15077187584113863  0.9224527175376689  0.1808247211785996  1.0000
  C   C13       1.0  0.15237026007044596  0.7995267398359875  0.2579183094117692  1.0000
  C   C14       1.0  0.15551921432919102  0.7891184219328077  0.40973379869238413  1.0000
  C   C15       1.0  0.15707602138342192  0.9029128308825636  0.4848484711185659  1.0000
  C   C16       1.0  0.14737118228131463  0.9411023051866083  0.016832975195133715  1.0000
  C   C17       1.0  0.09067795470035755  0.8416777180787252  0.9366231447266569  1.0000
  C   C18       1.0  0.20063281376965147  0.8419455317750878  0.9320458547287326  1.0000
  H   H7        1.0  0.15674745618890348  0.3504353538809717  0.4685551657337917  1.0000
  H   H8        1.0  0.1511693037972423  0.12941543367001462  0.19997086405699394  1.0000
  H   H9        1.0  0.1511880747273848  0.711424929340387  0.20100870187484565  1.0000
  H   H10       1.0  0.1595011771459662  0.8956103090910976  0.6018293454034187  1.0000
  H   H11       1.0  0.16145388037357056  0.5622435902262904  0.6964705101616862  1.0000
  H   H12       1.0  0.14627902574474877  0.04135281842366601  0.9641231451527381  1.0000
  H   H13       1.0  0.05861178395460318  0.7586187499596345  0.0021956304335997157  1.0000
  H   H14       1.0  0.05640328895668522  0.881651251620911  0.834678657913539  1.0000
  H   H15       1.0  0.23535831694848097  0.7590500524450937  0.9948386347536493  1.0000
  H   H16       1.0  0.23062192135686943  0.882073211579591  0.827424813899114  1.0000
  C   C19       1.0  0.15460171019360547  0.40391643668995036  0.9868069429736339  1.0000
  C   C20       1.0  0.06882766550984987  0.4351892954083052  0.057401546345205785  1.0000
  C   C21       1.0  0.9873427233096647  0.47716259875866246  0.9786787703918343  1.0000
  C   C22       1.0  0.9901012902042771  0.4887131823120414  0.828176933737724  1.0000
  C   C23       1.0  0.07398305613666656  0.45603704241622167  0.7558559959553981  1.0000
  C   C24       1.0  0.15644433764923413  0.41138281262137427  0.8330565919190933  1.0000
  Br  Br1       1.0  0.8785743251942426  0.5472049434548965  0.7208963475072938  1.0000
  H   H17       1.0  0.2873881623126149  0.28592549909207476  0.27770236471761134  1.0000
  H   H18       1.0  0.9222686300618144  0.5019302452819867  0.03498330083774114  1.0000
  H   H19       1.0  0.07383107746561522  0.4626727090484466  0.6388020897790376  1.0000
  H   H20       1.0  0.3152619149681215  0.397968827002157  0.5536688339221079  1.0000
  Zn  Zn1       1.0  0.04975972376791948  0.4076511585086551  0.40993383904791525  1.0000
  Zn  Zn2       1.0  0.2612770486884126  0.40764741734511895  0.4099290150085164  1.0000
  C   C25       1.0  0.1560939125115028  0.40479637131189683  0.6730999575657051  1.0000
  C   C26       1.0  0.15494516999899743  0.41050384481904956  0.14676303701028837  1.0000
  C   C27       1.0  0.1555031677593778  0.6448563069081745  0.40406685539977927  1.0000
  C   C28       1.0  0.15553584275789656  0.1704423491700857  0.41579621680719914  1.0000
  O   O1        1.0  0.23533016077936264  0.4127075521120855  0.20044393562869023  1.0000
  O   O2        1.0  0.23624567627470888  0.4025888409108073  0.6194149833432419  1.0000
  O   O3        1.0  0.23576756360433015  0.5964402881148765  0.4021688492142619  1.0000
  O   O4        1.0  0.2358082010378797  0.21885611324888352  0.4176899617183212  1.0000
  O   O5        1.0  0.07522849923795369  0.5964424626075147  0.40217289233217723  1.0000
  O   O6        1.0  0.07570661172105919  0.40259257545875604  0.6194189488242376  1.0000
  O   O7        1.0  0.07479109251838456  0.4127112261072895  0.2004461687754715  1.0000
  O   O8        1.0  0.07526913300826421  0.21885977890584415  0.4176923028985182  1.0000
