data_image0
_chemical_formula_structural       NC6NC2H4C6NCH9C6SCH6Zn2C4O8
_chemical_formula_sum              "N3 C26 H19 S1 Zn2 O8"
_cell_length_a       14.927258858638513
_cell_length_b       9.273386996610927
_cell_length_c       10.302812801239591
_cell_angle_alpha    85.46621381537472
_cell_angle_beta     89.99986339820808
_cell_angle_gamma    89.39858807063658

_space_group_name_H-M_alt    "P 1"
_space_group_IT_number       1

loop_
  _space_group_symop_operation_xyz
  'x, y, z'

loop_
  _atom_site_type_symbol
  _atom_site_label
  _atom_site_symmetry_multiplicity
  _atom_site_fract_x
  _atom_site_fract_y
  _atom_site_fract_z
  _atom_site_occupancy
  N   N1        1.0  0.8332753951556722  0.5788743034297581  0.5656018700194482  1.0000
  C   C1        1.0  0.7557489041739681  0.5788742749086175  0.5656018795980178  1.0000
  C   C2        1.0  0.6593163958789244  0.5788743900531192  0.5656018345228763  1.0000
  C   C3        1.0  0.6124187523360016  0.555174079472157  0.45154239321672895  1.0000
  C   C4        1.0  0.5187074408254256  0.5551741051183359  0.4515422729850158  1.0000
  C   C5        1.0  0.4715003330454276  0.5788742124316861  0.5656018515638064  1.0000
  C   C6        1.0  0.3750677577588282  0.578874327579153  0.5656018064833246  1.0000
  N   N2        1.0  0.2975412667771241  0.5788742990580127  0.5656018160618947  1.0000
  C   C7        1.0  0.5183979095967953  0.6025745230156143  0.6796612928646137  1.0000
  C   C8        1.0  0.6121092211073705  0.6025744973694347  0.6796614130963272  1.0000
  H   H1        1.0  0.6482353386422969  0.5367339015961372  0.36279760165902525  1.0000
  H   H2        1.0  0.48313168184259014  0.5367340992131697  0.3627975969214538  1.0000
  H   H3        1.0  0.4825813903454822  0.6210146905699423  0.7684061817801431  1.0000
  H   H4        1.0  0.6476849794529195  0.6210146006425745  0.7684061881087307  1.0000
  C   C9        1.0  0.06816742204476481  0.15522030240731224  0.5662398267475851  1.0000
  C   C10       1.0  0.08389712911874403  0.23869590844301072  0.4488524764357162  1.0000
  C   C11       1.0  0.09119200444877021  0.17419302636243184  0.33145787034664864  1.0000
  C   C12       1.0  0.08286752410388301  0.02389236245546723  0.3284491072089363  1.0000
  C   C13       1.0  0.06871652301923771  0.9394538419751984  0.44542868005770736  1.0000
  C   C14       1.0  0.0626578820415924  0.002517159278307092  0.5649751485132115  1.0000
  N   N3        1.0  0.089405095655049  0.9543530559178544  0.2086307734224488  1.0000
  C   C15       1.0  0.10432870376131814  0.032249560212136874  0.08193838973399559  1.0000
  H   H5        1.0  0.0864696107361014  0.41736500744562793  0.779387156538371  1.0000
  H   H6        1.0  0.08846634948991255  0.3553418016398895  0.4472596722272659  1.0000
  H   H7        1.0  0.10248941346066404  0.2427951498856562  0.24327067274410383  1.0000
  H   H8        1.0  0.06448810826057416  0.8230527727723025  0.44338058230792904  1.0000
  H   H9        1.0  0.09564205730306147  0.8711551862456371  0.8811873828698891  1.0000
  H   H10       1.0  0.0830716403467433  0.8419859335117358  0.21132295986608418  1.0000
  H   H11       1.0  0.048793159257885854  0.11082312647033586  0.05938113274533728  1.0000
  H   H12       1.0  0.16916963051026568  0.08980130491772664  0.08214788374613445  1.0000
  H   H13       1.0  0.10658702771190719  0.9548129710267339  0.00507898633231596  1.0000
  C   C16       1.0  0.06541268807913882  0.5788687480993489  0.1843590144905329  1.0000
  C   C17       1.0  0.03426553841323199  0.7227388155674761  0.17294699121739177  1.0000
  C   C18       1.0  0.018538129758313156  0.7941112329325892  0.0502934611284529  1.0000
  C   C19       1.0  0.034265458636237874  0.722738664124708  0.9377958217542005  1.0000
  C   C20       1.0  0.0654126300352944  0.5788687383770275  0.9468559181345886  1.0000
  C   C21       1.0  0.08080648245204358  0.5076241626633164  0.07067640925950269  1.0000
  S   S1        1.0  0.9789263307302958  0.978033336645405  0.03720760899446661  1.0000
  C   C22       1.0  0.8614173112131734  0.9276281416277989  0.04079499123256979  1.0000
  H   H14       1.0  0.02189266463837436  0.7798844168716925  0.2589807456805189  1.0000
  H   H15       1.0  0.021892486634960375  0.7798842090523779  0.8436304330086357  1.0000
  H   H16       1.0  0.10481547695231669  0.3966412386575946  0.07857260401279387  1.0000
  H   H17       1.0  0.8459492899253712  0.863448492210697  0.957244467164295  1.0000
  H   H18       1.0  0.8459496641256541  0.8634499502134613  0.13347915702148883  1.0000
  H   H19       1.0  0.8193085578059406  0.02720616463032321  0.0337098561308189  1.0000
  Zn  Zn1       1.0  0.9672525301270951  0.5788704364011512  0.5656093619656952  1.0000
  Zn  Zn2       1.0  0.16356421952720968  0.5788663490628965  0.5656049916638689  1.0000
  C   C23       1.0  0.06544801657766276  0.5731214134353266  0.8027362683597655  1.0000
  C   C24       1.0  0.0653708649577005  0.5846171922890036  0.32847820993121757  1.0000
  C   C25       1.0  0.06369470667320765  0.8423600317978895  0.5600406415796733  1.0000
  C   C26       1.0  0.06712411914544991  0.3153768406234787  0.571173908516751  1.0000
  O   O1        1.0  0.1398561327026253  0.586538577605956  0.37684427935400433  1.0000
  O   O2        1.0  0.13995878582113064  0.5711958375719606  0.7543665098755679  1.0000
  O   O3        1.0  0.1385419616138578  0.7886094269076682  0.5583880719221077  1.0000
  O   O4        1.0  0.14127288985491626  0.3691249985919403  0.5728226199496391  1.0000
  O   O5        1.0  0.9895437928078332  0.7886117868750728  0.5583917336745854  1.0000
  O   O6        1.0  0.9909606057402566  0.5711999308452931  0.7543700998172647  1.0000
  O   O7        1.0  0.9908579530083464  0.5865426206055075  0.376846308463219  1.0000
  O   O8        1.0  0.9922747102240641  0.3691290312727653  0.5728247464113396  1.0000
