data_image0
_chemical_formula_structural       NC10NC3NH7C7OC4NC3H8C6SCOC6H10Zn2C4O8
_chemical_formula_sum              "N4 C44 H25 O10 S1 Zn2"
_cell_length_a       19.210446455230148
_cell_length_b       10.299371701877257
_cell_length_c       10.302041481415106
_cell_angle_alpha    85.56120269447774
_cell_angle_beta     89.98692140310254
_cell_angle_gamma    89.95709994445667

_space_group_name_H-M_alt    "P 1"
_space_group_IT_number       1

loop_
  _space_group_symop_operation_xyz
  'x, y, z'

loop_
  _atom_site_type_symbol
  _atom_site_label
  _atom_site_symmetry_multiplicity
  _atom_site_fract_x
  _atom_site_fract_y
  _atom_site_fract_z
  _atom_site_occupancy
  N   N1        1.0  0.6556495435894162  0.42068871504136224  0.5681939255521813  1.0000
  C   C1        1.0  0.5954210178672685  0.422896118837945  0.5684258951793888  1.0000
  C   C2        1.0  0.5206166075883937  0.4256328954063029  0.5687132774240407  1.0000
  C   C3        1.0  0.4850068597157681  0.541856450549866  0.5838676649590278  1.0000
  C   C4        1.0  0.4123413824616189  0.5420080049810476  0.5838151390040365  1.0000
  C   C5        1.0  0.3754498598087515  0.4263418219150876  0.568800021692311  1.0000
  C   C6        1.0  0.29812771898582857  0.42498541786291133  0.5686489268434565  1.0000
  C   C7        1.0  0.2603754272720863  0.5285777642431271  0.5053419858439765  1.0000
  C   C8        1.0  0.18759705930743542  0.5271755904994302  0.5052323815466484  1.0000
  C   C9        1.0  0.1515695753039082  0.4224385955098153  0.5683788343744764  1.0000
  C   C10       1.0  0.0766400440953229  0.42113657980239494  0.5682415212803951  1.0000
  N   N2        1.0  0.016402182808739802  0.4200897149527089  0.5681311564035166  1.0000
  C   C11       1.0  0.1885982111216054  0.31897194918665406  0.6316608220635507  1.0000
  C   C12       1.0  0.26137842459927246  0.32009984002479985  0.6318205528175538  1.0000
  C   C13       1.0  0.4136694839769361  0.31193839493244346  0.5539344545297162  1.0000
  N   N3        1.0  0.4844394529870685  0.31438327872895777  0.554100946813026  1.0000
  H   H1        1.0  0.5131085337857458  0.6312845386161312  0.5959487736777846  1.0000
  H   H2        1.0  0.3850732277195973  0.6320174408902588  0.5972908942542727  1.0000
  H   H3        1.0  0.2871039312347667  0.6098487446028344  0.45439466889272495  1.0000
  H   H4        1.0  0.1594518493616095  0.6076183896912923  0.45561483848492906  1.0000
  H   H5        1.0  0.1612300816008373  0.2375658016095501  0.6811785217751807  1.0000
  H   H6        1.0  0.2888787480873689  0.2397756992973181  0.6828755530393438  1.0000
  H   H7        1.0  0.3874034374650613  0.22106606595906972  0.5404121215412192  1.0000
  C   C14       1.0  0.8359927827490542  0.03901889621366594  0.5680355832479349  1.0000
  C   C15       1.0  0.8393796936540938  0.048401575899017724  0.4314023539236105  1.0000
  C   C16       1.0  0.8402975553339238  0.9359663611305864  0.3624260942413695  1.0000
  C   C17       1.0  0.8393882933921947  0.8131331357574496  0.4317196733939153  1.0000
  C   C18       1.0  0.8360655935409483  0.8017495412949271  0.5683007200406642  1.0000
  C   C19       1.0  0.8342039197073123  0.9152945764127647  0.635652623151667  1.0000
  C   C20       1.0  0.8446049535819937  0.9457288317306942  0.21820940124349786  1.0000
  O   O1        1.0  0.8781097328323572  0.8599454432962217  0.163270670820596  1.0000
  C   C21       1.0  0.8108915492035114  0.0527265015192615  0.13632241399030987  1.0000
  C   C22       1.0  0.8407083593368126  0.09736290517484414  0.01637526841323922  1.0000
  C   C23       1.0  0.8088307153442736  0.19734638409873684  0.9376086287859269  1.0000
  C   C24       1.0  0.8399980293704438  0.24316535502977032  0.8154756150355325  1.0000
  N   N4        1.0  0.8650551617087633  0.27999417436488105  0.7172983823763213  1.0000
  C   C25       1.0  0.7466166007214247  0.25261417303368083  0.9777818138980718  1.0000
  C   C26       1.0  0.7162122329942443  0.2077687215499102  0.09598992241538307  1.0000
  C   C27       1.0  0.7478900138229002  0.10808305285518549  0.17474520189500886  1.0000
  H   H8        1.0  0.8420874833478991  0.1433391600500744  0.37852773978390714  1.0000
  H   H9        1.0  0.8406118095646299  0.7263119714091121  0.37871971084330763  1.0000
  H   H10       1.0  0.831593239720559  0.9072573235880803  0.7409871040609168  1.0000
  H   H11       1.0  0.8353750485310966  0.4699150813543755  0.6208137143998032  1.0000
  H   H12       1.0  0.8889831598329961  0.05520255958136919  0.9847974309669173  1.0000
  H   H13       1.0  0.7215249074556398  0.32989296191601025  0.9175609070865636  1.0000
  H   H14       1.0  0.6678186138810838  0.24994584971814524  0.12641504646858048  1.0000
  H   H15       1.0  0.7227384338098289  0.07338364973928613  0.2648846343002771  1.0000
  C   C28       1.0  0.8360422505654838  0.420513476701672  0.18688116647484113  1.0000
  C   C29       1.0  0.8679661504309206  0.5435591732198826  0.17600543275858874  1.0000
  C   C30       1.0  0.8841600749053787  0.6042585328309693  0.053638414752608554  1.0000
  C   C31       1.0  0.868032176707401  0.5431552001160151  0.9408998689412368  1.0000
  C   C32       1.0  0.8360161446913543  0.4202549606077024  0.9494551720405353  1.0000
  C   C33       1.0  0.8202382684110959  0.35951635468412024  0.07301553078881318  1.0000
  S   S1        1.0  0.9255634622249254  0.7607230534114995  0.04116309474376601  1.0000
  C   C34       1.0  0.011305551022417152  0.6907798269417127  0.04369232325456874  1.0000
  O   O2        1.0  0.038545279224986524  0.6675617903295838  0.9366192625980788  1.0000
  C   C35       1.0  0.04967063414500084  0.6593733708604239  0.1671992609019528  1.0000
  C   C36       1.0  0.11141483404995861  0.5855473136699241  0.16735516164840103  1.0000
  C   C37       1.0  0.14769267038486067  0.5545902602825523  0.2832901830445933  1.0000
  C   C38       1.0  0.12296516069781305  0.5969789388841935  0.4002467787408618  1.0000
  C   C39       1.0  0.06196909705506416  0.6706449427363852  0.4014709594142125  1.0000
  C   C40       1.0  0.025483524475633294  0.7019764765783889  0.2858355102100558  1.0000
  H   H16       1.0  0.7757669759628618  0.18870714262354576  0.41468844313996045  1.0000
  H   H17       1.0  0.8804755875601223  0.5924662952162385  0.26233459953323157  1.0000
  H   H18       1.0  0.8808366275422096  0.591730301233194  0.8469431689875414  1.0000
  H   H19       1.0  0.795628832997597  0.264656670840153  0.08047939120716019  1.0000
  H   H20       1.0  0.8240337075308004  0.3733581093281376  0.6253816817092184  1.0000
  H   H21       1.0  0.13151887441405832  0.5510559523102623  0.07802103264711935  1.0000
  H   H22       1.0  0.19500476503059555  0.4975270948422048  0.2824151246971758  1.0000
  H   H23       1.0  0.15111123839026752  0.572880974734683  0.4898955894880915  1.0000
  H   H24       1.0  0.04294581721656998  0.7037474685516194  0.492158456243732  1.0000
  H   H25       1.0  0.9786997733556773  0.7599808239129895  0.2899380626422121  1.0000
  Zn  Zn1       1.0  0.7597549611550696  0.4205123899471385  0.5681833079838143  1.0000
  Zn  Zn2       1.0  0.912296747928583  0.4202554538557825  0.5681524037855533  1.0000
  C   C41       1.0  0.836019014310443  0.4151301465789287  0.8053105328896425  1.0000
  C   C42       1.0  0.8360343606768313  0.42563933300069623  0.33102530655094076  1.0000
  C   C43       1.0  0.8360484232874037  0.6575789893064101  0.5630765478577506  1.0000
  C   C44       1.0  0.8360048994967049  0.1831889300290799  0.573259360274738  1.0000
  O   O3        1.0  0.8939205253196278  0.42725644552993947  0.37938966678174046  1.0000
  O   O4        1.0  0.8939085361713419  0.41331704590202006  0.7569223429811399  1.0000
  O   O5        1.0  0.893931503877019  0.6090975534453391  0.5613166868497694  1.0000
  O   O6        1.0  0.8938975055659943  0.2314759473975525  0.5749952255731368  1.0000
  O   O7        1.0  0.778154151462633  0.6092918964944647  0.5613404861999478  1.0000
  O   O8        1.0  0.7781311839050964  0.41351294928437604  0.7569460736431302  1.0000
  O   O9        1.0  0.7781431731488435  0.4274523041852525  0.37941183636273035  1.0000
  O   O10       1.0  0.7781201533881414  0.2316717967310293  0.5750174924978182  1.0000
