data_image0
_chemical_formula_structural       NC10NC2NH7C10ClC2H9C10OH8Zn2C4O8
_chemical_formula_sum              "N3 C38 H24 Cl1 O9 Zn2"
_cell_length_a       18.145345255705053
_cell_length_b       10.299769246903262
_cell_length_c       10.298964903136534
_cell_angle_alpha    85.56198586416822
_cell_angle_beta     90.53774287328281
_cell_angle_gamma    91.04743572132524

_space_group_name_H-M_alt    "P 1"
_space_group_IT_number       1

loop_
  _space_group_symop_operation_xyz
  'x, y, z'

loop_
  _atom_site_type_symbol
  _atom_site_label
  _atom_site_symmetry_multiplicity
  _atom_site_fract_x
  _atom_site_fract_y
  _atom_site_fract_z
  _atom_site_occupancy
  N   N1        1.0  0.6943844281213508  0.4425205292919483  0.5773777023526245  1.0000
  C   C1        1.0  0.6363950540802283  0.399464561587483  0.5574387892638275  1.0000
  C   C2        1.0  0.5643372446760099  0.34598821310410144  0.5326738482746243  1.0000
  C   C3        1.0  0.5503216283394152  0.2289872789754721  0.47994705366681156  1.0000
  C   C4        1.0  0.4745608777922307  0.21519836612285048  0.4740593777230111  1.0000
  C   C5        1.0  0.4457317056328203  0.3250223232043308  0.5234692870063653  1.0000
  C   C6        1.0  0.36622800675376094  0.352765619401167  0.5362616276687096  1.0000
  C   C7        1.0  0.3130895211961244  0.25126648767976834  0.539242318893556  1.0000
  C   C8        1.0  0.23825179489958062  0.2775905627831212  0.551356338390022  1.0000
  C   C9        1.0  0.21541426707735048  0.4055313415599695  0.5604684623383454  1.0000
  C   C10       1.0  0.1383454957935566  0.4325136647146959  0.5728655929014439  1.0000
  N   N2        1.0  0.0763885401073351  0.45420531406561837  0.5828318846659116  1.0000
  C   C11       1.0  0.2677203431875951  0.5071764214812948  0.5573956168730677  1.0000
  C   C12       1.0  0.3426047422033853  0.48111893430196506  0.5453945751932874  1.0000
  N   N3        1.0  0.5011279521199935  0.4044313827996237  0.5590679881053165  1.0000
  H   H1        1.0  0.5904128729200948  0.16140072818950557  0.44917826866234556  1.0000
  H   H2        1.0  0.44439459623723376  0.13452952985390465  0.4363896791134046  1.0000
  H   H3        1.0  0.3291817894831934  0.15121837659187087  0.5338610396678047  1.0000
  H   H4        1.0  0.19823308697963388  0.198075787546375  0.5538918599839887  1.0000
  H   H5        1.0  0.2506233771724616  0.6066951961628588  0.5638996129016173  1.0000
  H   H6        1.0  0.3816050856537173  0.5619710294785247  0.5414274021534875  1.0000
  H   H7        1.0  0.49671004291030313  0.49292401610906666  0.6012242912279164  1.0000
  C   C13       1.0  0.8853207098726086  0.06699575319632786  0.5800986280834655  1.0000
  C   C14       1.0  0.8921326968726916  0.07675156460620487  0.44397988602015565  1.0000
  C   C15       1.0  0.8956548382413037  0.9645576412546113  0.3750190734823642  1.0000
  C   C16       1.0  0.8922726176095407  0.8414676870535056  0.4440038284180479  1.0000
  C   C17       1.0  0.8854593386964139  0.8297202301081077  0.580122277235442  1.0000
  C   C18       1.0  0.8820217331056948  0.9430424214582669  0.6474074215996191  1.0000
  C   C19       1.0  0.9028626274567803  0.975931513674062  0.2310169281015251  1.0000
  C   C20       1.0  0.9506556846022638  0.8944512868274294  0.16920789609488399  1.0000
  C   C21       1.0  0.9573742422150613  0.9053504944582543  0.033658667343855475  1.0000
  C   C22       1.0  0.9165141163178685  0.9974734215839739  0.9582674381515548  1.0000
  Cl  Cl1       1.0  0.9250247246887618  0.01090327227981435  0.7882200728080133  1.0000
  C   C23       1.0  0.8688615368405767  0.07887809946375701  0.01858747658542015  1.0000
  C   C24       1.0  0.862012247133257  0.06836748908450341  0.15411454673557023  1.0000
  H   H8        1.0  0.8826968283448392  0.3907311566232897  0.6319628802325177  1.0000
  H   H9        1.0  0.89573072155096  0.1718636370456692  0.3914396669274423  1.0000
  H   H10       1.0  0.8939504046085358  0.7546815199421042  0.3911364932706318  1.0000
  H   H11       1.0  0.8767663479520063  0.9347481722674492  0.7524166914442696  1.0000
  H   H12       1.0  0.8828979950881701  0.4977909394265546  0.631996482173725  1.0000
  H   H13       1.0  0.9835224426114444  0.8235190519373252  0.22578513372319375  1.0000
  H   H14       1.0  0.9945036074663127  0.8423347828169485  0.9873984073856032  1.0000
  H   H15       1.0  0.836951504252458  0.15012951576884984  0.9605713959955486  1.0000
  H   H16       1.0  0.8240852680238708  0.1313146518949353  0.19863809469207652  1.0000
  C   C25       1.0  0.8854029858792766  0.4483606891471309  0.1987195785345217  1.0000
  C   C26       1.0  0.9624592694776515  0.46409254532371846  0.19782012181542807  1.0000
  C   C27       1.0  0.0015011851012867185  0.47206303730685173  0.0800954547041226  1.0000
  C   C28       1.0  0.9624036352806478  0.4640808267710168  0.9625712988669909  1.0000
  C   C29       1.0  0.8853770264428418  0.4483553380468321  0.9615013243629247  1.0000
  C   C30       1.0  0.8473089176591778  0.4405833823696154  0.08008454960926925  1.0000
  C   C31       1.0  0.08285333771180214  0.48867125661973415  0.077480706101436  1.0000
  C   C32       1.0  0.12995103807476083  0.49828633829910873  0.1832050692633458  1.0000
  C   C33       1.0  0.19982786281117337  0.5125512122329063  0.13223954494325807  1.0000
  C   C34       1.0  0.19156342895672496  0.5108638554549678  0.9992124249685417  1.0000
  O   O1        1.0  0.12151034041203612  0.49656280510409734  0.9696850050353497  1.0000
  H   H17       1.0  0.8558885251413861  0.4423336586012276  0.526555699517939  1.0000
  H   H18       1.0  0.9917476382738878  0.47007229161227215  0.28908280382059126  1.0000
  H   H19       1.0  0.9921591172877133  0.4701553775893903  0.8715517857967892  1.0000
  H   H20       1.0  0.7878845925951695  0.42845121215958426  0.08004588647963673  1.0000
  H   H21       1.0  0.8559849900235159  0.4423522089441635  0.6336190647685478  1.0000
  H   H22       1.0  0.11609834305739342  0.49545816335776627  0.28524580839682323  1.0000
  H   H23       1.0  0.2508770075414313  0.5229727331288725  0.18583047434973257  1.0000
  H   H24       1.0  0.2355123138500654  0.5198356717816416  0.9286697369864165  1.0000
  Zn  Zn1       1.0  0.8046225660487951  0.44588901474971476  0.5789591680924937  1.0000
  Zn  Zn2       1.0  0.9661503993891271  0.4508261522631397  0.5812610795623427  1.0000
  C   C35       1.0  0.8853793564739258  0.44318262724612256  0.8173190914107037  1.0000
  C   C36       1.0  0.8853953731363489  0.45353423229161827  0.3429013089056257  1.0000
  C   C37       1.0  0.8854294963042459  0.6855490082704164  0.5749423155388711  1.0000
  C   C38       1.0  0.8853451779019744  0.21116628928640166  0.5852781531861362  1.0000
  O   O2        1.0  0.9466917881439741  0.45713847287148063  0.39216357796486473  1.0000
  O   O3        1.0  0.9466788293066468  0.4433245800857916  0.7698035459964643  1.0000
  O   O4        1.0  0.9467184914683457  0.6390384726373671  0.5740825728897752  1.0000
  O   O5        1.0  0.9466520708687682  0.2614245879260619  0.5878844529060762  1.0000
  O   O6        1.0  0.8241208394476326  0.6352905774034041  0.5723357939563999  1.0000
  O   O7        1.0  0.8240811775684664  0.4395782451493621  0.7680566978620502  1.0000
  O   O8        1.0  0.8240941364997132  0.4533920926917773  0.39041516833906936  1.0000
  O   O9        1.0  0.8240544192164927  0.2576781984568132  0.5861361406533978  1.0000
