data_image0
_chemical_formula_structural       NC10NC3NH7C12SCH12C13OH12Zn2C4O8
_chemical_formula_sum              "N3 C43 H31 S1 O9 Zn2"
_cell_length_a       19.210446455230148
_cell_length_b       10.299776766347529
_cell_length_c       10.299153481560893
_cell_angle_alpha    85.58387196387294
_cell_angle_beta     90.00736926035154
_cell_angle_gamma    89.9285037425463

_space_group_name_H-M_alt    "P 1"
_space_group_IT_number       1

loop_
  _space_group_symop_operation_xyz
  'x, y, z'

loop_
  _atom_site_type_symbol
  _atom_site_label
  _atom_site_symmetry_multiplicity
  _atom_site_fract_x
  _atom_site_fract_y
  _atom_site_fract_z
  _atom_site_occupancy
  N   N1        1.0  0.6549960067661726  0.4196308344419632  0.567405734891441  1.0000
  C   C1        1.0  0.5947669345742141  0.4218383765508617  0.5676370308262244  1.0000
  C   C2        1.0  0.5199618467312797  0.4245753244433092  0.5679235777668052  1.0000
  C   C3        1.0  0.4843238876850711  0.5408082951552062  0.5830431537979293  1.0000
  C   C4        1.0  0.41165835984440374  0.5409598094286145  0.5829905662368908  1.0000
  C   C5        1.0  0.3747949257857923  0.42528430425472025  0.568010108419321  1.0000
  C   C6        1.0  0.2974731191242916  0.4239278090073684  0.5678594256220362  1.0000
  C   C7        1.0  0.25968101859236614  0.52747282813838  0.5045042289329897  1.0000
  C   C8        1.0  0.18690300495859233  0.5260705939169692  0.5043950610399879  1.0000
  C   C9        1.0  0.1509156054708718  0.4213808252942199  0.5675901098844693  1.0000
  C   C10       1.0  0.07598639649903181  0.42007872765059284  0.567453194051867  1.0000
  N   N2        1.0  0.015748794309279404  0.4190317969500772  0.567343148595572  1.0000
  C   C11       1.0  0.18798401170300139  0.31796148641394706  0.6309203063409234  1.0000
  C   C12       1.0  0.260763953823222  0.3190894778124124  0.6310797021073407  1.0000
  C   C13       1.0  0.41304232915428807  0.3108716465095915  0.5531788191410574  1.0000
  N   N3        1.0  0.4838116756400439  0.3133166179000024  0.5533445449718992  1.0000
  H   H1        1.0  0.5124039349860949  0.6302439331015255  0.5950975711687239  1.0000
  H   H2        1.0  0.3843686889854466  0.6309777989768395  0.5964397517961335  1.0000
  H   H3        1.0  0.2863780468667042  0.6087057495559778  0.4535187667285461  1.0000
  H   H4        1.0  0.15872679481490606  0.6064763099951902  0.4547399432367025  1.0000
  H   H5        1.0  0.1606471211345224  0.23659236259846428  0.6804758751171156  1.0000
  H   H6        1.0  0.28829552015997406  0.23880346128999275  0.682172560445123  1.0000
  H   H7        1.0  0.3867980207978725  0.21999074181981193  0.5396833290864722  1.0000
  C   C14       1.0  0.8354413593440256  0.03796607987105993  0.5673728367910593  1.0000
  C   C15       1.0  0.8396456575614973  0.026449328827579107  0.7038864974260215  1.0000
  C   C16       1.0  0.8417089904835287  0.9034751917204388  0.7730644260979176  1.0000
  C   C17       1.0  0.8395125564209646  0.7911617792332569  0.7039017109012389  1.0000
  C   C18       1.0  0.8353101171925795  0.8006865793939166  0.5673873005589558  1.0000
  C   C19       1.0  0.833297651254848  0.9245278306772581  0.4998870330961453  1.0000
  C   C20       1.0  0.8461489924295982  0.8923556874512727  0.9174804774205698  1.0000
  C   C21       1.0  0.8063216159758756  0.7989895917557926  0.991530345018973  1.0000
  C   C22       1.0  0.8105210827961379  0.7887592568445061  0.1274394152476388  1.0000
  C   C23       1.0  0.854374653116886  0.8716174251335878  0.1911053268005577  1.0000
  C   C24       1.0  0.8943683604119511  0.964409980850783  0.11842850016152628  1.0000
  C   C25       1.0  0.8902709628816861  0.9749900310798962  0.9825089971847083  1.0000
  S   S1        1.0  0.8598399083584948  0.8580298328190802  0.3654953491212872  1.0000
  C   C26       1.0  0.7898942971374435  0.9742152328167293  0.38503626892220844  1.0000
  H   H8        1.0  0.8338667164378286  0.36980792129581913  0.515354930471212  1.0000
  H   H9        1.0  0.8403654582494228  0.11329938470932309  0.756844896146533  1.0000
  H   H10       1.0  0.842047330498538  0.6961639391281914  0.7566636576742058  1.0000
  H   H11       1.0  0.8300546898767606  0.9326440253425885  0.39457254837322425  1.0000
  H   H12       1.0  0.8336740451837186  0.47686225044042546  0.5153740706767727  1.0000
  H   H13       1.0  0.7712729797816158  0.7350657635375833  0.9444221260452774  1.0000
  H   H14       1.0  0.7794079882768629  0.7167698686079191  0.18316651183977462  1.0000
  H   H15       1.0  0.9286763934441143  0.028391519860527344  0.16712578789997412  1.0000
  H   H16       1.0  0.9222628348151696  0.046609547888541776  0.9281947959785313  1.0000
  H   H17       1.0  0.8038215700123009  0.0705031876474078  0.336156017791328  1.0000
  H   H18       1.0  0.7818448242315995  0.9849481101841315  0.49031732441329723  1.0000
  H   H19       1.0  0.7409057027106358  0.9387480196550133  0.3429225264652799  1.0000
  C   C27       1.0  0.835315969104791  0.4191790021237293  0.18600751464409138  1.0000
  C   C28       1.0  0.7633522513178405  0.39491856095694006  0.18669102040120422  1.0000
  C   C29       1.0  0.7269913650948376  0.3827805623965883  0.0698699957698885  1.0000
  C   C30       1.0  0.7635164285217512  0.3952355835590968  0.9513830303115663  1.0000
  C   C31       1.0  0.8354354996272831  0.4194736649172572  0.9487525845005024  1.0000
  C   C32       1.0  0.8709153311904188  0.4313002404040264  0.06659836724693302  1.0000
  C   C33       1.0  0.6509079656857661  0.35714438432686846  0.07156570291719189  1.0000
  C   C34       1.0  0.6068718777392765  0.42245349670275867  0.9789069475685537  1.0000
  C   C35       1.0  0.5352728999733399  0.39837228219158777  0.9805806637782131  1.0000
  C   C36       1.0  0.5065050489353944  0.3077088813343214  0.07404394689047544  1.0000
  C   C37       1.0  0.5500739714490803  0.2434968115360696  0.16762133430014425  1.0000
  C   C38       1.0  0.6216762565460986  0.2675483735175408  0.16612576661636558  1.0000
  C   C39       1.0  0.42936920642462306  0.28455055597655177  0.07797329236344552  1.0000
  O   O1        1.0  0.3980888645052575  0.3721895133499953  0.15748755122834665  1.0000
  H   H20       1.0  0.9710623828137245  0.46580155979937254  0.3919457636459347  1.0000
  H   H21       1.0  0.7352896202781417  0.38720154319520084  0.27817132318130783  1.0000
  H   H22       1.0  0.7359001788454539  0.38422930000631156  0.8612084939511203  1.0000
  H   H23       1.0  0.9263882854882481  0.44999944402280967  0.0652852465391498  1.0000
  H   H24       1.0  0.8630888799783071  0.42888241377743  0.6202587737968255  1.0000
  H   H25       1.0  0.6276676364224499  0.49367432870298256  0.9063470196224745  1.0000
  H   H26       1.0  0.5022370555144693  0.450706823541962  0.909106549182606  1.0000
  H   H27       1.0  0.528635961873204  0.1744834161082096  0.24162129583510583  1.0000
  H   H28       1.0  0.6542937842694764  0.21501402887774868  0.2381231634680403  1.0000
  H   H29       1.0  0.4183387900629947  0.18278266510546756  0.1167921701574437  1.0000
  H   H30       1.0  0.40733379835545014  0.29795226575954126  0.9778465067693287  1.0000
  H   H31       1.0  0.347490136037361  0.3529201582320875  0.1567925817259539  1.0000
  Zn  Zn1       1.0  0.7591014694936237  0.41945450403864015  0.56739517291136  1.0000
  Zn  Zn2       1.0  0.9116433191296353  0.41919754901654627  0.5673643462536901  1.0000
  C   C40       1.0  0.8354122299830046  0.41424434086980577  0.8045773489342704  1.0000
  C   C41       1.0  0.8353342241304768  0.4244093480324977  0.33018229739284277  1.0000
  C   C42       1.0  0.8353305122707358  0.6565141821561277  0.5622093282443339  1.0000
  C   C43       1.0  0.8354158900702507  0.1821379465730404  0.5725503873030446  1.0000
  O   O2        1.0  0.8932291886172653  0.42606152112063284  0.37855697287302226  1.0000
  O   O3        1.0  0.8932929999018412  0.41239616500793685  0.7561789028660582  1.0000
  O   O4        1.0  0.8932262316581057  0.6080321276031684  0.5604650115482492  1.0000
  O   O5        1.0  0.8932959047919438  0.23042556786559729  0.5742707668259324  1.0000
  O   O6        1.0  0.777448831776267  0.608226485278687  0.5604887523428064  1.0000
  O   O7        1.0  0.7775155997374493  0.4125920829456877  0.7562025744440393  1.0000
  O   O8        1.0  0.7774517882622989  0.4262573931995721  0.378579083034597  1.0000
  O   O9        1.0  0.7775185044509864  0.23062143069343777  0.5742929743560943  1.0000
