data_image0
_chemical_formula_structural       NC6NC3H6C10H6C6NH7Zn2C4O8
_chemical_formula_sum              "N3 C29 H19 Zn2 O8"
_cell_length_a       14.934028789175542
_cell_length_b       9.275150299802176
_cell_length_c       9.274774538082514
_cell_angle_alpha    84.74231674010296
_cell_angle_beta     90.32448570792074
_cell_angle_gamma    89.44625895822752

_space_group_name_H-M_alt    "P 1"
_space_group_IT_number       1

loop_
  _space_group_symop_operation_xyz
  'x, y, z'

loop_
  _atom_site_type_symbol
  _atom_site_label
  _atom_site_symmetry_multiplicity
  _atom_site_fract_x
  _atom_site_fract_y
  _atom_site_fract_z
  _atom_site_occupancy
  N   N1        1.0  0.8282091306735813  0.5921777415092834  0.39849493201633535  1.0000
  C   C1        1.0  0.750726619842974  0.5910848970672862  0.3978214757300882  1.0000
  C   C2        1.0  0.6543344880638697  0.5897203721796118  0.39698079259673946  1.0000
  C   C3        1.0  0.6062284258478196  0.6959914155796054  0.46234661701756763  1.0000
  C   C4        1.0  0.512720241569193  0.6948957890226015  0.4616725819119494  1.0000
  C   C5        1.0  0.4664053959347638  0.5875833503689223  0.3956662811572138  1.0000
  C   C6        1.0  0.36975219109658636  0.5898858358073205  0.3970838091544866  1.0000
  N   N2        1.0  0.29226617059713267  0.5917131454268088  0.39820912509571715  1.0000
  C   C7        1.0  0.5145106375307927  0.4798420751699361  0.32939557924413143  1.0000
  C   C8        1.0  0.4665715109474285  0.3631711369400885  0.2576342421882776  1.0000
  C   C9        1.0  0.6086462759826379  0.4820556863632557  0.3307571931015978  1.0000
  H   H1        1.0  0.6410020583289624  0.7797231349622724  0.5138494134792664  1.0000
  H   H2        1.0  0.47641601266486094  0.7779826539350839  0.5127785922929136  1.0000
  H   H3        1.0  0.4232055106788098  0.4130416237714305  0.16863742976594942  1.0000
  H   H4        1.0  0.42448791647334594  0.2995914537339388  0.3382054335197253  1.0000
  H   H5        1.0  0.5142745867688592  0.28760175349048844  0.2111460766341171  1.0000
  H   H6        1.0  0.646439993270512  0.40007412194147585  0.2803313306760167  1.0000
  C   C10       1.0  0.06261387055147605  0.16821646544589375  0.4007668534987612  1.0000
  C   C11       1.0  0.10928439909717674  0.2511733532391054  0.29154292550284056  1.0000
  C   C12       1.0  0.14825429305371707  0.1859846853185685  0.17677458383887878  1.0000
  C   C13       1.0  0.14094789270379815  0.036885723203715186  0.16975196802094206  1.0000
  C   C14       1.0  0.09622978805997116  0.9524886926618565  0.2783260185707299  1.0000
  C   C15       1.0  0.05787011673943485  0.015663151485875826  0.3959497304023276  1.0000
  C   C16       1.0  0.1949261099966677  0.2727054652588874  0.06505401834404623  1.0000
  C   C17       1.0  0.2340022347741847  0.3453361745205425  0.9715206180537722  1.0000
  C   C18       1.0  0.2797585625684529  0.43039164306725175  0.861997085574524  1.0000
  C   C19       1.0  0.3188271525619982  0.5030167215200263  0.768481615006845  1.0000
  H   H7        1.0  0.021033646100032888  0.42858461267317605  0.6299889665515757  1.0000
  H   H8        1.0  0.11359527781981454  0.3675979712066746  0.2937699965565903  1.0000
  H   H9        1.0  0.17062343060341126  0.9854845816483981  0.08094568013006831  1.0000
  H   H10       1.0  0.09346740434983399  0.8365456997109187  0.27209636150018657  1.0000
  H   H11       1.0  0.0010022611209132822  0.882260904672797  0.7389121795061562  1.0000
  H   H12       1.0  0.3531326339088168  0.5667877038519445  0.6863673079427652  1.0000
  C   C20       1.0  0.05861435605347842  0.5956319659297109  0.9745219865554176  1.0000
  C   C21       1.0  0.12158665112055758  0.6807191022588295  0.04073539315510776  1.0000
  C   C22       1.0  0.18864268155374025  0.7539161173004398  0.9595124630849572  1.0000
  C   C23       1.0  0.19327097250162129  0.7423577301658586  0.8105979121451967  1.0000
  C   C24       1.0  0.1305681674515875  0.6604489597358634  0.742663697651806  1.0000
  C   C25       1.0  0.06186965123373553  0.5882476396405985  0.8221945896183533  1.0000
  N   N3        1.0  0.2526440682604023  0.8388014799323353  0.028731622739909254  1.0000
  H   H13       1.0  0.9263473638279573  0.31369642655114527  0.102128108278285  1.0000
  H   H14       1.0  0.11993651342011447  0.6875641892397062  0.15671761504816395  1.0000
  H   H15       1.0  0.24504783487685644  0.7980550239512048  0.7467181610332605  1.0000
  H   H16       1.0  0.13458356277853564  0.6564312530870804  0.6265110037312867  1.0000
  H   H17       1.0  0.9700085380532015  0.40274962200130804  0.5572249831629459  1.0000
  H   H18       1.0  0.24999316485489087  0.8478527127781039  0.14005171224558288  1.0000
  H   H19       1.0  0.3031348415712433  0.8933653655410848  0.9691478023302973  1.0000
  Zn  Zn1       1.0  0.9621260353524161  0.5920397299277071  0.39842080462359  1.0000
  Zn  Zn2       1.0  0.15834940746227844  0.5918392344696304  0.39829511972703857  1.0000
  C   C26       1.0  0.061284515403253054  0.5838951312561882  0.6619989949317129  1.0000
  C   C27       1.0  0.05919306051731476  0.5999856503445322  0.1347170593579745  1.0000
  C   C28       1.0  0.05874011349953845  0.8555278176131531  0.39110881416139054  1.0000
  C   C29       1.0  0.0617374054633919  0.32835122977478437  0.4056073269742293  1.0000
  O   O1        1.0  0.13385306134853692  0.6013644045688389  0.18843232821023115  1.0000
  O   O2        1.0  0.1355535182014106  0.5823631206939344  0.6081879248630049  1.0000
  O   O3        1.0  0.13349788341523317  0.801709938143622  0.3894421794125975  1.0000
  O   O4        1.0  0.13590862870360298  0.382017598452399  0.40717796542701534  1.0000
  O   O5        1.0  0.9845667471496475  0.8018613660149947  0.38953795895890275  1.0000
  O   O6        1.0  0.9866223719320182  0.5825162828481456  0.6082836175986672  1.0000
  O   O7        1.0  0.9849219087562339  0.6015175315566605  0.1885262859610024  1.0000
  O   O8        1.0  0.9869774765809669  0.3821707141770294  0.40727203144669955  1.0000
