data_image0
_chemical_formula_structural       NC12NC2H8C12NCOCH13C13OH12Zn2C4O8
_chemical_formula_sum              "N3 C45 H33 O10 Zn2"
_cell_length_a       19.240039667572717
_cell_length_b       10.299155265289647
_cell_length_c       10.299153481560893
_cell_angle_alpha    85.56585442832863
_cell_angle_beta     90.01662043824444
_cell_angle_gamma    89.9765233896273

_space_group_name_H-M_alt    "P 1"
_space_group_IT_number       1

loop_
  _space_group_symop_operation_xyz
  'x, y, z'

loop_
  _atom_site_type_symbol
  _atom_site_label
  _atom_site_symmetry_multiplicity
  _atom_site_fract_x
  _atom_site_fract_y
  _atom_site_fract_z
  _atom_site_occupancy
  N   N1        1.0  0.6539429747259449  0.42083866824892324  0.5670710956020846  1.0000
  C   C1        1.0  0.5937946058775224  0.4208387522054784  0.567071013642747  1.0000
  C   C2        1.0  0.5189765686893176  0.420838869448056  0.5670708763065844  1.0000
  C   C3        1.0  0.4825330478842872  0.35640779322687155  0.6705003971723777  1.0000
  C   C4        1.0  0.4098623375419074  0.35629693638029236  0.670586968707859  1.0000
  C   C5        1.0  0.3726443336963414  0.4208389619342287  0.5670706485990453  1.0000
  C   C6        1.0  0.4098020082271599  0.48538117456170043  0.463554522984539  1.0000
  C   C7        1.0  0.48247273451918155  0.48527008224439777  0.46364121708220235  1.0000
  C   C8        1.0  0.29543924325916276  0.4208388832312697  0.5670705532028357  1.0000
  C   C9        1.0  0.25828278104846236  0.30758549085271203  0.6089705822246854  1.0000
  C   C10       1.0  0.18561205503741238  0.3076923645811879  0.6088792286780171  1.0000
  C   C11       1.0  0.1491069563737585  0.4208387540717773  0.5670706141466495  1.0000
  C   C12       1.0  0.0742889192823533  0.4208386404141602  0.5670708628386831  1.0000
  N   N2        1.0  0.0141406024715578  0.42083859966608794  0.5670710712702867  1.0000
  C   C13       1.0  0.1855493685418728  0.533985219375674  0.5252619467046953  1.0000
  C   C14       1.0  0.2582200270680856  0.5340922731771918  0.5251704305160243  1.0000
  H   H1        1.0  0.510271395098048  0.30652410762989724  0.7512551209691738  1.0000
  H   H2        1.0  0.3827925100684779  0.3072118148452255  0.7524570053319931  1.0000
  H   H3        1.0  0.38268530489863406  0.5344663231320537  0.3816844355046216  1.0000
  H   H4        1.0  0.510164158833304  0.5351536676752815  0.3828867691088518  1.0000
  H   H5        1.0  0.2854004529315549  0.21843523819231112  0.6401612306432688  1.0000
  H   H6        1.0  0.1579215728112505  0.21944174736226008  0.6411026233365987  1.0000
  H   H7        1.0  0.1578100273278863  0.6222358120614069  0.4930385666029397  1.0000
  H   H8        1.0  0.2852888339778836  0.6232426050032156  0.4939797373053003  1.0000
  C   C15       1.0  0.8341227719921634  0.03944120316602007  0.567189772688153  1.0000
  C   C16       1.0  0.822229180672058  0.04910183564649495  0.43226399231275575  1.0000
  C   C17       1.0  0.816131548183359  0.9368622622010829  0.36373605494350714  1.0000
  C   C18       1.0  0.822062949126399  0.8138419760806014  0.4319562061664225  1.0000
  C   C19       1.0  0.8339675062287016  0.8022261336482855  0.566963577466117  1.0000
  C   C20       1.0  0.8399272208737895  0.9155427414486962  0.6337491989161605  1.0000
  C   C21       1.0  0.8035504226768568  0.9480557141793114  0.22100087150720582  1.0000
  C   C22       1.0  0.8387854607020025  0.04214280365653033  0.1395829093477461  1.0000
  C   C23       1.0  0.8269515115476279  0.052545702128218075  0.005259590573390097  1.0000
  C   C24       1.0  0.7800780401429326  0.9681870762488144  0.9495087910745834  1.0000
  C   C25       1.0  0.743994022775393  0.8759162525122693  0.030858593620080702  1.0000
  C   C26       1.0  0.7558532799800968  0.8652573236955723  0.16514457675983096  1.0000
  N   N3        1.0  0.7660069277786239  0.9783878343635803  0.8119471302170459  1.0000
  C   C27       1.0  0.8167401432217671  0.015295607842795272  0.7137289603104016  1.0000
  O   O1        1.0  0.880505238316732  0.017838063534580506  0.7415874886882357  1.0000
  C   C28       1.0  0.7945458200603124  0.0417018233245625  0.5751884637939075  1.0000
  H   H9        1.0  0.8387191285428758  0.36320149590284956  0.6190823048764553  1.0000
  H   H10       1.0  0.816722182014243  0.144131771031397  0.38045412690118163  1.0000
  H   H11       1.0  0.8183159691824837  0.7270274930941455  0.3793275257700106  1.0000
  H   H12       1.0  0.8491033360876722  0.9073764284987103  0.7378198274873817  1.0000
  H   H13       1.0  0.8568528922943245  0.5730184832130677  0.8216521096681387  1.0000
  H   H14       1.0  0.8759048749615441  0.10720289706500628  0.17967539955748424  1.0000
  H   H15       1.0  0.8536055170890176  0.12798389722606143  0.9456788892860651  1.0000
  H   H16       1.0  0.706807772883323  0.8115599556711964  0.9898990636658609  1.0000
  H   H17       1.0  0.7269661002257395  0.7934357208153734  0.22555822951411586  1.0000
  H   H18       1.0  0.717049337037948  0.9495101688278174  0.7808735581157048  1.0000
  H   H19       1.0  0.7443746334784381  0.09514619543691727  0.5707348126213034  1.0000
  H   H20       1.0  0.788107327713441  0.9480789557190329  0.5299641970416507  1.0000
  H   H21       1.0  0.834103405053085  0.101776877706554  0.5197929240067851  1.0000
  C   C29       1.0  0.8339854661847395  0.4206862083216047  0.1857041761967897  1.0000
  C   C30       1.0  0.7621332602961302  0.3963042206348699  0.18638289990973966  1.0000
  C   C31       1.0  0.7258287135352571  0.38410481880317293  0.06955942121601598  1.0000
  C   C32       1.0  0.7622971747864425  0.39662154269737915  0.9510748381850335  1.0000
  C   C33       1.0  0.8341048034083617  0.42098109454828836  0.9484491737567748  1.0000
  C   C34       1.0  0.8695296612114131  0.43286758398762415  0.0662973565617826  1.0000
  C   C35       1.0  0.6498632092910765  0.35834013719163926  0.07125006843330683  1.0000
  C   C36       1.0  0.605892811820287  0.4235816623284216  0.9785631022885397  1.0000
  C   C37       1.0  0.5344047789799948  0.3993795221082146  0.9802320429425277  1.0000
  C   C38       1.0  0.5056840770824569  0.3086606741766875  0.07371895467252697  1.0000
  C   C39       1.0  0.5491879931720672  0.24451550884322248  0.16732412609528868  1.0000
  C   C40       1.0  0.6206793291958151  0.26868799951360467  0.16583334389248772  1.0000
  C   C41       1.0  0.4286676705833932  0.2853723076469359  0.07764227672648083  1.0000
  O   O2        1.0  0.3974326807037299  0.3729667494221218  0.1571234850244454  1.0000
  H   H22       1.0  0.9695215057527967  0.46753811413286234  0.3916511744725392  1.0000
  H   H23       1.0  0.7341140585308399  0.38853995284974285  0.27786078793347047  1.0000
  H   H24       1.0  0.7347237719484027  0.38556847168986086  0.8608990017912913  1.0000
  H   H25       1.0  0.9249166570517015  0.4516604811146294  0.0649879226622565  1.0000
  H   H26       1.0  0.86171533052536  0.4304365571953628  0.619957173440759  1.0000
  H   H27       1.0  0.6266543067683824  0.49484305730713496  0.9059843013008221  1.0000
  H   H28       1.0  0.5014181093941336  0.45166364244822255  0.9087357111297577  1.0000
  H   H29       1.0  0.5277851655433988  0.17546067100074936  0.24134215336398146  1.0000
  H   H30       1.0  0.6532483321189438  0.2162033643693255  0.23785294870591553  1.0000
  H   H31       1.0  0.4176574608384776  0.1835774810465034  0.11649135095487216  1.0000
  H   H32       1.0  0.4066657460039261  0.2987385641424527  0.9775074559968696  1.0000
  H   H33       1.0  0.34691242810462064  0.35361174586516864  0.15642585080650084  1.0000
  Zn  Zn1       1.0  0.7578882404452166  0.42083518389103663  0.5670785781049942  1.0000
  Zn  Zn2       1.0  0.9101953593382518  0.42083149384912133  0.5670741909084211  1.0000
  C   C42       1.0  0.8340817356723833  0.41575128890668656  0.804275583747069  1.0000
  C   C43       1.0  0.8340035269864094  0.42591702758460315  0.32987731220017324  1.0000
  C   C44       1.0  0.8339924484570074  0.6580415162682665  0.5618311255118762  1.0000
  C   C45       1.0  0.8340927625585166  0.18362523983176593  0.5723218401388375  1.0000
  O   O3        1.0  0.8918093473746533  0.42766547179651804  0.37826147044265496  1.0000
  O   O4        1.0  0.8918734945180986  0.41399906409802306  0.7558877221648719  1.0000
  O   O5        1.0  0.8918006150053613  0.6096514874115926  0.5601121064271979  1.0000
  O   O6        1.0  0.8918821748981637  0.23201305773747838  0.5740369888034864  1.0000
  O   O7        1.0  0.7762013729103584  0.6096536200053504  0.5601157802045944  1.0000
  O   O8        1.0  0.7762742520914188  0.4140027570857081  0.7558913262334626  1.0000
  O   O9        1.0  0.7762101047591485  0.4276691189211906  0.3782635131092724  1.0000
  O   O10       1.0  0.7762829322969399  0.2320166956102914  0.5740391288416125  1.0000
