data_image0
_chemical_formula_structural       NC5NC4H6C6ClH5C6OCH6Zn2C4O8
_chemical_formula_sum              "N2 C26 H17 Cl1 O9 Zn2"
_cell_length_a       13.854160002989762
_cell_length_b       9.276545438789551
_cell_length_c       9.273891588657152
_cell_angle_alpha    86.10611493905307
_cell_angle_beta     89.68013189536481
_cell_angle_gamma    89.40960627284836

_space_group_name_H-M_alt    "P 1"
_space_group_IT_number       1

loop_
  _space_group_symop_operation_xyz
  'x, y, z'

loop_
  _atom_site_type_symbol
  _atom_site_label
  _atom_site_symmetry_multiplicity
  _atom_site_fract_x
  _atom_site_fract_y
  _atom_site_fract_z
  _atom_site_occupancy
  N   N1        1.0  0.9040580727578782  0.5637223167566674  0.41099828075834904  1.0000
  C   C1        1.0  0.8317757257551848  0.5883970469853477  0.3519733800032452  1.0000
  C   C2        1.0  0.7418554717223588  0.6190930746985623  0.27854414325333954  1.0000
  C   C3        1.0  0.6542152399341415  0.5902621255586242  0.3502419380216928  1.0000
  C   C4        1.0  0.5667130593402578  0.619093088816367  0.2785441200918073  1.0000
  C   C5        1.0  0.476667585059312  0.5883969005194396  0.3519734715278205  1.0000
  N   N2        1.0  0.40428450259853826  0.5637222532706452  0.41099828063414323  1.0000
  C   C6        1.0  0.5668794883849763  0.6773614505206638  0.13516785870097883  1.0000
  C   C7        1.0  0.6544725435808457  0.7083411953476495  0.06336790776682368  1.0000
  C   C8        1.0  0.654648306054924  0.7667470349257011  0.9085040701137483  1.0000
  C   C9        1.0  0.7419565777727438  0.6773614483813977  0.13516776843202294  1.0000
  H   H1        1.0  0.6541124991370357  0.5450522734069326  0.46121246589350556  1.0000
  H   H2        1.0  0.49906758834417214  0.698642024359803  0.07953736427418634  1.0000
  H   H3        1.0  0.7191225981067358  0.8346805881891279  0.8847603979836278  1.0000
  H   H4        1.0  0.589414120187863  0.8346805906526142  0.8847604630623236  1.0000
  H   H5        1.0  0.6555448295847893  0.6755940259333575  0.836904332089131  1.0000
  H   H6        1.0  0.809890546974506  0.6986421360522366  0.07953727892388418  1.0000
  C   C10       1.0  0.15708992710403863  0.14028499448792275  0.4107606896978697  1.0000
  C   C11       1.0  0.15795148846005325  0.2227361593912807  0.277719930901136  1.0000
  C   C12       1.0  0.15002072159057775  0.1564825903420646  0.14757482720536697  1.0000
  C   C13       1.0  0.14103656790391783  0.0068995094102148906  0.148468231815285  1.0000
  C   C14       1.0  0.1416732896607218  0.9228878973935462  0.27906702592520305  1.0000
  C   C15       1.0  0.15126194341293384  0.9871486229376455  0.41124837897341987  1.0000
  Cl  Cl1       1.0  0.149886602748742  0.2616193585387958  0.9830183939496693  1.0000
  H   H7        1.0  0.20561044598655798  0.4052885548635716  0.6373767666667407  1.0000
  H   H8        1.0  0.1624849232065324  0.33943097739969935  0.2748661557633689  1.0000
  H   H9        1.0  0.13447872589258858  0.9552694965681413  0.04778020839980779  1.0000
  H   H10       1.0  0.13696427924316779  0.8066035195421539  0.27641652811523154  1.0000
  H   H11       1.0  0.11803587698718519  0.6905159039677072  0.6443260611689059  1.0000
  C   C16       1.0  0.15578345710803515  0.5598978989985703  0.9877269968636471  1.0000
  C   C17       1.0  0.23441020695518186  0.6208022687068777  0.056335776782791454  1.0000
  C   C18       1.0  0.30748781584091445  0.6924739377448837  0.9765673107187142  1.0000
  C   C19       1.0  0.30219926941985753  0.7036025527847227  0.8251331059762008  1.0000
  C   C20       1.0  0.22560638132422683  0.6418250868525908  0.7551816255697847  1.0000
  C   C21       1.0  0.15256836899142232  0.5675356248795533  0.8342820355292472  1.0000
  O   O1        1.0  0.38349078263836733  0.7516029458380193  0.05180797577461904  1.0000
  C   C22       1.0  0.4624527869623418  0.8274896074466738  0.9847753121011662  1.0000
  H   H12       1.0  0.9268053352222806  0.47133464179017137  0.09869321483529725  1.0000
  H   H13       1.0  0.3574226350720806  0.7586644001650722  0.7602426831889666  1.0000
  H   H14       1.0  0.22477641222623698  0.6492566631850536  0.6381047288978481  1.0000
  H   H15       1.0  0.43587158699567063  0.9250671604863082  0.9204359226060693  1.0000
  H   H16       1.0  0.5031913396756151  0.755926156527565  0.914321437511914  1.0000
  H   H17       1.0  0.5116248346616101  0.8619557835375603  0.06963870933981764  1.0000
  Zn  Zn1       1.0  0.04841261539876718  0.5637185131028326  0.4110066112451487  1.0000
  Zn  Zn2       1.0  0.2599299973780822  0.563714364103589  0.41100178118072384  1.0000
  C   C23       1.0  0.15321348406348068  0.5603475920307204  0.6742617167705446  1.0000
  C   C24       1.0  0.1551314254186106  0.5670871057808566  0.14774681812402624  1.0000
  C   C25       1.0  0.15238038354638278  0.827021515112728  0.40541231351977647  1.0000
  C   C26       1.0  0.15596446539003664  0.30041145097560906  0.41659629722607006  1.0000
  O   O2        1.0  0.2351823850482614  0.5694920040039677  0.201449095331266  1.0000
  O   O3        1.0  0.2336993322389498  0.5579384532749214  0.6205553581017855  1.0000
  O   O4        1.0  0.2330255052687744  0.7732810322591479  0.4034575637107638  1.0000
  O   O5        1.0  0.23585614018134635  0.3541494343610998  0.41854678165470927  1.0000
  O   O6        1.0  0.07248640041501896  0.7732834428482394  0.4034616107652307  1.0000
  O   O7        1.0  0.073160215750383  0.5579425955901698  0.6205593292990439  1.0000
  O   O8        1.0  0.07464327555125513  0.569496080435812  0.2014513335166368  1.0000
  O   O9        1.0  0.07531703034094712  0.3541535014545032  0.41854912790172616  1.0000
