data_image0
_chemical_formula_structural       NC8NH4C7NH5C8H8Zn2C4O8
_chemical_formula_sum              "N3 C27 H17 Zn2 O8"
_cell_length_a       13.859017981522156
_cell_length_b       9.275154477615127
_cell_length_c       9.275657083861812
_cell_angle_alpha    86.07548322511155
_cell_angle_beta     89.50283111100838
_cell_angle_gamma    89.43373755438122

_space_group_name_H-M_alt    "P 1"
_space_group_IT_number       1

loop_
  _space_group_symop_operation_xyz
  'x, y, z'

loop_
  _atom_site_type_symbol
  _atom_site_label
  _atom_site_symmetry_multiplicity
  _atom_site_fract_x
  _atom_site_fract_y
  _atom_site_fract_z
  _atom_site_occupancy
  N   N1        1.0  0.9074050757583476  0.5697564627561291  0.416138044658088  1.0000
  C   C1        1.0  0.8354553362052718  0.562412519429601  0.35479170623808964  1.0000
  C   C2        1.0  0.7459540798055708  0.5532779869806543  0.27848484519658734  1.0000
  C   C3        1.0  0.7467536040547125  0.5354647636994947  0.12968272095285482  1.0000
  C   C4        1.0  0.659809989460117  0.5265948070188171  0.055578955455261266  1.0000
  C   C5        1.0  0.5718883181232617  0.535466484442483  0.1296824794644842  1.0000
  C   C6        1.0  0.5707238375304089  0.5532789591154972  0.2784846652519464  1.0000
  C   C7        1.0  0.6578481041760668  0.5621835688938279  0.3528745719159001  1.0000
  C   C8        1.0  0.48021551484479497  0.5624134217750099  0.3547914693783887  1.0000
  N   N2        1.0  0.40745615855908907  0.569756775697944  0.41613795229013206  1.0000
  H   H1        1.0  0.8144354863822416  0.5284551266881192  0.0711306534570475  1.0000
  H   H2        1.0  0.6605684935887516  0.5128351173537171  0.9406357182400177  1.0000
  H   H3        1.0  0.5049791985499958  0.5284582216676603  0.07113024575422022  1.0000
  H   H4        1.0  0.6570880515284976  0.5759710076358957  0.4680514954571082  1.0000
  C   C9        1.0  0.16023714030381456  0.1463587740055765  0.414469838090991  1.0000
  C   C10       1.0  0.13449441289854125  0.22888525678902158  0.2873672630350057  1.0000
  C   C11       1.0  0.10086404449706388  0.16222879282743752  0.16699750269036628  1.0000
  C   C12       1.0  0.09241936860575885  0.01213555211291961  0.172312702501215  1.0000
  C   C13       1.0  0.11907330145735709  0.9283865197826058  0.2965180752839214  1.0000
  C   C14       1.0  0.15463334074920576  0.9931434819104606  0.41781861664771625  1.0000
  C   C15       1.0  0.07384656598624106  0.24832922170721308  0.03836301035157396  1.0000
  N   N3        1.0  0.0521320233945044  0.3175382296641065  0.934973827939973  1.0000
  H   H5        1.0  0.17687953206290086  0.2248466278556089  0.7683214666964964  1.0000
  H   H6        1.0  0.13845992258273232  0.3458226988276769  0.2830899616384306  1.0000
  H   H7        1.0  0.06605818604291769  0.9595339742409764  0.07980098195577612  1.0000
  H   H8        1.0  0.11400733335714855  0.811918268886299  0.2963912107809381  1.0000
  H   H9        1.0  0.16994050452057818  0.6955905445925316  0.6549092721910228  1.0000
  C   C16       1.0  0.15990742719633944  0.5675776258572334  0.9928157301711225  1.0000
  C   C17       1.0  0.20916233640470772  0.6774859417178976  0.058190747087914385  1.0000
  C   C18       1.0  0.24985648354972279  0.7935652026292572  0.9749112033106285  1.0000
  C   C19       1.0  0.24273427805678677  0.7987524971219899  0.8242928321299505  1.0000
  C   C20       1.0  0.19555912548248403  0.6894897168917862  0.7574677637950513  1.0000
  C   C21       1.0  0.15496304446488618  0.5719245904244916  0.8394727083594217  1.0000
  C   C22       1.0  0.30353457331315314  0.9091852474938562  0.046568325135125654  1.0000
  C   C23       1.0  0.40979136239769853  0.8680431381018634  0.06425021452672808  1.0000
  H   H10       1.0  0.21416891596780313  0.6748128808378024  0.174905200976317  1.0000
  H   H11       1.0  0.2746802972743194  0.8868750645033676  0.7582550862012103  1.0000
  H   H12       1.0  0.042137325346011334  0.4057552660055104  0.5709811990678806  1.0000
  H   H13       1.0  0.2975576392309036  0.013856006838473418  0.9811419519136867  1.0000
  H   H14       1.0  0.2713339443331422  0.9255144141699692  0.1545094024514797  1.0000
  H   H15       1.0  0.41733908347567317  0.7654749912844068  0.13259277909156486  1.0000
  H   H16       1.0  0.44383486318311616  0.8547735364922748  0.9570229179735574  1.0000
  H   H17       1.0  0.44802136786074176  0.9545931411085395  0.11715908804323605  1.0000
  Zn  Zn1       1.0  0.051708999434994636  0.5697527456435856  0.41614632373443006  1.0000
  Zn  Zn2       1.0  0.26315224655466474  0.5697487895319262  0.4161414216209878  1.0000
  C   C24       1.0  0.15593349961982028  0.5653590870797265  0.6794136727416713  1.0000
  C   C25       1.0  0.15893004245820253  0.5741442679835842  0.1528742212452896  1.0000
  C   C26       1.0  0.15572115523204388  0.833053633453466  0.41144102819296724  1.0000
  C   C27       1.0  0.15914232570997533  0.3064479897492245  0.4208469358017122  1.0000
  O   O1        1.0  0.23884367517425675  0.5763403016069155  0.20658942780037395  1.0000
  O   O2        1.0  0.23650040862539146  0.563158961035215  0.6256943263165666  1.0000
  O   O3        1.0  0.23632784739779256  0.7793257004079133  0.40930452584634525  1.0000
  O   O4        1.0  0.23901616481356497  0.36017357199466704  0.42297912022488204  1.0000
  O   O5        1.0  0.07584500902092528  0.7793279631837251  0.4093086251246316  1.0000
  O   O6        1.0  0.07601755922935861  0.5631629556745277  0.6256983555812305  1.0000
  O   O7        1.0  0.07836083629653247  0.5763442371041001  0.20659172367481515  1.0000
  O   O8        1.0  0.07853332536896218  0.36017749773428176  0.4229815241391326  1.0000
