data_image0
_chemical_formula_structural       NC12NC2H8C6H6C6H6Zn2C4O8
_chemical_formula_sum              "N2 C30 H20 Zn2 O8"
_cell_length_a       19.240039667572717
_cell_length_b       10.302277161923591
_cell_length_c       10.681121600428288
_cell_angle_alpha    85.56070482122752
_cell_angle_beta     89.99986269578453
_cell_angle_gamma    89.99830691698375

_space_group_name_H-M_alt    "P 1"
_space_group_IT_number       1

loop_
  _space_group_symop_operation_xyz
  'x, y, z'

loop_
  _atom_site_type_symbol
  _atom_site_label
  _atom_site_symmetry_multiplicity
  _atom_site_fract_x
  _atom_site_fract_y
  _atom_site_fract_z
  _atom_site_occupancy
  N   N1        1.0  0.6544564744495898  0.42092906962149  0.6186792231559584  1.0000
  C   C1        1.0  0.5943081056310852  0.4209291535823386  0.6186791441492236  1.0000
  C   C2        1.0  0.5194900684882422  0.4209292708397556  0.6186790117539234  1.0000
  C   C3        1.0  0.48301724226773635  0.356479236479821  0.7183943337641063  1.0000
  C   C4        1.0  0.4103464958107275  0.3563683823292801  0.7184777802008022  1.0000
  C   C5        1.0  0.3731578335497376  0.42092936338376363  0.618678792209346  1.0000
  C   C6        1.0  0.4103448496727554  0.4854905313756164  0.5188799918159566  1.0000
  C   C7        1.0  0.4830155397830377  0.48537944178377773  0.5189635563680755  1.0000
  C   C8        1.0  0.29595274311147646  0.42092928474333496  0.6186787001993592  1.0000
  C   C9        1.0  0.2587666721556231  0.3076966327792234  0.6590491613484735  1.0000
  C   C10       1.0  0.1860959821972249  0.307803506958527  0.6589611026339932  1.0000
  C   C11       1.0  0.14962045619024478  0.42092915560241057  0.6186787589285787  1.0000
  C   C12       1.0  0.0748024190367738  0.420929041885753  0.6186789987017727  1.0000
  N   N2        1.0  0.0146541021850541  0.42092900107042225  0.618679199673982  1.0000
  C   C13       1.0  0.18609244103874564  0.5340548800553254  0.5783963642248728  1.0000
  C   C14       1.0  0.2587631356797209  0.5341619343117998  0.5783081487314534  1.0000
  H   H1        1.0  0.5107327946013742  0.306580611245421  0.7962492412027233  1.0000
  H   H2        1.0  0.3832538613690497  0.3072676297412884  0.7974083760984751  1.0000
  H   H3        1.0  0.3832509533259418  0.5345913110097309  0.4399493468874254  1.0000
  H   H4        1.0  0.5107297589137156  0.5352779667781618  0.4411089148684532  1.0000
  H   H5        1.0  0.2858613173226425  0.21856339896205232  0.689099804721989  1.0000
  H   H6        1.0  0.1583824946629815  0.21956921611468738  0.6900078470739586  1.0000
  H   H7        1.0  0.1583761051255688  0.6222891463683443  0.5473496338145698  1.0000
  H   H8        1.0  0.2858549693287163  0.6232952472860873  0.5482574621889602  1.0000
  C   C15       1.0  0.8345586321828958  0.039655933497109386  0.6186846051168979  1.0000
  C   C16       1.0  0.8018751459400383  0.9186945421564718  0.6464892239429616  1.0000
  C   C17       1.0  0.8345585987218429  0.8021921676600678  0.6186846363176453  1.0000
  C   C18       1.0  0.9006509666635719  0.8079310609831629  0.5624582377678113  1.0000
  C   C19       1.0  0.9333407461754953  0.927662380924915  0.5346481906209539  1.0000
  C   C20       1.0  0.9006509564223946  0.042934004383961666  0.5624581527539019  1.0000
  H   H9        1.0  0.7099237271808461  0.24066980814741676  0.7247146222982159  1.0000
  H   H10       1.0  0.7509531969853488  0.9152209837224  0.6898096554736075  1.0000
  H   H11       1.0  0.7099239586487669  0.5841742985208139  0.7247156016321679  1.0000
  H   H12       1.0  0.9271206089247438  0.7199443040490618  0.5399399040463146  1.0000
  H   H13       1.0  0.9842416967127442  0.9311346698659565  0.49134551061258097  1.0000
  H   H14       1.0  0.9271206187825919  0.13453195393412767  0.5399397697636672  1.0000
  C   C21       1.0  0.8345586404164247  0.4209240348280061  0.2509393815686558  1.0000
  C   C22       1.0  0.784811335561222  0.34871421048237083  0.1895168964056717  1.0000
  C   C23       1.0  0.7848112921671095  0.34871429373414475  0.05863475645278516  1.0000
  C   C24       1.0  0.8345585857779904  0.4209240984733108  0.9864298172450083  1.0000
  C   C25       1.0  0.8842648306456278  0.4930740824996136  0.04785172206368005  1.0000
  C   C26       1.0  0.8842648217532872  0.4930740623667826  0.17874402072672613  1.0000
  H   H15       1.0  0.8848663527769962  0.4939480082706993  0.544197121475881  1.0000
  H   H16       1.0  0.7458170495147222  0.29211273737119225  0.2425537334317525  1.0000
  H   H17       1.0  0.7458170349990938  0.2921127984870484  0.014049704206223089  1.0000
  H   H18       1.0  0.9232642088530801  0.5496830142277164  0.9948592204050186  1.0000
  H   H19       1.0  0.9232641738348047  0.5496829687130451  0.22328358788942815  1.0000
  H   H20       1.0  0.8848665696979859  0.49394755591783185  0.6822680957624128  1.0000
  Zn  Zn1       1.0  0.7584017382882986  0.42092558350832443  0.6186864372954499  1.0000
  Zn  Zn2       1.0  0.9107088571171921  0.42092189636513067  0.6186822058084409  1.0000
  C   C27       1.0  0.8345570640811202  0.41575168399605017  0.8474063920787842  1.0000
  C   C28       1.0  0.8345551945133369  0.4260974340450829  0.3899623738918696  1.0000
  C   C29       1.0  0.8345550433980228  0.6580565900376067  0.6136943136761879  1.0000
  C   C30       1.0  0.8345571632246859  0.18379096809418138  0.6236745190611024  1.0000
  O   O1        1.0  0.8923537958772314  0.4278266105122012  0.4366181542789269  1.0000
  O   O2        1.0  0.8923560417615511  0.41401872959616504  0.8007470395998968  1.0000
  O   O3        1.0  0.8923536308659585  0.6096830056074213  0.6120228827597338  1.0000
  O   O4        1.0  0.8923561548007253  0.23216234379008682  0.6253422172243928  1.0000
  O   O5        1.0  0.7767543886298206  0.60968513608604  0.6120264258743549  1.0000
  O   O6        1.0  0.7767567995222167  0.4140224199867999  0.8007505159427384  1.0000
  O   O7        1.0  0.7767545536841859  0.4278302556581681  0.43662012499918257  1.0000
  O   O8        1.0  0.7767569126048339  0.2321659796495829  0.6253442818342028  1.0000
