data_image0
_chemical_formula_structural       NC6NC3H6C6NCH9C9H9Zn2C4O8
_chemical_formula_sum              "N3 C29 H24 Zn2 O8"
_cell_length_a       14.934028789175542
_cell_length_b       9.273386996610926
_cell_length_c       10.297187173949778
_cell_angle_alpha    85.47297527559209
_cell_angle_beta     89.94921482241688
_cell_angle_gamma    89.3610420342759

_space_group_name_H-M_alt    "P 1"
_space_group_IT_number       1

loop_
  _space_group_symop_operation_xyz
  'x, y, z'

loop_
  _atom_site_type_symbol
  _atom_site_label
  _atom_site_symmetry_multiplicity
  _atom_site_fract_x
  _atom_site_fract_y
  _atom_site_fract_z
  _atom_site_occupancy
  N   N1        1.0  0.8333500629083492  0.5778393264854202  0.5643670994369125  1.0000
  C   C1        1.0  0.755871341914285  0.5767406644805959  0.5637570035621531  1.0000
  C   C2        1.0  0.6594839413219494  0.5753688775010033  0.5629954128088537  1.0000
  C   C3        1.0  0.6110098525761892  0.6822045509383052  0.6222121836784009  1.0000
  C   C4        1.0  0.5175054630937065  0.6811031020400462  0.6216015567579514  1.0000
  C   C5        1.0  0.47156225014370656  0.5732205009279652  0.5618045596294272  1.0000
  C   C6        1.0  0.3749010662103283  0.5755352312286904  0.5630887311325159  1.0000
  N   N2        1.0  0.2974087119382459  0.5773722615946646  0.5641081790070088  1.0000
  C   C7        1.0  0.5200406121253067  0.46490677925003965  0.5017680376388025  1.0000
  C   C8        1.0  0.4725055224421044  0.34761596679763906  0.4367573810958296  1.0000
  C   C9        1.0  0.6141685844175068  0.46713215207512926  0.5030015622856534  1.0000
  H   H1        1.0  0.6454935118583839  0.7663811516290262  0.6688700373134506  1.0000
  H   H2        1.0  0.48091349478086787  0.7646314207937551  0.6678999513837969  1.0000
  H   H3        1.0  0.4294608717420664  0.3966943005218111  0.35683819502843095  1.0000
  H   H4        1.0  0.4301480269109924  0.284755657490266  0.5090435163288214  1.0000
  H   H5        1.0  0.5204703289195359  0.27164501727030466  0.3946424599280538  1.0000
  H   H6        1.0  0.6522462121449357  0.3847150089879613  0.45731933142740916  1.0000
  C   C10       1.0  0.0681370580925404  0.15394910666757533  0.5648744090318947  1.0000
  C   C11       1.0  0.08389629034499285  0.23739279214765285  0.44741526501431483  1.0000
  C   C12       1.0  0.09122445760589447  0.17286647413297773  0.329953565083269  1.0000
  C   C13       1.0  0.08290462920192487  0.022573772265318977  0.32694782884782025  1.0000
  C   C14       1.0  0.06872352530762565  0.9381655282151523  0.4439980960988281  1.0000
  C   C15       1.0  0.0626303707390341  0.0012513328380165882  0.56361212427225  1.0000
  N   N3        1.0  0.08947658523369606  0.9530114593156686  0.20706152230682728  1.0000
  C   C16       1.0  0.10443297515535382  0.030875578101364983  0.08029279883597984  1.0000
  H   H7        1.0  0.08636472075890661  0.4161046260650234  0.7781259651187036  1.0000
  H   H8        1.0  0.08846396733470296  0.35403387020849286  0.4458190576085748  1.0000
  H   H9        1.0  0.1025442792622615  0.24144514000700434  0.24171272220823672  1.0000
  H   H10       1.0  0.06449763532479054  0.8217684320506091  0.44195125679744085  1.0000
  H   H11       1.0  0.09550138086572324  0.869899536030364  0.879975729969016  1.0000
  H   H12       1.0  0.08314511842764433  0.8406510776498758  0.20975868601582182  1.0000
  H   H13       1.0  0.048929238946666224  0.10950192122516977  0.05775440139612753  1.0000
  H   H14       1.0  0.169244897962324  0.08836212020977574  0.08046624619831788  1.0000
  H   H15       1.0  0.10671421931967306  0.9534261780407206  0.0033908724553224365  1.0000
  C   C17       1.0  0.06550244190956334  0.5775479602176115  0.18279011214526575  1.0000
  C   C18       1.0  0.9744998911840327  0.6172655653338626  0.17929980141354873  1.0000
  C   C19       1.0  0.9278766037966075  0.6376138231368638  0.06089520894019218  1.0000
  C   C20       1.0  0.9741471241746312  0.6174189768708743  0.9440770445896174  1.0000
  C   C21       1.0  0.0652650140126767  0.5776525252894416  0.9456963985129336  1.0000
  C   C22       1.0  0.110347648616397  0.5579752851842406  0.06544185418482096  1.0000
  C   C23       1.0  0.8294507882815468  0.6805709566291172  0.06655235888804678  1.0000
  C   C24       1.0  0.7671386951054215  0.6226064630663057  0.9664019432539925  1.0000
  C   C25       1.0  0.7927312897311092  0.7817413140001512  0.9550504665821653  1.0000
  H   H16       1.0  0.9393679802484072  0.6325991014099367  0.2693747076075148  1.0000
  H   H17       1.0  0.9399901040311059  0.6323233247873505  0.8514667961897997  1.0000
  H   H18       1.0  0.180557856930313  0.5273316010276077  0.06740735615742022  1.0000
  H   H19       1.0  0.23735777456268023  0.5025264383399128  0.7415397829154524  1.0000
  H   H20       1.0  0.7978152502175451  0.694379325386584  0.16262671899931314  1.0000
  H   H21       1.0  0.7978867049309899  0.5574594416670204  0.8919570507986636  1.0000
  H   H22       1.0  0.6976710221266245  0.603155690740901  0.0015884368574452547  1.0000
  H   H23       1.0  0.8390258417153622  0.8132598320938822  0.8737111011725305  1.0000
  H   H24       1.0  0.7382205599423421  0.8552982907781319  0.9836001045819779  1.0000
  Zn  Zn1       1.0  0.9672674011056374  0.5777006766955175  0.564299881861118  1.0000
  Zn  Zn2       1.0  0.1634914773052842  0.5774990951092016  0.5641860342485145  1.0000
  C   C26       1.0  0.06534523948904165  0.5718853818443944  0.8014993352865745  1.0000
  C   C27       1.0  0.06541576981266295  0.5833162080929832  0.3269867043625414  1.0000
  C   C28       1.0  0.06366826885858212  0.841092485671286  0.5586743899492708  1.0000
  C   C29       1.0  0.06709268472892876  0.3141073710290281  0.569811721574907  1.0000
  O   O1        1.0  0.13985273705755452  0.5851692916299969  0.37533720276390703  1.0000
  O   O2        1.0  0.139837812953305  0.5698782141382526  0.7530620568743325  1.0000
  O   O3        1.0  0.13848263370316283  0.7872663562832907  0.5569791938352802  1.0000
  O   O4        1.0  0.14120784931295133  0.3677811598607599  0.5714199684302588  1.0000
  O   O5        1.0  0.9895509621363144  0.7874186120143187  0.5570659477113893  1.0000
  O   O6        1.0  0.9909061301389961  0.570032203176704  0.7531487389073945  1.0000
  O   O7        1.0  0.9909210551155909  0.5853232301802577  0.37542232312630563  1.0000
  O   O8        1.0  0.9922761674040786  0.36793508810557896  0.5715051861973732  1.0000
