data_image0
_chemical_formula_structural       NC8NC6H8C10IC2H9C10IC2H9Zn2C4O8
_chemical_formula_sum              "N2 C42 H26 I2 Zn2 O8"
_cell_length_a       17.457602349358154
_cell_length_b       10.299770258652044
_cell_length_c       10.299773630820606
_cell_angle_alpha    85.54431016465574
_cell_angle_beta     92.88150931118494
_cell_angle_gamma    91.70636658755173

_space_group_name_H-M_alt    "P 1"
_space_group_IT_number       1

loop_
  _space_group_symop_operation_xyz
  'x, y, z'

loop_
  _atom_site_type_symbol
  _atom_site_label
  _atom_site_symmetry_multiplicity
  _atom_site_fract_x
  _atom_site_fract_y
  _atom_site_fract_z
  _atom_site_occupancy
  N   N1        1.0  0.7226275646230788  0.4532469919311454  0.6265498446037845  1.0000
  C   C1        1.0  0.6615403626251043  0.40732539922469635  0.6159322701722497  1.0000
  C   C2        1.0  0.58554530189578  0.3502046492819043  0.6027335498395268  1.0000
  C   C3        1.0  0.5270282583801035  0.39034302086812706  0.6776334048496486  1.0000
  C   C4        1.0  0.4524717145436448  0.3353403278657141  0.665049208974337  1.0000
  C   C5        1.0  0.3903644344149053  0.3777204628115496  0.7443709912206615  1.0000
  C   C6        1.0  0.31581831472975014  0.39620599386595456  0.6886077146514551  1.0000
  C   C7        1.0  0.2573012392289096  0.43616040790727284  0.7636155172141943  1.0000
  C   C8        1.0  0.18131696159308733  0.4552524734943155  0.7056367840426163  1.0000
  N   N2        1.0  0.1202385176797924  0.4705961145292883  0.6590220333772752  1.0000
  C   C9        1.0  0.2728381937683433  0.4578722731461528  0.894895127589832  1.0000
  C   C10       1.0  0.3465997037372469  0.4397756059159086  0.9510460204793654  1.0000
  C   C11       1.0  0.40510523272373294  0.40000110315494614  0.8764959500221945  1.0000
  C   C12       1.0  0.43772065565321844  0.2395222924632341  0.5761322002430935  1.0000
  C   C13       1.0  0.4962260550633761  0.1996624749781022  0.5016323626335266  1.0000
  C   C14       1.0  0.5699978837071052  0.2547773724873572  0.5147665172935407  1.0000
  H   H1        1.0  0.5393900864364908  0.4655161743542129  0.7442675646929472  1.0000
  H   H2        1.0  0.3034650655677563  0.38126741713386636  0.5865817927301232  1.0000
  H   H3        1.0  0.2279861963315452  0.4887365999488426  0.9537326477429171  1.0000
  H   H4        1.0  0.35843951736857455  0.4562719472599406  0.05269873838720962  1.0000
  H   H5        1.0  0.4615904499740058  0.38499512654720064  0.9226022203367295  1.0000
  H   H6        1.0  0.38122684154880826  0.19419037477289725  0.5654785312117334  1.0000
  H   H7        1.0  0.4843781849066833  0.12560614593552777  0.43379991415212193  1.0000
  H   H8        1.0  0.6148497872874313  0.22304319582967946  0.45644009311754585  1.0000
  C   C15       1.0  0.9213644055589876  0.08055328892692558  0.64277723682003  1.0000
  C   C16       1.0  0.9270510626027988  0.09040466827340055  0.5068453615151505  1.0000
  C   C17       1.0  0.9300060594580148  0.9782603614352907  0.4379827415399623  1.0000
  C   C18       1.0  0.9271972299227932  0.8551232458343638  0.5068749149867302  1.0000
  C   C19       1.0  0.9215089977773953  0.8432800849066866  0.6428064936464619  1.0000
  C   C20       1.0  0.9186248600760555  0.9565537284724932  0.7099965500168293  1.0000
  C   C21       1.0  0.9360225221310696  0.9897356529384903  0.29418001605806454  1.0000
  C   C22       1.0  0.9851130166322454  0.9090613507488157  0.23424221420647928  1.0000
  C   C23       1.0  0.9906985225157378  0.9200705546182079  0.09887756965907069  1.0000
  C   C24       1.0  0.9474165707586656  0.011467584011358719  0.02182457170127261  1.0000
  I   I1        1.0  0.9559577903873975  0.027758569710497612  0.8176533245535466  1.0000
  C   C25       1.0  0.89846682231519  0.09205421097570299  0.08025508578379514  1.0000
  C   C26       1.0  0.8927275767186946  0.08146365193428284  0.21558864492998328  1.0000
  H   H9        1.0  0.9191626791837006  0.40425166411707425  0.694566595050949  1.0000
  H   H10       1.0  0.9302540011913597  0.18557019235256544  0.45441567438960345  1.0000
  H   H11       1.0  0.9283986197232793  0.7683577649465952  0.4540411594811424  1.0000
  H   H12       1.0  0.9142371676115594  0.9481855786741205  0.8148616263628948  1.0000
  H   H13       1.0  0.9193755780727422  0.5113148621518292  0.6946094964682707  1.0000
  H   H14       1.0  0.019894608741024788  0.8386953830127214  0.29216165009623696  1.0000
  H   H15       1.0  0.028827730800943252  0.8577415684745624  0.05399434599431351  1.0000
  H   H16       1.0  0.8647002376656424  0.16270415023703655  0.020855374040244613  1.0000
  H   H17       1.0  0.853723045237314  0.14377541545501726  0.2586099970993354  1.0000
  C   C27       1.0  0.9214164919180654  0.46203395380341344  0.2614200864955769  1.0000
  C   C28       1.0  0.998775866404772  0.5036009282015455  0.2637863865296215  1.0000
  C   C29       1.0  0.037994841914045896  0.5245439882742833  0.14785783541594785  1.0000
  C   C30       1.0  0.9988166709010398  0.5033639207686091  0.028521871162273678  1.0000
  C   C31       1.0  0.9214569118343168  0.46179948218234607  0.024163585559218607  1.0000
  C   C32       1.0  0.8831900992807398  0.44136658501383236  0.14112948208733675  1.0000
  C   C33       1.0  0.11983373751539594  0.5685169639506997  0.15141472122716193  1.0000
  C   C34       1.0  0.17217357438534905  0.5147871976511218  0.07224022677892572  1.0000
  C   C35       1.0  0.24917977515810555  0.5563004680849937  0.0757875859905981  1.0000
  C   C36       1.0  0.27483236336767325  0.6518012143609451  0.15814949630433306  1.0000
  I   I2        1.0  0.39102689475674274  0.7142356294853999  0.16319776883614412  1.0000
  C   C37       1.0  0.2233807199073599  0.7058717747495118  0.23716137324959582  1.0000
  C   C38       1.0  0.1463314865967058  0.6646077874384286  0.2340148599928389  1.0000
  H   H18       1.0  0.8919291712755126  0.44625152727714434  0.5879665008905759  1.0000
  H   H19       1.0  0.02900882655179626  0.5180719400011935  0.3561688864152839  1.0000
  H   H20       1.0  0.0284898123398565  0.5210807931936745  0.9387432218581799  1.0000
  H   H21       1.0  0.8235107011142395  0.4093005906677769  0.1385355690271366  1.0000
  H   H22       1.0  0.8919888395104424  0.4459063351650154  0.6950544406928163  1.0000
  H   H23       1.0  0.15377042467381563  0.43952465909557437  0.008897377195461246  1.0000
  H   H24       1.0  0.28890905497330627  0.5139485796491727  0.014722727481387471  1.0000
  H   H25       1.0  0.24299930409605963  0.7801126906034466  0.30080481579616647  1.0000
  H   H26       1.0  0.10728882021956992  0.7090035836644007  0.2948617645591542  1.0000
  Zn  Zn1       1.0  0.8373694965754005  0.4582500889480467  0.6359281152370522  1.0000
  Zn  Zn2       1.0  0.005496570022458956  0.46558236643776607  0.6496543949428835  1.0000
  C   C39       1.0  0.9214465853144437  0.4566700269891446  0.8799884220007502  1.0000
  C   C40       1.0  0.9214213175432437  0.46716414704310294  0.40559436559994233  1.0000
  C   C41       1.0  0.9214774510133363  0.6991099250261625  0.6376254117098299  1.0000
  C   C42       1.0  0.9213903941821925  0.22472268618231905  0.6479574403863877  1.0000
  O   O1        1.0  0.9852262841645493  0.47166278212029206  0.4591896221117717  1.0000
  O   O2        1.0  0.9852461770382295  0.45773544126305427  0.8368107202947723  1.0000
  O   O3        1.0  0.9852702414523606  0.6535086870734939  0.6411008045565777  1.0000
  O   O4        1.0  0.9852021623766366  0.27588954312799147  0.6548994357910765  1.0000
  O   O5        1.0  0.8576638468477038  0.6479429097570912  0.6306830696979224  1.0000
  O   O6        1.0  0.8576397827222124  0.4521712242696867  0.826392916249655  1.0000
  O   O7        1.0  0.8576198898082172  0.46609852035330523  0.44877025665672177  1.0000
  O   O8        1.0  0.8575957680205669  0.27032527204213536  0.6444801677039795  1.0000
