data_image0
_chemical_formula_structural       NC6NC2H4C6NCH9C7F3H4Zn2C4O8
_chemical_formula_sum              "N3 C26 H17 F3 Zn2 O8"
_cell_length_a       14.927258858638513
_cell_length_b       9.273386996610927
_cell_length_c       10.299327507215196
_cell_angle_alpha    85.45811780594276
_cell_angle_beta     89.98118973128214
_cell_angle_gamma    89.39858807063658

_space_group_name_H-M_alt    "P 1"
_space_group_IT_number       1

loop_
  _space_group_symop_operation_xyz
  'x, y, z'

loop_
  _atom_site_type_symbol
  _atom_site_label
  _atom_site_symmetry_multiplicity
  _atom_site_fract_x
  _atom_site_fract_y
  _atom_site_fract_z
  _atom_site_occupancy
  N   N1        1.0  0.8335966267245853  0.5790947408229763  0.5651006893449517  1.0000
  C   C1        1.0  0.7560701357407361  0.5790947123003638  0.5651006989268681  1.0000
  C   C2        1.0  0.6596376274557862  0.5790948274517924  0.5651006538359771  1.0000
  C   C3        1.0  0.6127655273742737  0.5554120454532985  0.45100136000455704  1.0000
  C   C4        1.0  0.5190542158906237  0.5554120711179549  0.4510012397308343  1.0000
  C   C5        1.0  0.47182156461847347  0.5790946498277403  0.5651006708828612  1.0000
  C   C6        1.0  0.37538898934196985  0.5790947649821356  0.5651006257866287  1.0000
  N   N2        1.0  0.2978624983581207  0.5790947364595234  0.565100635368545  1.0000
  C   C7        1.0  0.5186935977084318  0.6027774318292012  0.6791999647089397  1.0000
  C   C8        1.0  0.6124049091920818  0.602777406164545  0.6792000849826623  1.0000
  H   H1        1.0  0.6486019879595641  0.5369855058204576  0.3622255608949321  1.0000
  H   H2        1.0  0.4834983311609181  0.5369857034382187  0.36222555615570545  1.0000
  H   H3        1.0  0.4828572041563208  0.6212039611253886  0.7679758612104071  1.0000
  H   H4        1.0  0.6479607932623411  0.6212038711970482  0.767975867541206  1.0000
  C   C9        1.0  0.06848851074411  0.15544064175974606  0.5657388689760445  1.0000
  C   C10       1.0  0.08424450656033078  0.2389342878088543  0.44831050336293066  1.0000
  C   C11       1.0  0.09156567225752066  0.17444944685674812  0.33087487943743943  1.0000
  C   C12       1.0  0.0832418657211687  0.024149245334590393  0.3278650650337589  1.0000
  C   C13       1.0  0.06906466721550664  0.9396927475078939  0.4448855107057698  1.0000
  C   C14       1.0  0.06297925396395954  0.002737692985688156  0.5644737488613607  1.0000
  N   N3        1.0  0.08980627043011857  0.9546283524023833  0.20800486655706507  1.0000
  C   C15       1.0  0.1047582511285785  0.032544326701692494  0.0812682163759395  1.0000
  H   H5        1.0  0.08674296537212928  0.41755259045184995  0.7789606727362808  1.0000
  H   H6        1.0  0.08881408363790055  0.3555804257868713  0.44671714262650464  1.0000
  H   H7        1.0  0.10288283067597798  0.24306512293246674  0.2426568691070663  1.0000
  H   H8        1.0  0.06483671112563227  0.8232919930553586  0.4428366973478277  1.0000
  H   H9        1.0  0.09589261391270014  0.8713271246577595  0.880796468206541  1.0000
  H   H10       1.0  0.08347221221021073  0.8422608162627626  0.21069799365433695  1.0000
  H   H11       1.0  0.04922775829309114  0.11112135954481284  0.058703077850741796  1.0000
  H   H12       1.0  0.1695991309616186  0.09009603921237508  0.08147778358557334  1.0000
  H   H13       1.0  0.10703378764116495  0.9551195492205686  0.00438195819326514  1.0000
  C   C16       1.0  0.06581929848260162  0.5791477746523679  0.18372462703927936  1.0000
  C   C17       1.0  0.1524988324074118  0.6369940485556473  0.17836777508763624  1.0000
  C   C18       1.0  0.19555516926898298  0.6686239154076168  0.058365549985307734  1.0000
  C   C19       1.0  0.152274563107187  0.6368410635639719  0.9431305458771391  1.0000
  C   C20       1.0  0.06564851324676371  0.579030601875737  0.9464879783060907  1.0000
  C   C21       1.0  0.022786731072868664  0.5510540552966425  0.06725731511734945  1.0000
  C   C22       1.0  0.2898672451765909  0.725832945620092  0.054017786191527195  1.0000
  F   F1        1.0  0.30496762423327883  0.8100802565775653  0.15678315373251883  1.0000
  F   F2        1.0  0.3497886266896506  0.6108080543636225  0.06205848946062065  1.0000
  F   F3        1.0  0.30472164824531656  0.8100606827926725  0.9391397793108149  1.0000
  H   H14       1.0  0.9028682539873049  0.4675730611446918  0.40124332992521133  1.0000
  H   H15       1.0  0.1867217577543457  0.657285185615057  0.267734005098222  1.0000
  H   H16       1.0  0.18634368431243586  0.6570233830907133  0.850720375470241  1.0000
  H   H17       1.0  0.955977938292545  0.5064722753596544  0.07058115538907761  1.0000
  Zn  Zn1       1.0  0.9675737600181962  0.5790908726430115  0.5651081839088948  1.0000
  Zn  Zn2       1.0  0.16388545039703403  0.5790867859763829  0.5651038120800793  1.0000
  C   C23       1.0  0.06571614221090097  0.5733054081648798  0.8023179427693786  1.0000
  C   C24       1.0  0.06574520005747009  0.584874070695639  0.3278941779245712  1.0000
  C   C25       1.0  0.06401718367189281  0.8425813238371603  0.5595375178043305  1.0000
  C   C26       1.0  0.06744410286369208  0.315596421709361  0.5706746747201501  1.0000
  O   O1        1.0  0.14021963628495349  0.5867880231457734  0.37627714651836874  1.0000
  O   O2        1.0  0.14023774379797083  0.571387265735265  0.7539312838252071  1.0000
  O   O3        1.0  0.13886480870333773  0.7888309729127947  0.5578843707366594  1.0000
  O   O4        1.0  0.1415925043464078  0.369344326304897  0.5723239622150744  1.0000
  O   O5        1.0  0.9898666390772687  0.7888333323174632  0.5578880337685578  1.0000
  O   O6        1.0  0.9912395629131342  0.5713913584568968  0.7539348750212342  1.0000
  O   O7        1.0  0.9912214561362577  0.5867920658334929  0.3762791763365565  1.0000
  O   O8        1.0  0.9925943242393369  0.3693483586589288  0.5723260894197633  1.0000
