data_image0
_chemical_formula_structural       NC6NC3H6C10H5C6ClH4Zn2C4O8
_chemical_formula_sum              "N2 C29 H15 Cl1 Zn2 O8"
_cell_length_a       14.934028789175542
_cell_length_b       9.275150299802176
_cell_length_c       9.276548810779733
_cell_angle_alpha    85.75527424230437
_cell_angle_beta     89.70021891901104
_cell_angle_gamma    89.44625895822752

_space_group_name_H-M_alt    "P 1"
_space_group_IT_number       1

loop_
  _space_group_symop_operation_xyz
  'x, y, z'

loop_
  _atom_site_type_symbol
  _atom_site_label
  _atom_site_symmetry_multiplicity
  _atom_site_fract_x
  _atom_site_fract_y
  _atom_site_fract_z
  _atom_site_occupancy
  N   N1        1.0  0.8392096431868603  0.5636162509872624  0.40117059349946427  1.0000
  C   C1        1.0  0.761731758232531  0.5625113960210895  0.4004982623679742  1.0000
  C   C2        1.0  0.665345400987341  0.5611318782596333  0.3996589837780913  1.0000
  C   C3        1.0  0.6167903501393731  0.6685686659410419  0.46491560041543417  1.0000
  C   C4        1.0  0.5232867957128545  0.6674610185371076  0.4642426914316158  1.0000
  C   C5        1.0  0.4774253380519781  0.5589714132474377  0.3983466685149618  1.0000
  C   C6        1.0  0.3807623964138464  0.5612991791006585  0.3997618282243411  1.0000
  N   N2        1.0  0.3032686462778529  0.5631465577797035  0.4008852640812808  1.0000
  C   C7        1.0  0.5259857837558376  0.45004825604107146  0.3321866861794276  1.0000
  C   C8        1.0  0.47853957567896727  0.3320975149625516  0.2605452419977068  1.0000
  C   C9        1.0  0.6201120694740723  0.45228615046774573  0.33354602516569604  1.0000
  H   H1        1.0  0.6512102171730807  0.7532188942078869  0.5163323502878833  1.0000
  H   H2        1.0  0.4866315268287314  0.7514593159890773  0.5152633181405171  1.0000
  H   H3        1.0  0.43578488196707793  0.3803808187962834  0.1716971180484148  1.0000
  H   H4        1.0  0.43590254905148706  0.26995475091673815  0.3409818216831437  1.0000
  H   H5        1.0  0.526561972155151  0.25569905433648477  0.21413474500450214  1.0000
  H   H6        1.0  0.6582521549013266  0.3694052833709227  0.28320441007753683  1.0000
  C   C10       1.0  0.07359877755641325  0.1396954927250238  0.40343871924441466  1.0000
  C   C11       1.0  0.12101954986386615  0.2207044639948361  0.2943972735041034  1.0000
  C   C12       1.0  0.1607777713779288  0.1534689996150218  0.17982067724102202  1.0000
  C   C13       1.0  0.15351960838593326  0.004244795077191783  0.1728097942255784  1.0000
  C   C14       1.0  0.10805572389690438  0.9217840910432596  0.2812024482809496  1.0000
  C   C15       1.0  0.06888811188374808  0.9870562694423239  0.3986296441966489  1.0000
  C   C16       1.0  0.20821698113360587  0.23819733761039427  0.06828676517610632  1.0000
  C   C17       1.0  0.24793557365029628  0.30915995766066334  0.9749096327126061  1.0000
  C   C18       1.0  0.2944442031472705  0.39226216649100953  0.8655690830432231  1.0000
  C   C19       1.0  0.33415513772325367  0.4632194754938605  0.7722098503468291  1.0000
  H   H7        1.0  0.12531513114943396  0.3371687998940338  0.29662062375274423  1.0000
  H   H8        1.0  0.1838051441561318  0.9512598683683977  0.0841518764951994  1.0000
  H   H9        1.0  0.10533613082285614  0.8057299974190034  0.2749831992033691  1.0000
  H   H10       1.0  0.009664495557143661  0.85977046829983  0.7410191001619784  1.0000
  H   H11       1.0  0.3690246506678707  0.5255260184994103  0.6902327330381968  1.0000
  C   C20       1.0  0.07252707895252009  0.5595092759426005  0.9779059867773592  1.0000
  C   C21       1.0  0.14733547136165515  0.6142784121631821  0.04665500547831968  1.0000
  C   C22       1.0  0.21706187639078733  0.6798060538665492  0.9660071387772068  1.0000
  C   C23       1.0  0.21302501733529777  0.6916676519147029  0.815502758410199  1.0000
  C   C24       1.0  0.14017333781808627  0.6358844941959668  0.745109177400594  1.0000
  C   C25       1.0  0.06995981581909234  0.5672424553979118  0.824162402116872  1.0000
  Cl  Cl1       1.0  0.30911919298839935  0.7491836684963464  0.05406048741947034  1.0000
  H   H12       1.0  0.9647799758569835  0.3981292399487619  0.2718914478498249  1.0000
  H   H13       1.0  0.2668033811109601  0.742938681519895  0.752688967077471  1.0000
  H   H14       1.0  0.13980318282825577  0.643413119450339  0.628018362330331  1.0000
  H   H15       1.0  0.9264152806731558  0.5144919262881318  0.5479549548032012  1.0000
  Zn  Zn1       1.0  0.9731270570363043  0.5634769174062318  0.4010965899526022  1.0000
  Zn  Zn2       1.0  0.16935129245800074  0.5632741804641579  0.4009711150399238  1.0000
  C   C26       1.0  0.07047505566021539  0.5600330131844504  0.6642344157400633  1.0000
  C   C27       1.0  0.0720054260474292  0.566719904206676  0.13783341897443013  1.0000
  C   C28       1.0  0.06979136021498245  0.8268346019162786  0.3937968157559866  1.0000
  C   C29       1.0  0.07268906393849249  0.2999165828108885  0.40827110565934394  1.0000
  O   O1        1.0  0.14629646427030507  0.5690566248919586  0.1914589448225612  1.0000
  O   O2        1.0  0.14511367911176812  0.5575413276274227  0.6105132487321865  1.0000
  O   O3        1.0  0.14456057800978492  0.7729869994233662  0.392132965481931  1.0000
  O   O4        1.0  0.14684949868461772  0.35361096249900825  0.40983912002002043  1.0000
  O   O5        1.0  0.9956287838479998  0.7731401354420675  0.3922285850077356  1.0000
  O   O6        1.0  0.9961818755424661  0.5576961963807683  0.610608781592384  1.0000
  O   O7        1.0  0.9973646662954588  0.5692114275369242  0.19155274559653623  1.0000
  O   O8        1.0  0.9979177004357549  0.3537657558116664  0.40993302888202177  1.0000
