data_image0
_chemical_formula_structural       NC6NC3H6C9H10C6BrH4Zn2C4O8
_chemical_formula_sum              "N2 C28 H20 Br1 Zn2 O8"
_cell_length_a       14.934028789175542
_cell_length_b       10.297183801781406
_cell_length_c       9.27656775626242
_cell_angle_alpha    86.09344643719086
_cell_angle_beta     90.16168567554362
_cell_angle_gamma    89.9601079490019

_space_group_name_H-M_alt    "P 1"
_space_group_IT_number       1

loop_
  _space_group_symop_operation_xyz
  'x, y, z'

loop_
  _atom_site_type_symbol
  _atom_site_label
  _atom_site_symmetry_multiplicity
  _atom_site_fract_x
  _atom_site_fract_y
  _atom_site_fract_z
  _atom_site_occupancy
  N   N1        1.0  0.8399351802686572  0.40688891314837355  0.40940456948086634  1.0000
  C   C1        1.0  0.762447767687822  0.4058937331476692  0.40872652260452247  1.0000
  C   C2        1.0  0.6660495152421279  0.4046511552498244  0.4078801073461973  1.0000
  C   C3        1.0  0.6184203300267235  0.5014230087765613  0.4736925334785376  1.0000
  C   C4        1.0  0.5249072295032853  0.5004253141985116  0.47301389424002704  1.0000
  C   C5        1.0  0.4781108336207392  0.4027051532149688  0.4065566152167881  1.0000
  C   C6        1.0  0.3814679585654928  0.40480184935569674  0.4079838172307106  1.0000
  N   N2        1.0  0.3039901354515567  0.40646584498142674  0.4091168101715199  1.0000
  C   C7        1.0  0.5257326017404285  0.30459447737035483  0.3398331338885956  1.0000
  C   C8        1.0  0.47726992769157567  0.19835236047067228  0.26758148764122547  1.0000
  C   C9        1.0  0.6198781733808773  0.3066102226253941  0.34120405031197876  1.0000
  H   H1        1.0  0.6535696962731213  0.5776702580192807  0.5255472096708533  1.0000
  H   H2        1.0  0.48897584092427315  0.5760853477972823  0.5244690746022278  1.0000
  H   H3        1.0  0.4343401494655748  0.24177262387214782  0.17898986602998468  1.0000
  H   H4        1.0  0.4346885810854519  0.14244842867129373  0.3476898645941982  1.0000
  H   H5        1.0  0.5246339076174876  0.12953774668693874  0.22077575404847208  1.0000
  H   H6        1.0  0.6573040097101688  0.2319566955262864  0.290433662426848  1.0000
  C   C10       1.0  0.07197050709111713  0.025203603660645574  0.40946483871908645  1.0000
  C   C11       1.0  0.06905387720448486  0.033728491774083436  0.25784294020107446  1.0000
  C   C12       1.0  0.06755939530424615  0.9214795540452002  0.18016260782525095  1.0000
  C   C13       1.0  0.06904220013909311  0.7985522246514839  0.2572552764047822  1.0000
  C   C14       1.0  0.07196345306061525  0.7881412437988621  0.4090689538887171  1.0000
  C   C15       1.0  0.07340768717192048  0.9019343362167995  0.4841827305832942  1.0000
  C   C16       1.0  0.06440460638686216  0.9401320175298203  0.016172818480336255  1.0000
  C   C17       1.0  0.011810874279937211  0.840755373702887  0.9359956072857694  1.0000
  C   C18       1.0  0.11381488161021647  0.8409302028061144  0.9313550531587992  1.0000
  H   H7        1.0  0.07310288057406901  0.3494571370701498  0.4678896142432885  1.0000
  H   H8        1.0  0.06792808518744752  0.1284419340880163  0.1993085220376841  1.0000
  H   H9        1.0  0.06794549878892031  0.7104514138845359  0.20034634905540719  1.0000
  H   H10       1.0  0.0756574795710334  0.8946297635644279  0.6011622095194703  1.0000
  H   H11       1.0  0.07746898254623975  0.5612613933736433  0.6958022507615051  1.0000
  H   H12       1.0  0.06339142384718532  0.040383454361633944  0.9634636168261062  1.0000
  H   H13       1.0  0.9820634129718138  0.7577235227104553  0.0015865427309154118  1.0000
  H   H14       1.0  0.980014614566147  0.8807578920109668  0.834070840900607  1.0000
  H   H15       1.0  0.1460293786391173  0.7580053574543569  0.9941278533598791  1.0000
  H   H16       1.0  0.14163547249676703  0.8810325219763443  0.8267167576595065  1.0000
  C   C19       1.0  0.07111229378158021  0.4029400344539458  0.9861426260693307  1.0000
  C   C20       1.0  0.9915405826564199  0.4342854289812128  0.056786580786331475  1.0000
  C   C21       1.0  0.9159478283948105  0.4763276410115614  0.9781106883808293  1.0000
  C   C22       1.0  0.9185069229188806  0.48787589175107016  0.827607264545093  1.0000
  C   C23       1.0  0.9963231862424686  0.4551288162736609  0.7552380641674667  1.0000
  C   C24       1.0  0.07282168057977968  0.410404852146237  0.8323912148322556  1.0000
  Br  Br1       1.0  0.8150444888554791  0.5464619669565571  0.7203908469777511  1.0000
  H   H17       1.0  0.19429693837080508  0.2848368044632774  0.2769616471947858  1.0000
  H   H18       1.0  0.8555792522277322  0.5011503181914247  0.03445266015372828  1.0000
  H   H19       1.0  0.9961821971710696  0.4617646114284  0.6381842454342475  1.0000
  H   H20       1.0  0.22015513594625613  0.3968565606133505  0.5529120788298654  1.0000
  Zn  Zn1       1.0  0.9738514465356465  0.4067634171061396  0.4093298445069409  1.0000
  Zn  Zn2       1.0  0.1700739231437436  0.40658080388033013  0.40920332089507705  1.0000
  C   C25       1.0  0.07249659473436627  0.40381870717781343  0.6724347821010719  1.0000
  C   C26       1.0  0.07143091795884171  0.4095271521323043  0.14609852249138405  1.0000
  C   C27       1.0  0.07194856682058326  0.6438791423441955  0.40340201982874024  1.0000
  C   C28       1.0  0.0719788790852402  0.1694651569741179  0.4151313624361239  1.0000
  O   O1        1.0  0.1460032584466544  0.4116628809319376  0.19973317043498165  1.0000
  O   O2        1.0  0.1468525728843132  0.4015433955144346  0.6187036913943635  1.0000
  O   O3        1.0  0.14640903261017857  0.5953952470399907  0.4014578323544696  1.0000
  O   O4        1.0  0.1464467315450393  0.21781103780848438  0.4169789214771895  1.0000
  O   O5        1.0  0.9974785711732346  0.5955331832416497  0.4015542439604252  1.0000
  O   O6        1.0  0.9979221112736377  0.4016828917715623  0.6188000253635078  1.0000
  O   O7        1.0  0.9970727933967274  0.4118023166394551  0.19982777207204427  1.0000
  O   O8        1.0  0.9975162667097457  0.21795046517756325  0.41707363114753493  1.0000
