data_image0
_chemical_formula_structural       NC12NC2H8C12SCH12C13OH12Zn2C4O8
_chemical_formula_sum              "N2 C44 H32 S1 O9 Zn2"
_cell_length_a       19.240039667572717
_cell_length_b       10.299776766347529
_cell_length_c       10.299153481560893
_cell_angle_alpha    85.58387196387294
_cell_angle_beta     90.01662043824444
_cell_angle_gamma    89.97991714870845

_space_group_name_H-M_alt    "P 1"
_space_group_IT_number       1

loop_
  _space_group_symop_operation_xyz
  'x, y, z'

loop_
  _atom_site_type_symbol
  _atom_site_label
  _atom_site_symmetry_multiplicity
  _atom_site_fract_x
  _atom_site_fract_y
  _atom_site_fract_z
  _atom_site_occupancy
  N   N1        1.0  0.6539881012212647  0.420718324568645  0.5675192576992483  1.0000
  C   C1        1.0  0.5938397323755088  0.4207184085180891  0.5675191757663927  1.0000
  C   C2        1.0  0.5190216951910277  0.42071852575073637  0.5675190384672111  1.0000
  C   C3        1.0  0.4825761280251226  0.3562929067802666  0.6709282364301388  1.0000
  C   C4        1.0  0.4099054141618781  0.3561820593231557  0.6710147729990632  1.0000
  C   C5        1.0  0.3726894602009888  0.42071861822907586  0.5675188107888436  1.0000
  C   C6        1.0  0.4098491846224254  0.48525536419268556  0.46402304313193876  1.0000
  C   C7        1.0  0.4825199073861037  0.4851442812847966  0.46410970218877245  1.0000
  C   C8        1.0  0.2954843697613105  0.4207185395327829  0.5675187153678094  1.0000
  C   C9        1.0  0.2583243105703228  0.3074747396085604  0.60938302191182  1.0000
  C   C10       1.0  0.18565358795363207  0.3075816042849333  0.6092917020753512  1.0000
  C   C11       1.0  0.14915208287180406  0.42071841038423013  0.5675187762708838  1.0000
  C   C12       1.0  0.074334045776789  0.4207182967362395  0.5675190249270672  1.0000
  N   N2        1.0  0.014185728964699391  0.4207182559916185  0.5675192333458181  1.0000
  C   C13       1.0  0.18559808862415209  0.5338552922904132  0.5257457975797428  1.0000
  C   C14       1.0  0.2582687505504433  0.5339623370245756  0.5256543151580702  1.0000
  H   H1        1.0  0.5103128909098849  0.30641344628389233  0.7516672258739423  1.0000
  H   H2        1.0  0.3828340277222149  0.3071010952510751  0.7528693271539353  1.0000
  H   H3        1.0  0.3827340402609921  0.5343363552977627  0.3821684381298107  1.0000
  H   H4        1.0  0.5102129160260435  0.5350236416235634  0.38337098853681995  1.0000
  H   H5        1.0  0.2854391510000285  0.21833203788954525  0.6405455504846482  1.0000
  H   H6        1.0  0.1579603028469223  0.21933846180912764  0.6414872606519255  1.0000
  H   H7        1.0  0.15786155028993426  0.6220984102351015  0.4935502535522569  1.0000
  H   H8        1.0  0.2853403889161427  0.623105117902508  0.49449174181807215  1.0000
  C   C15       1.0  0.834155785127038  0.039353163487330756  0.5675176340843124  1.0000
  C   C16       1.0  0.8383536137852419  0.027843392841828022  0.7040320234011805  1.0000
  C   C17       1.0  0.8404137716578506  0.9048726814871464  0.773210309686473  1.0000
  C   C18       1.0  0.838220717460275  0.7925556222596302  0.7040472138075312  1.0000
  C   C19       1.0  0.8340247449305517  0.8020734451087921  0.5675320751055397  1.0000
  C   C20       1.0  0.8320153757683068  0.9259113550941485  0.5000314588455126  1.0000
  C   C21       1.0  0.8448469413445865  0.8937605489549515  0.9176271305428053  1.0000
  C   C22       1.0  0.8050808511172713  0.8003283278507395  0.9916700953272136  1.0000
  C   C23       1.0  0.8092738558128032  0.7901049653158603  0.12757989340041487  1.0000
  C   C24       1.0  0.853059944414222  0.8730359437049284  0.19125340558048842  1.0000
  C   C25       1.0  0.8929921095335676  0.9658949009900165  0.11858351058363492  1.0000
  C   C26       1.0  0.8889010170641697  0.9764681483084048  0.9826632974527592  1.0000
  S   S1        1.0  0.8585167897403422  0.8594574253558399  0.3656443751300774  1.0000
  C   C27       1.0  0.7886788105791257  0.9755266946277722  0.38517317207513746  1.0000
  H   H9        1.0  0.8325835652757909  0.3711923905318557  0.5154994548500011  1.0000
  H   H10       1.0  0.8390723068464075  0.11469464380893647  0.7569905468763382  1.0000
  H   H11       1.0  0.8407515910364384  0.6975619906409586  0.7568095999032842  1.0000
  H   H12       1.0  0.8287774046477493  0.9340221654694325  0.3947164120579725  1.0000
  H   H13       1.0  0.832391190503527  0.47824639978430367  0.5155185616621036  1.0000
  H   H14       1.0  0.7700861476407641  0.7363463083681239  0.9445558017827571  1.0000
  H   H15       1.0  0.7782086380136324  0.7180639199962519  0.18330159752326414  1.0000
  H   H16       1.0  0.9272473494855122  0.029933401640447107  0.16728674453274617  1.0000
  H   H17       1.0  0.9208436600179642  0.048140781234556666  0.9283546410240937  1.0000
  H   H18       1.0  0.8025846522156076  0.07183777291506166  0.3362953347958003  1.0000
  H   H19       1.0  0.780641724173797  0.9862462074521549  0.4904528324451014  1.0000
  H   H20       1.0  0.7397655996286293  0.9399781456835342  0.34305093899730055  1.0000
  C   C28       1.0  0.8340305878378614  0.42056587755453695  0.18615229020491864  1.0000
  C   C29       1.0  0.7621776075660104  0.39618595499890846  0.18682332333133012  1.0000
  C   C30       1.0  0.7258726733464756  0.3839875864449133  0.0699959966922834  1.0000
  C   C31       1.0  0.7623415321346191  0.39650325018454113  0.9515153616966093  1.0000
  C   C32       1.0  0.8341499344272069  0.4208607388046386  0.9488973807781589  1.0000
  C   C33       1.0  0.8695751697506777  0.43274622146965386  0.06674931282940633  1.0000
  C   C34       1.0  0.6499063508040531  0.3582250870773427  0.07167851719258533  1.0000
  C   C35       1.0  0.6059380254343714  0.423461086319161  0.9790121295831443  1.0000
  C   C36       1.0  0.5344492239228771  0.39926099599715065  0.9806734363782295  1.0000
  C   C37       1.0  0.5057256407526385  0.30854983186553353  0.07413173349486701  1.0000
  C   C38       1.0  0.5492275195620369  0.24441009956640272  0.1677166721970107  1.0000
  C   C39       1.0  0.6207196233153037  0.2685805428498762  0.1662335145010263  1.0000
  C   C40       1.0  0.428708494604249  0.28526343783821884  0.07804770991316445  1.0000
  O   O1        1.0  0.397476286764697  0.37285046044771697  0.1575565473217404  1.0000
  H   H21       1.0  0.9695681154441846  0.4674138150540508  0.3921140665471956  1.0000
  H   H22       1.0  0.7341581592039733  0.3884223448398585  0.2782987623433535  1.0000
  H   H23       1.0  0.7347677782459154  0.3854511153615973  0.8613360389341511  1.0000
  H   H24       1.0  0.9249627624620981  0.45153752685619364  0.06544580660089427  1.0000
  H   H25       1.0  0.8617607618540857  0.43031540058304363  0.6204083629119199  1.0000
  H   H26       1.0  0.6267017836774338  0.49471644552567473  0.9064558059230325  1.0000
  H   H27       1.0  0.5014642149049355  0.45154068792202495  0.9091935960655456  1.0000
  H   H28       1.0  0.5278224987196799  0.17536111060284387  0.24171291813215737  1.0000
  H   H29       1.0  0.6532869593020694  0.2161003531041441  0.2382365645678244  1.0000
  H   H30       1.0  0.41769505180841143  0.18347723316252718  0.11686467593392491  1.0000
  H   H31       1.0  0.40670699454328957  0.2986285622245568  0.977917105179131  1.0000
  H   H32       1.0  0.3469554194416948  0.3534970962411079  0.15685280813271185  1.0000
  Zn  Zn1       1.0  0.7579333668298716  0.42071484050588026  0.5675267391031191  1.0000
  Zn  Zn2       1.0  0.9102404856057094  0.4207111507765078  0.5675223507426297  1.0000
  C   C41       1.0  0.8341267005901748  0.41563137612258716  0.8047221411788716  1.0000
  C   C42       1.0  0.8340488147727778  0.42579625377213204  0.3303270761176007  1.0000
  C   C43       1.0  0.8340451086248336  0.6579010817329596  0.5623541063257582  1.0000
  C   C44       1.0  0.8341303550452916  0.18352498790266591  0.5726951801820057  1.0000
  O   O2        1.0  0.8918546906924215  0.42754454989248947  0.3787117858557889  1.0000
  O   O3        1.0  0.8919184037844176  0.4138792997256942  0.7563337269084892  1.0000
  O   O4        1.0  0.8918517382834201  0.6095151514655843  0.5606198240185205  1.0000
  O   O5        1.0  0.8919213042044857  0.23190870740634484  0.5744255913718339  1.0000
  O   O6        1.0  0.7762524962561493  0.6095172838787142  0.5606234984685816  1.0000
  O   O7        1.0  0.7763191614750283  0.4138829924005867  0.7563373321419251  1.0000
  O   O8        1.0  0.7762554481927509  0.42754819670825395  0.3787138296727852  1.0000
  O   O9        1.0  0.7763220617188025  0.23191234497103386  0.5744277325574205  1.0000
