data_image0
_chemical_formula_structural       NC8NH4C10H6C7NH4Zn2C4O8
_chemical_formula_sum              "N3 C29 H14 Zn2 O8"
_cell_length_a       13.859017981522156
_cell_length_b       9.275150299802176
_cell_length_c       9.275157849593905
_cell_angle_alpha    85.78415629139576
_cell_angle_beta     89.7408760017346
_cell_angle_gamma    89.4839203727508

_space_group_name_H-M_alt    "P 1"
_space_group_IT_number       1

loop_
  _space_group_symop_operation_xyz
  'x, y, z'

loop_
  _atom_site_type_symbol
  _atom_site_label
  _atom_site_symmetry_multiplicity
  _atom_site_fract_x
  _atom_site_fract_y
  _atom_site_fract_z
  _atom_site_occupancy
  N   N1        1.0  0.9040018490036621  0.5636621592182096  0.4015081183999918  1.0000
  C   C1        1.0  0.8318786342281113  0.5560375984654862  0.3402518134782502  1.0000
  C   C2        1.0  0.7421615974593295  0.5465540147062278  0.2640569387555103  1.0000
  C   C3        1.0  0.7425403391310904  0.5280601239525691  0.1154731975378507  1.0000
  C   C4        1.0  0.6553871745943736  0.518851194160243  0.041478176972375776  1.0000
  C   C5        1.0  0.5676750535864394  0.5280618447353393  0.11547293954305073  1.0000
  C   C6        1.0  0.5669313552828219  0.5465549866678991  0.2640567494992152  1.0000
  C   C7        1.0  0.6542659812643359  0.5557998787180184  0.33833748744416603  1.0000
  C   C8        1.0  0.476638812766843  0.5560385003361841  0.34025156799730416  1.0000
  N   N2        1.0  0.4040529317412883  0.5636624719494285  0.4015080230453172  1.0000
  H   H1        1.0  0.8100566477530279  0.5207826512548646  0.057007064558285414  1.0000
  H   H2        1.0  0.6558206424487125  0.504565718334679  0.9267036287533652  1.0000
  H   H3        1.0  0.50060036068989  0.5207857464257566  0.05700662715813598  1.0000
  H   H4        1.0  0.6538316255711574  0.5701141724272901  0.4533453812045039  1.0000
  C   C9        1.0  0.1565704665375589  0.13998003105839987  0.40392058504981376  1.0000
  C   C10       1.0  0.20764895216450824  0.22098218951734716  0.29489612574256685  1.0000
  C   C11       1.0  0.2504695588555401  0.15372936360276393  0.1803311879388354  1.0000
  C   C12       1.0  0.24264715825352687  0.0044942776091239055  0.1733150609061127  1.0000
  C   C13       1.0  0.19367721509422148  0.9220420427351507  0.28169185912072536  1.0000
  C   C14       1.0  0.15149355350723057  0.9873336152778062  0.3991080776664018  1.0000
  C   C15       1.0  0.3015674499735326  0.23844965346351546  0.0688139955760172  1.0000
  C   C16       1.0  0.34434928317324776  0.3094055376608922  0.9754508622704076  1.0000
  C   C17       1.0  0.39444482537417985  0.3924998589897171  0.8661267049366889  1.0000
  C   C18       1.0  0.4372184100060232  0.4634504333861547  0.7727814686874974  1.0000
  H   H5        1.0  0.11011110989571704  0.404507568790625  0.6327587338318867  1.0000
  H   H6        1.0  0.21227810790560842  0.3374519964154229  0.29712236468948916  1.0000
  H   H7        1.0  0.27526518786151133  0.9514954315596232  0.08466586996303338  1.0000
  H   H8        1.0  0.19074553954572054  0.8059820645336977  0.2754702443729513  1.0000
  H   H9        1.0  0.08774005193157898  0.8601600696265385  0.7414993243741499  1.0000
  H   H10       1.0  0.47477718517701845  0.5257510628839234  0.6908166414355028  1.0000
  C   C19       1.0  0.15533677956466632  0.5595786351635591  0.9783397203779239  1.0000
  C   C20       1.0  0.23822056602222652  0.6066130392098097  0.047768605606701486  1.0000
  C   C21       1.0  0.316086763144442  0.6649924978371549  0.9675588606798309  1.0000
  C   C22       1.0  0.31197543686383056  0.6772656649193458  0.8168302094045643  1.0000
  C   C23       1.0  0.2310824129401725  0.6290629463618747  0.746066417314772  1.0000
  C   C24       1.0  0.1527272973826883  0.5677350009719571  0.8246889676892746  1.0000
  C   C25       1.0  0.39990421397771403  0.7140361592271327  0.040283926356230244  1.0000
  N   N3        1.0  0.4672719867591204  0.7534540387628472  0.09874263880054945  1.0000
  H   H11       1.0  0.9208599654223074  0.510932417806601  0.08645366114977615  1.0000
  H   H12       1.0  0.37178566317321676  0.7229029104188842  0.7537482057636775  1.0000
  H   H13       1.0  0.23082350958235706  0.6366482728790064  0.628958897027831  1.0000
  H   H14       1.0  0.9959028289050867  0.528924444039752  0.5475029205173247  1.0000
  Zn  Zn1       1.0  0.048305793213430544  0.563658476897172  0.401516430697408  1.0000
  Zn  Zn2       1.0  0.2597490244110392  0.5636544961579109  0.40151156824698364  1.0000
  C   C26       1.0  0.15325280670425762  0.560445597532147  0.6647434562314096  1.0000
  C   C27       1.0  0.154804308530619  0.5668691972693498  0.13828467376017395  1.0000
  C   C28       1.0  0.15246596145290825  0.827110431461996  0.3942752653254198  1.0000
  C   C29       1.0  0.15559109178000496  0.3002026306608474  0.4087529513412931  1.0000
  O   O1        1.0  0.23486724839365292  0.5693081714786854  0.19196185170445346  1.0000
  O   O2        1.0  0.23367039465713726  0.5580025096119262  0.6110621791543611  1.0000
  O   O3        1.0  0.23303392085047325  0.7733377499081674  0.3926571928951137  1.0000
  O   O4        1.0  0.23550365032036982  0.35397294046350325  0.4103667298578555  1.0000
  O   O5        1.0  0.07255109514891568  0.7733400325944357  0.39266126908060683  1.0000
  O   O6        1.0  0.07318755880236028  0.5580065249797028  0.6110661686587959  1.0000
  O   O7        1.0  0.07438441824620902  0.5693121198723072  0.1919641089328692  1.0000
  O   O8        1.0  0.07502081989769006  0.35397687957892154  0.4103690951861878  1.0000
