data_image0
_chemical_formula_structural       NC6NCNCH5C6ClH5C6BrH4Zn2C4O8
_chemical_formula_sum              "N3 C24 H14 Cl1 Br1 Zn2 O8"
_cell_length_a       14.933214217465613
_cell_length_b       10.30297070629231
_cell_length_c       9.27656775626242
_cell_angle_alpha    86.12016662879066
_cell_angle_beta     90.1519400802072
_cell_angle_gamma    90.03245333812676

_space_group_name_H-M_alt    "P 1"
_space_group_IT_number       1

loop_
  _space_group_symop_operation_xyz
  'x, y, z'

loop_
  _atom_site_type_symbol
  _atom_site_label
  _atom_site_symmetry_multiplicity
  _atom_site_fract_x
  _atom_site_fract_y
  _atom_site_fract_z
  _atom_site_occupancy
  N   N1        1.0  0.839993435932486  0.4075976309055005  0.4097885964681235  1.0000
  C   C1        1.0  0.7625011566842893  0.40848620556768633  0.4087985007803694  1.0000
  C   C2        1.0  0.6661001982181537  0.409594030037955  0.40756397382164633  1.0000
  C   C3        1.0  0.6184698569439865  0.324218361969926  0.5027134087081919  1.0000
  C   C4        1.0  0.5249342379013767  0.3251837770474435  0.5016375031649982  1.0000
  C   C5        1.0  0.4781267173677348  0.4114759442681848  0.4054666857159783  1.0000
  C   C6        1.0  0.3815554630085684  0.4095959534219796  0.40756190384242563  1.0000
  N   N2        1.0  0.3040733852854776  0.4080276224226591  0.40930940560905227  1.0000
  C   C7        1.0  0.525853374483582  0.49792967534637933  0.3091159008971594  1.0000
  N   N3        1.0  0.48033783791232054  0.5876203888799758  0.2091577101338098  1.0000
  C   C8        1.0  0.619871309599464  0.4961029244874555  0.31115189472671556  1.0000
  H   H1        1.0  0.6536204403146881  0.25690538903423854  0.5777322961856497  1.0000
  H   H2        1.0  0.48900252814669104  0.2584370501996991  0.5760251920163211  1.0000
  H   H3        1.0  0.5165494294542731  0.6509685876787414  0.13855739784465393  1.0000
  H   H4        1.0  0.410585515129969  0.5923927002746021  0.2038391388187828  1.0000
  H   H5        1.0  0.6569289818851819  0.5621780680101531  0.23751250594817774  1.0000
  C   C9        1.0  0.0720376886108809  0.02656521954661506  0.4095552289635678  1.0000
  C   C10       1.0  0.1645602911391464  0.023752633052164462  0.4372128554805769  1.0000
  C   C11       1.0  0.2104675368429888  0.9054002579043344  0.45093573084523864  1.0000
  C   C12       1.0  0.1645602902873532  0.7886446637838399  0.43721278771635924  1.0000
  C   C13       1.0  0.07203769833411311  0.789050162095737  0.4095553114364241  1.0000
  C   C14       1.0  0.02622740291625125  0.9086044145143953  0.3958612849850611  1.0000
  Cl  Cl1       1.0  0.32605031126644207  0.9033901833224247  0.4854865966053213  1.0000
  H   H6        1.0  0.03718604308422038  0.3549277828269921  0.39913627876496044  1.0000
  H   H7        1.0  0.2013587784782973  0.11315926246717535  0.4482128420024185  1.0000
  H   H8        1.0  0.20135874285632438  0.6979580686930881  0.448212738516806  1.0000
  H   H9        1.0  0.9548711640112411  0.9098452390471136  0.37453084767062306  1.0000
  H   H10       1.0  0.03718603926677799  0.4618998185464441  0.39913655081090615  1.0000
  C   C15       1.0  0.07118294371899037  0.40407592925081387  0.9864293744720007  1.0000
  C   C16       1.0  0.9916072454553183  0.43525649501202124  0.057122372315604686  1.0000
  C   C17       1.0  0.9160108175406078  0.47713484304494513  0.9784994344712996  1.0000
  C   C18       1.0  0.918570157122248  0.4886809440446936  0.8280009487610624  1.0000
  C   C19       1.0  0.9963903001475655  0.45609630308911364  0.7555827010623141  1.0000
  C   C20       1.0  0.07289249189027958  0.4115394587535459  0.8326811325201797  1.0000
  Br  Br1       1.0  0.8151027047068777  0.5470421222689112  0.7208575506906848  1.0000
  H   H11       1.0  0.19437311341211738  0.2862691564334195  0.2771363688560524  1.0000
  H   H12       1.0  0.8556392261500259  0.501831851527103  0.034879154371280974  1.0000
  H   H13       1.0  0.9962493652361109  0.46272790155274285  0.6385323836720573  1.0000
  H   H14       1.0  0.22023374371573323  0.3982699610672587  0.5531342748600654  1.0000
  Zn  Zn1       1.0  0.9739169020695809  0.40771830704746725  0.40965864181184364  1.0000
  Zn  Zn2       1.0  0.17014992838882925  0.40789639992533533  0.40945119287994247  1.0000
  C   C21       1.0  0.0725673272847791  0.4049566245092913  0.6727214162009039  1.0000
  C   C22       1.0  0.07150164631792791  0.41065972375321236  0.1463885576486561  1.0000
  C   C23       1.0  0.07202150349192671  0.6448736037832725  0.4038134452583423  1.0000
  C   C24       1.0  0.07204740330528958  0.1707411852903704  0.4152966054816696  1.0000
  O   O1        1.0  0.1460780166324459  0.4129312267141454  0.19999359497917224  1.0000
  O   O2        1.0  0.14692728258548468  0.40281930685329553  0.6189585151517849  1.0000
  O   O3        1.0  0.1464855221131922  0.5965553140839202  0.40181342710848855  1.0000
  O   O4        1.0  0.1465197099254546  0.21919522775718914  0.4171385750568146  1.0000
  O   O5        1.0  0.9975470535682394  0.5964194791561858  0.4019712596981846  1.0000
  O   O6        1.0  0.9979888138813062  0.40268503105499365  0.6191162709142428  1.0000
  O   O7        1.0  0.997139544488268  0.41279689039584233  0.20014961837954665  1.0000
  O   O8        1.0  0.9975812379958438  0.2190608831057901  0.4172947064860566  1.0000
