data_image0
_chemical_formula_structural       NC6NC2H4C6NH7C7ONH5Zn2C4O8
_chemical_formula_sum              "N4 C25 H16 O9 Zn2"
_cell_length_a       14.927258858638513
_cell_length_b       9.274771166103582
_cell_length_c       9.273042158839658
_cell_angle_alpha    86.05644510922068
_cell_angle_beta     90.09323234568471
_cell_angle_gamma    90.59705168739299

_space_group_name_H-M_alt    "P 1"
_space_group_IT_number       1

loop_
  _space_group_symop_operation_xyz
  'x, y, z'

loop_
  _atom_site_type_symbol
  _atom_site_label
  _atom_site_symmetry_multiplicity
  _atom_site_fract_x
  _atom_site_fract_y
  _atom_site_fract_z
  _atom_site_occupancy
  N   N1        1.0  0.8520708987215089  0.5618844908843432  0.40726300562124984  1.0000
  C   C1        1.0  0.7745444073806859  0.5618844624791286  0.40726301626045136  1.0000
  C   C2        1.0  0.6781119005277797  0.561884577080725  0.4072629661976368  1.0000
  C   C3        1.0  0.6307694670905076  0.536853804375568  0.28064009874562457  1.0000
  C   C4        1.0  0.5370581557689548  0.5368538286123262  0.28063996526137713  1.0000
  C   C5        1.0  0.4902958354066792  0.561884399682978  0.4072629851486691  1.0000
  C   C6        1.0  0.3938632615622492  0.5618845142874769  0.40726293507992595  1.0000
  N   N2        1.0  0.31633677022142687  0.5618844858822621  0.40726294571912725  1.0000
  C   C7        1.0  0.5376382018524278  0.5869151723910375  0.5338858525947531  1.0000
  C   C8        1.0  0.6313495131739805  0.5869151481542796  0.5338859860790003  1.0000
  H   H1        1.0  0.6662399816428658  0.5173784506043198  0.18212024058845877  1.0000
  H   H2        1.0  0.501136327405348  0.5173786481387828  0.18212023529279264  1.0000
  H   H3        1.0  0.5021677543377182  0.6063905169804389  0.6324058188390973  1.0000
  H   H4        1.0  0.6672713422842151  0.6063904271394376  0.632405825881426  1.0000
  C   C9        1.0  0.08145865305414057  0.1382962020061662  0.4080486079747194  1.0000
  C   C10       1.0  0.060705041380894054  0.22024737472467362  0.27915613402927897  1.0000
  C   C11       1.0  0.04831466290376388  0.15383179664793123  0.1494458924954578  1.0000
  C   C12       1.0  0.05672384592382421  0.004077677384037861  0.1476886214981905  1.0000
  C   C13       1.0  0.07581898485250799  0.9207884274801307  0.27481048981710354  1.0000
  C   C14       1.0  0.0869575590601666  0.9854618229864596  0.40648988044467527  1.0000
  N   N3        1.0  0.02810991938406994  0.23886754673128222  0.019136815510039765  1.0000
  H   H5        1.0  0.1826186261160866  0.22127892801646556  0.7234881414594858  1.0000
  H   H6        1.0  0.05618750817004428  0.3368342515517313  0.2786024781754297  1.0000
  H   H7        1.0  0.04761469673919396  0.9515393074790284  0.04788967710156977  1.0000
  H   H8        1.0  0.07976249523675527  0.8045809341670656  0.27068258375420196  1.0000
  H   H9        1.0  0.15146427538882112  0.6906559261794746  0.6211004505097877  1.0000
  H   H10       1.0  0.021937642986803244  0.35094095517479335  0.019090001848221187  1.0000
  H   H11       1.0  0.01908766672255592  0.19037135055965324  0.9217082147964138  1.0000
  C   C15       1.0  0.08375078720214417  0.5574209838316961  0.9840125264838875  1.0000
  C   C16       1.0  0.0015296864396079325  0.5666063799143772  0.05667644103819813  1.0000
  C   C17       1.0  0.9210168765056929  0.5897441854719443  0.9803777143456681  1.0000
  C   C18       1.0  0.9232105140216457  0.6019543135214818  0.8288565474715299  1.0000
  C   C19       1.0  0.0039513154840635795  0.590651099422717  0.7551870991324874  1.0000
  C   C20       1.0  0.0846654382798846  0.5663369654676942  0.83052595995014  1.0000
  C   C21       1.0  0.8354765860114869  0.599702079217173  0.060219420806427504  1.0000
  O   O1        1.0  0.8291293988109892  0.5438819751544617  0.18769275059676716  1.0000
  N   N4        1.0  0.7597506827765652  0.6728815660322992  0.996548317826508  1.0000
  H   H12       1.0  0.30145675804819394  0.612518459225322  0.08387118358354706  1.0000
  H   H13       1.0  0.8623835365384569  0.6162163134422758  0.7662071788773708  1.0000
  H   H14       1.0  0.23136268895137682  0.5967551835191864  0.5475481934083284  1.0000
  H   H15       1.0  0.7644692386628704  0.7351705934173873  0.8987678791115119  1.0000
  H   H16       1.0  0.6992003308899838  0.6727192120628764  0.05279108381803277  1.0000
  Zn  Zn1       1.0  0.9860479924312593  0.5618807119923477  0.4072713237811243  1.0000
  Zn  Zn2       1.0  0.1823596234772129  0.5618765741132479  0.40726647267950433  1.0000
  C   C22       1.0  0.08445322830836127  0.5589052540527026  0.6705273447446605  1.0000
  C   C23       1.0  0.08395654328350835  0.564853853520582  0.14401058978098202  1.0000
  C   C24       1.0  0.0859073209960213  0.8252689613833344  0.4010408998411019  1.0000
  C   C25       1.0  0.08250237244242231  0.2984884139649526  0.41349711471840656  1.0000
  O   O2        1.0  0.15852479695208688  0.5673405292177744  0.19770557203492412  1.0000
  O   O3        1.0  0.1588809527501126  0.5564143452483297  0.6168282677115133  1.0000
  O   O4        1.0  0.16005414831879428  0.771506423353096  0.3992160540557288  1.0000
  O   O5        1.0  0.1573515343457561  0.352248460294855  0.4153176776035292  1.0000
  O   O6        1.0  0.011056014571193103  0.7715088258136429  0.3992201188511699  1.0000
  O   O7        1.0  0.00988283016441405  0.5564184799367762  0.6168322524671602  1.0000
  O   O8        1.0  0.009526672227369469  0.5673445953882125  0.19770782398538245  1.0000
  O   O9        1.0  0.00835340966716425  0.35225251728634843  0.4153200376352386  1.0000
