data_image0
_chemical_formula_structural       NC8NC6H8C7NC2NH8C7ONH7Zn2C4O8
_chemical_formula_sum              "N5 C34 H23 O9 Zn2"
_cell_length_a       17.457602349358154
_cell_length_b       9.273995741505848
_cell_length_c       10.297855452804892
_cell_angle_alpha    85.68463501801465
_cell_angle_beta     92.86875916188056
_cell_angle_gamma    92.2639659462817

_space_group_name_H-M_alt    "P 1"
_space_group_IT_number       1

loop_
  _space_group_symop_operation_xyz
  'x, y, z'

loop_
  _atom_site_type_symbol
  _atom_site_label
  _atom_site_symmetry_multiplicity
  _atom_site_fract_x
  _atom_site_fract_y
  _atom_site_fract_z
  _atom_site_occupancy
  N   N1        1.0  0.7312790064972623  0.6142272085690992  0.6306026774028564  1.0000
  C   C1        1.0  0.6699255653043109  0.5632208232707576  0.6198474413424488  1.0000
  C   C2        1.0  0.5935993350424817  0.4997752234370172  0.6064774885251223  1.0000
  C   C3        1.0  0.5353063274659094  0.5443555100682409  0.6815093242039967  1.0000
  C   C4        1.0  0.46043087743855887  0.48326248997696425  0.668760267426195  1.0000
  C   C5        1.0  0.3985601142999525  0.5303326156823606  0.7482214439778201  1.0000
  C   C6        1.0  0.324129104065172  0.5508673079936064  0.6925029182908149  1.0000
  C   C7        1.0  0.265834978083145  0.5952432621161894  0.7676421767921293  1.0000
  C   C8        1.0  0.18996963778566045  0.6164517394147386  0.7097095943115495  1.0000
  N   N2        1.0  0.1289867822899636  0.6334962689942429  0.6631319299658058  1.0000
  C   C9        1.0  0.28148112163278427  0.6193543937112109  0.8990093009744033  1.0000
  C   C10       1.0  0.35512973731104613  0.5992516118140594  0.9551166615801873  1.0000
  C   C11       1.0  0.41341330484177774  0.5550754741875099  0.8804357484304797  1.0000
  C   C12       1.0  0.44513312027669377  0.37683730193271425  0.5795441610039334  1.0000
  C   C13       1.0  0.5034160543552104  0.332566400197315  0.5049132373757448  1.0000
  C   C14       1.0  0.5775073704496334  0.3937840288610882  0.5182126823785558  1.0000
  H   H1        1.0  0.5480974756553099  0.6278505268117394  0.7483775833188215  1.0000
  H   H2        1.0  0.3117022754256595  0.5342783945234486  0.5904147052559143  1.0000
  H   H3        1.0  0.23680123185691723  0.6536342752438309  0.9579485282820477  1.0000
  H   H4        1.0  0.3670522587990417  0.6175708057025786  0.05683621012972628  1.0000
  H   H5        1.0  0.46980496888199375  0.5384060203209915  0.9265058404733667  1.0000
  H   H6        1.0  0.3883765085239554  0.3264858916201985  0.5687545674154799  1.0000
  H   H7        1.0  0.49114553159769553  0.250311927123424  0.4368497788734316  1.0000
  H   H8        1.0  0.6221820291041619  0.3585379537006325  0.45978206996012627  1.0000
  C   C15       1.0  0.9278415490336628  0.20026206276628844  0.6457310142433395  1.0000
  C   C16       1.0  0.9413264070142445  0.2841939510532179  0.5293662508983643  1.0000
  C   C17       1.0  0.9616776233118777  0.22010610359879634  0.41843509205743024  1.0000
  C   C18       1.0  0.9693927766335252  0.07003323426391694  0.4207218950206983  1.0000
  C   C19       1.0  0.9542965667395927  0.984746066531021  0.5358788381760204  1.0000
  C   C20       1.0  0.9324315132649827  0.04745058091553722  0.6480153701909748  1.0000
  C   C21       1.0  0.9918970751431759  0.004169694285774964  0.3018578205024205  1.0000
  N   N3        1.0  0.994703455464325  0.07863272432196375  0.1840579600822958  1.0000
  C   C22       1.0  0.017729547979280946  0.9818902817624167  0.1042484531002077  1.0000
  C   C23       1.0  0.02867316942143816  0.8514812201842361  0.17409932026550234  1.0000
  N   N4        1.0  0.012460131051337916  0.8656493031835096  0.29836284175393524  1.0000
  H   H9        1.0  0.8655907288072533  0.4617803744219593  0.8275813281856834  1.0000
  H   H10       1.0  0.9379876601872986  0.40087757524379736  0.5249037864206063  1.0000
  H   H11       1.0  0.972516636279129  0.2888629758858987  0.3310839003249926  1.0000
  H   H12       1.0  0.956894975767105  0.8683092093839913  0.5378914312374528  1.0000
  H   H13       1.0  0.9334157006599837  0.7493897060404737  0.8641012943331228  1.0000
  H   H14       1.0  0.026229525184379376  0.005361036084928546  0.001383198525593208  1.0000
  H   H15       1.0  0.04752438529719627  0.7532969432478352  0.13713538897179522  1.0000
  H   H16       1.0  0.016623850162677877  0.7852829502045634  0.37462984881955785  1.0000
  C   C24       1.0  0.9301674112464634  0.6240012013431997  0.26543404304870544  1.0000
  C   C25       1.0  0.851859695929586  0.6549737987053269  0.25571834959536277  1.0000
  C   C26       1.0  0.811966071866288  0.6694326150013044  0.1337755628175339  1.0000
  C   C27       1.0  0.8517646286387691  0.6546447827850237  0.020476930121775982  1.0000
  C   C28       1.0  0.9301056408685775  0.6237114506470229  0.028312349719634703  1.0000
  C   C29       1.0  0.9687460213240977  0.6082571116703618  0.1512052273393989  1.0000
  C   C30       1.0  0.7293169976382637  0.7024911945774892  0.1260951151270544  1.0000
  O   O1        1.0  0.7012529744892338  0.7626667025239398  0.21774792357960404  1.0000
  N   N5        1.0  0.6800496639743582  0.666003300373663  0.017364553477384522  1.0000
  H   H17       1.0  0.07823215176530751  0.5659829375281844  0.49103492231092544  1.0000
  H   H18       1.0  0.8215888669002692  0.6666551624334015  0.3434297810299638  1.0000
  H   H19       1.0  0.8223764868005456  0.6698497506393424  0.9257194836987126  1.0000
  H   H20       1.0  0.029098049352896282  0.5843825685418969  0.15793975722097175  1.0000
  H   H21       1.0  0.07847176825611402  0.5675326540105015  0.8357166365311208  1.0000
  H   H22       1.0  0.6229306678536903  0.6962688948841518  0.011680737610364035  1.0000
  H   H23       1.0  0.69793213456423  0.6010786246255697  0.9469912530796777  1.0000
  Zn  Zn1       1.0  0.8460488580970437  0.6197839719652789  0.6399974064409693  1.0000
  Zn  Zn2       1.0  0.014216851502586452  0.6279276746525542  0.653747803523254  1.0000
  C   C31       1.0  0.9300844766319504  0.6180195862147329  0.8840963929046484  1.0000
  C   C32       1.0  0.9301830792075438  0.6296939693559078  0.4096490996111037  1.0000
  C   C33       1.0  0.9315603803576903  0.8873157341798188  0.6424071509978067  1.0000
  C   C34       1.0  0.928707108702587  0.3603960855028474  0.6513384014041497  1.0000
  O   O2        1.0  0.9940071805055082  0.6346887138959016  0.46326717707720455  1.0000
  O   O3        1.0  0.9938959853207722  0.6192046355117786  0.8409141718122908  1.0000
  O   O4        1.0  0.9950869358263232  0.8366646385339761  0.6457483326804623  1.0000
  O   O5        1.0  0.9928161726794039  0.417228718450771  0.6584329141521748  1.0000
  O   O6        1.0  0.8674494795327523  0.8304829253895893  0.6353122911128848  1.0000
  O   O7        1.0  0.8662585384189444  0.6130246554778931  0.8304780656593456  1.0000
  O   O8        1.0  0.8663697335088097  0.6285086841901577  0.4528295091045984  1.0000
  O   O9        1.0  0.8651787256157845  0.411048678390487  0.6479953435372636  1.0000
