data_image0
_chemical_formula_structural       NC6NC2H4C9H10C6NCOH7Zn2C4O8
_chemical_formula_sum              "N3 C28 H21 O9 Zn2"
_cell_length_a       14.927258858638513
_cell_length_b       10.297183801781406
_cell_length_c       9.27373355559583
_cell_angle_alpha    86.14735742997276
_cell_angle_beta     90.01105750145625
_cell_angle_gamma    89.99762792032334

_space_group_name_H-M_alt    "P 1"
_space_group_IT_number       1

loop_
  _space_group_symop_operation_xyz
  'x, y, z'

loop_
  _atom_site_type_symbol
  _atom_site_label
  _atom_site_symmetry_multiplicity
  _atom_site_fract_x
  _atom_site_fract_y
  _atom_site_fract_z
  _atom_site_occupancy
  N   N1        1.0  0.8433376782508545  0.4063030641230994  0.40954933362756396  1.0000
  C   C1        1.0  0.7658111870851874  0.40630303854398675  0.40954934422682787  1.0000
  C   C2        1.0  0.6693786795319714  0.40630314174228177  0.40954929432578213  1.0000
  C   C3        1.0  0.6223117636854576  0.3837376612479957  0.2829034244245092  1.0000
  C   C4        1.0  0.5286004523252958  0.3837376830504402  0.2829032909854894  1.0000
  C   C5        1.0  0.48156261554707736  0.4063029819854998  0.40954931303165204  1.0000
  C   C6        1.0  0.38513004100232423  0.4063030851864078  0.4095492631246824  1.0000
  N   N2        1.0  0.3076035498366573  0.4063030596072956  0.4095492737239461  1.0000
  C   C7        1.0  0.5286294644020542  0.42886846248239935  0.5361951829270012  1.0000
  C   C8        1.0  0.6223407757622162  0.42886844067995455  0.5361953163660202  1.0000
  H   H1        1.0  0.6579966465803194  0.3661804439226999  0.18436566907455632  1.0000
  H   H2        1.0  0.49289299106353984  0.36618062181665745  0.18436566405046473  1.0000
  H   H3        1.0  0.4929446485082217  0.4464256715586692  0.6347330463418426  1.0000
  H   H4        1.0  0.6580482370324132  0.446425590651256  0.6347330532602402  1.0000
  C   C9        1.0  0.07547806940086614  0.024829467612939252  0.40975352543823185  1.0000
  C   C10       1.0  0.07284816417296658  0.033222813847202375  0.25809396060378087  1.0000
  C   C11       1.0  0.0715005796059847  0.920906483178103  0.18039433054414244  1.0000
  C   C12       1.0  0.0728375982405436  0.7980460365480325  0.25750615058736703  1.0000
  C   C13       1.0  0.07547176426297542  0.7877667648072705  0.4093575426092099  1.0000
  C   C14       1.0  0.0767739541297554  0.9016250227110965  0.48448997885308004  1.0000
  C   C15       1.0  0.06865590354048878  0.9394166746061611  0.016363802264707464  1.0000
  C   C16       1.0  0.016190649586208306  0.8399239029043185  0.9361350111364524  1.0000
  C   C17       1.0  0.11824971009266028  0.8401878351228196  0.9315566224433661  1.0000
  H   H5        1.0  0.07649996254013597  0.3491336960791256  0.4681928202742753  1.0000
  H   H6        1.0  0.07183306377870592  0.1278854739098263  0.19954500128072672  1.0000
  H   H7        1.0  0.07184851364093664  0.7098958517625957  0.20058308453654014  1.0000
  H   H8        1.0  0.07880253222967731  0.8944219369716316  0.6014985178650706  1.0000
  H   H9        1.0  0.08043506202759626  0.5611356649640186  0.6961620642491873  1.0000
  H   H10       1.0  0.06774239709662605  0.03962238344739501  0.9636415069104863  1.0000
  H   H11       1.0  0.9863050964208485  0.756920669864857  0.0017230089607922516  1.0000
  H   H12       1.0  0.9845736106219907  0.8798107789001475  0.8341664202799164  1.0000
  H   H13       1.0  0.15035955568418394  0.7573457337224665  0.994364247365259  1.0000
  H   H14       1.0  0.14628170041190036  0.8802265876979163  0.8269108351169554  1.0000
  C   C18       1.0  0.07542368190750914  0.40220528405376604  0.986330668050257  1.0000
  C   C19       1.0  0.9930870187210287  0.39474925702774466  0.060286011289937706  1.0000
  C   C20       1.0  0.9115649655920932  0.39782066518647713  0.9853349433663294  1.0000
  C   C21       1.0  0.9123556618733729  0.41257070022766396  0.8339795532587702  1.0000
  C   C22       1.0  0.9933453130264803  0.41808828905244627  0.7588212236962706  1.0000
  C   C23       1.0  0.07552613277789938  0.41039092713185127  0.8327804522697186  1.0000
  N   N3        1.0  0.8289627693131885  0.3932644778268468  0.06535180497691373  1.0000
  C   C24       1.0  0.7482536151388951  0.33344462986034284  0.018600439410519913  1.0000
  O   O1        1.0  0.7477831124972777  0.2646981647996831  0.9112852868197097  1.0000
  H   H15       1.0  0.2865257336663498  0.4924072296285907  0.08259727229170699  1.0000
  H   H16       1.0  0.9920400807704632  0.388469180575135  0.17740921811299382  1.0000
  H   H17       1.0  0.8504864162347804  0.42121982277578296  0.7733604600670878  1.0000
  H   H18       1.0  0.991601368594807  0.4261021890194508  0.6417758931562032  1.0000
  H   H19       1.0  0.21841337360819968  0.4656528740689294  0.5476455135383747  1.0000
  H   H20       1.0  0.8286416550268785  0.4278049010023188  0.16875287702172415  1.0000
  H   H21       1.0  0.6870236404126162  0.34433912176682635  0.07901563414774482  1.0000
  Zn  Zn1       1.0  0.9773147891123116  0.40629966247494664  0.40955764585559556  1.0000
  Zn  Zn2       1.0  0.17362645137677746  0.4062959351028925  0.40955278950992  1.0000
  C   C25       1.0  0.07550481310768943  0.4036685802062423  0.672785985485532  1.0000
  C   C26       1.0  0.07543857110218993  0.4089286577684088  0.14632459043243662  1.0000
  C   C27       1.0  0.07546763714642918  0.6434998327775703  0.4036892591301073  1.0000
  C   C28       1.0  0.07547568009823169  0.16909584521037566  0.4154213944372167  1.0000
  O   O2        1.0  0.14994282084142954  0.41117800159030904  0.20001817232979557  1.0000
  O   O3        1.0  0.14999657264241817  0.401415423391567  0.6190883033664242  1.0000
  O   O4        1.0  0.14996554847937382  0.5950822074343527  0.4017907922542716  1.0000
  O   O5        1.0  0.1499737780034447  0.21751122579654925  0.41731557537705877  1.0000
  O   O6        1.0  0.0009673954941074026  0.5950843717839032  0.4017948599825325  1.0000
  O   O7        1.0  0.0009984196308332458  0.4014191477304348  0.619092293439405  1.0000
  O   O8        1.0  0.0009446676800668453  0.41118166390391636  0.20002042965887856  1.0000
  O   O9        1.0  0.0009756248515742106  0.2175148798637434  0.4173179407651071  1.0000
