data_image0
_chemical_formula_structural       NC11NC3H8C10ClC2H9C6N2CH6Zn2C4O8
_chemical_formula_sum              "N4 C37 H23 Cl1 Zn2 O8"
_cell_length_a       17.807433833752565
_cell_length_b       10.299769246903262
_cell_length_c       10.299970628315746
_cell_angle_alpha    85.56280496945749
_cell_angle_beta     88.52147097684869
_cell_angle_gamma    90.70297831868984

_space_group_name_H-M_alt    "P 1"
_space_group_IT_number       1

loop_
  _space_group_symop_operation_xyz
  'x, y, z'

loop_
  _atom_site_type_symbol
  _atom_site_label
  _atom_site_symmetry_multiplicity
  _atom_site_fract_x
  _atom_site_fract_y
  _atom_site_fract_z
  _atom_site_occupancy
  N   N1        1.0  0.7077218734263138  0.43845728017664376  0.5347701267464535  1.0000
  C   C1        1.0  0.656894041214694  0.4037311834190869  0.6013282527170274  1.0000
  C   C2        1.0  0.5936590930943043  0.36053478145700324  0.6841180676232858  1.0000
  C   C3        1.0  0.6053708935717719  0.29698572326786005  0.8068287158599547  1.0000
  C   C4        1.0  0.5440437159004681  0.2554690708203342  0.8873347630481907  1.0000
  C   C5        1.0  0.4708503135752037  0.2771882138885362  0.8457709176984125  1.0000
  C   C6        1.0  0.4581617617035835  0.34089181985392586  0.7226000987325654  1.0000
  C   C7        1.0  0.3804004670960838  0.3639410569294565  0.6782557752191447  1.0000
  C   C8        1.0  0.361617503767369  0.3470682718459903  0.5486808058173972  1.0000
  C   C9        1.0  0.2883941530115026  0.368748687009294  0.5070728896697894  1.0000
  C   C10       1.0  0.2330107745626792  0.40762040775484637  0.5942197172571497  1.0000
  C   C11       1.0  0.15765086385919994  0.42995927526205974  0.5512505915822485  1.0000
  N   N2        1.0  0.097066868697708  0.4479180651427954  0.5167065418229446  1.0000
  C   C12       1.0  0.25110222880668204  0.42470376521561753  0.7232635841108686  1.0000
  C   C13       1.0  0.3242728039824764  0.4029884217248653  0.7651269166491252  1.0000
  C   C14       1.0  0.5203462499390303  0.3824039074966692  0.6421104664637106  1.0000
  H   H1        1.0  0.661832489434289  0.27957157525011755  0.8401921352063381  1.0000
  H   H2        1.0  0.5532299009537142  0.206017729527937  0.9820648820092462  1.0000
  H   H3        1.0  0.4242028067052666  0.2426328262180253  0.9092059092097499  1.0000
  H   H4        1.0  0.40329197260319344  0.31542636328929774  0.47996639062384905  1.0000
  H   H5        1.0  0.27495298713732763  0.3548675508419317  0.407042502958761  1.0000
  H   H6        1.0  0.20871076454265264  0.4551226559318673  0.7914632133665211  1.0000
  H   H7        1.0  0.3371858293176508  0.41841495136737566  0.8649746093954741  1.0000
  H   H8        1.0  0.5118587882417922  0.43321758961349893  0.5476146985805492  1.0000
  C   C15       1.0  0.9023273257061751  0.06182091538521762  0.5257361815427162  1.0000
  C   C16       1.0  0.9092696128847696  0.07153510087799254  0.38921154362979427  1.0000
  C   C17       1.0  0.9128591323206668  0.9593196753328163  0.32004072196712335  1.0000
  C   C18       1.0  0.9094122225376235  0.836250409054899  0.3892268697243753  1.0000
  C   C19       1.0  0.9024686186184258  0.8245445855438631  0.5257512939543849  1.0000
  C   C20       1.0  0.8989652520269323  0.9378877627116772  0.5932414089939053  1.0000
  C   C21       1.0  0.920204792761516  0.9706495035819249  0.17560909411785053  1.0000
  C   C22       1.0  0.968915999017222  0.8888901332999456  0.1108638968672444  1.0000
  C   C23       1.0  0.9757630639323118  0.8997482671863809  0.974914467697181  1.0000
  C   C24       1.0  0.9341174084534711  0.9921079920691145  0.9020461692401898  1.0000
  Cl  Cl1       1.0  0.9427908084153748  0.005485837302107825  0.7314916934448705  1.0000
  C   C25       1.0  0.8855493727766367  0.07379097401258108  0.9652938720472588  1.0000
  C   C26       1.0  0.878569063433985  0.06332219817775409  0.10122919306326095  1.0000
  H   H9        1.0  0.8996532518705344  0.3855723443409593  0.5777568351481503  1.0000
  H   H10       1.0  0.9129365466560585  0.16662546657635113  0.3364550188431308  1.0000
  H   H11       1.0  0.9111220166161297  0.7494537100695837  0.336261476759506  1.0000
  H   H12       1.0  0.893609341464546  0.9296256274585895  0.6985638242467066  1.0000
  H   H13       1.0  0.8998582845166556  0.49263095644011073  0.5777780493450201  1.0000
  H   H14       1.0  0.0024145973263087713  0.817767366090445  0.16541216092285785  1.0000
  H   H15       1.0  0.013605726640803168  0.8365157206028776  0.9263729921829517  1.0000
  H   H16       1.0  0.8530258785808451  0.1452273318084949  0.909248008572983  1.0000
  H   H17       1.0  0.8399134516896438  0.1264908145337027  0.14808323190518172  1.0000
  C   C27       1.0  0.9024094919175822  0.44317986218119443  0.144389807794207  1.0000
  C   C28       1.0  0.8244387196118541  0.462643729718627  0.14531702593812515  1.0000
  C   C29       1.0  0.7852618537548992  0.4724236191343682  0.029114491379357746  1.0000
  C   C30       1.0  0.8243926631663334  0.4626553469348675  0.9101024487603723  1.0000
  C   C31       1.0  0.9023864289158858  0.44318561684459895  0.9070976847344068  1.0000
  C   C32       1.0  0.9409101366357507  0.4335689527428812  0.024764705760260467  1.0000
  N   N3        1.0  0.7057567927193478  0.49227060959454194  0.034824166655118574  1.0000
  N   N4        1.0  0.6665186868513011  0.5020655372136817  0.933185946781106  1.0000
  C   C33       1.0  0.5860611913960397  0.5221503705482383  0.9433461874940057  1.0000
  H   H18       1.0  0.7936742381322339  0.4703234533368368  0.23646699799595378  1.0000
  H   H19       1.0  0.7941294798622084  0.47021000951474057  0.8200562180677275  1.0000
  H   H20       1.0  0.0010007815290793405  0.41856850999199935  0.02323997649504106  1.0000
  H   H21       1.0  0.5588521151451761  0.4394739726645449  0.0031948124709375533  1.0000
  H   H22       1.0  0.5624136052744296  0.5280536929572843  0.8445069492683044  1.0000
  H   H23       1.0  0.5747971319402454  0.614430688633596  0.9889484461642288  1.0000
  Zn  Zn1       1.0  0.8200784276757397  0.4411839837906917  0.5295648504885799  1.0000
  Zn  Zn2       1.0  0.9847102974006915  0.4451807420751836  0.5219224034680121  1.0000
  C   C34       1.0  0.9023881510299498  0.4380108753446845  0.7629295592715395  1.0000
  C   C35       1.0  0.9024023721210184  0.44835553277729856  0.288557738723775  1.0000
  C   C36       1.0  0.9024381797893655  0.6803734626082822  0.5205736820483671  1.0000
  C   C37       1.0  0.9023522868931707  0.20599138385632898  0.5309136877596927  1.0000
  O   O1        1.0  0.964876918177302  0.4516036183387975  0.33404154440612316  1.0000
  O   O2        1.0  0.9648653846025915  0.43779525712241196  0.7116449392839348  1.0000
  O   O3        1.0  0.9649049411986947  0.6335060909947903  0.5159408928425899  1.0000
  O   O4        1.0  0.9648373054081592  0.25589279239202756  0.5297454960846553  1.0000
  O   O5        1.0  0.8399513634874952  0.6304719321113639  0.521741760473098  1.0000
  O   O6        1.0  0.8399118071790473  0.43476265853387497  0.7174457377028589  1.0000
  O   O7        1.0  0.8399233408425592  0.4485709744838793  0.33984078148240804  1.0000
  O   O8        1.0  0.8398837280656791  0.25286013924901773  0.5355448305249144  1.0000
