data_image0
_chemical_formula_structural       NC8NH4C7NH5C6NCH8Zn2C4O8
_chemical_formula_sum              "N4 C26 H17 Zn2 O8"
_cell_length_a       13.859017981522156
_cell_length_b       9.275154477615127
_cell_length_c       9.274690524155615
_cell_angle_alpha    86.28222006600178
_cell_angle_beta     89.68735533555713
_cell_angle_gamma    89.43373755438122

_space_group_name_H-M_alt    "P 1"
_space_group_IT_number       1

loop_
  _space_group_symop_operation_xyz
  'x, y, z'

loop_
  _atom_site_type_symbol
  _atom_site_label
  _atom_site_symmetry_multiplicity
  _atom_site_fract_x
  _atom_site_fract_y
  _atom_site_fract_z
  _atom_site_occupancy
  N   N1        1.0  0.9040272406917781  0.5640769357385333  0.41638716942676784  1.0000
  C   C1        1.0  0.8319466704104168  0.5565130122645487  0.3550504801383223  1.0000
  C   C2        1.0  0.7422826776117664  0.5471048531416032  0.27875562136067966  1.0000
  C   C3        1.0  0.7427648578957  0.5287580444162905  0.12997690212055632  1.0000
  C   C4        1.0  0.6556632053503738  0.5196223610813235  0.05588479236314647  1.0000
  C   C5        1.0  0.5678995714492369  0.5287597642933324  0.1299766606701689  1.0000
  C   C6        1.0  0.567052434952844  0.547105824631188  0.27875544144434206  1.0000
  C   C7        1.0  0.6543353497903349  0.5562771871295453  0.35313364736112696  1.0000
  C   C8        1.0  0.4767068485447994  0.556513913760609  0.35505024331587687  1.0000
  N   N2        1.0  0.4040783232955301  0.5640772483491285  0.41638707707334044  1.0000
  H   H1        1.0  0.8103218687177669  0.5215384471567024  0.07143404424697741  1.0000
  H   H2        1.0  0.6561765749229177  0.5054504996236933  0.9409596345059462  1.0000
  H   H3        1.0  0.5008655800160304  0.5215415406742732  0.0714336366082775  1.0000
  H   H4        1.0  0.6538209300717496  0.5704776356335115  0.4682924547878988  1.0000
  C   C9        1.0  0.15685574752401044  0.14067326501194022  0.41471922525095695  1.0000
  C   C10       1.0  0.13084195385969344  0.22274397416776412  0.28763664208852213  1.0000
  C   C11       1.0  0.09695487798691449  0.15565587959363025  0.16728581463673997  1.0000
  C   C12       1.0  0.08852153759631176  0.005581698507906021  0.17260017842275777  1.0000
  C   C13       1.0  0.11544035796681686  0.9222780508072761  0.2967860150112533  1.0000
  C   C14       1.0  0.15125908976708202  0.9874699812097341  0.4180674770801595  1.0000
  C   C15       1.0  0.0696630661621771  0.24129504158574  0.03867155514591823  1.0000
  N   N3        1.0  0.0477280298558993  0.31013330911740034  0.9352986347614872  1.0000
  H   H5        1.0  0.17425278361016996  0.22042998568341934  0.7685151967300146  1.0000
  H   H6        1.0  0.13479834152501247  0.3396660783489991  0.2833600134663117  1.0000
  H   H7        1.0  0.06196305921948042  0.952648385402024  0.0801030089945447  1.0000
  H   H8        1.0  0.11037411930807542  0.8058093449910378  0.2966591704627173  1.0000
  H   H9        1.0  0.16707188670146422  0.6907672207517489  0.6551208407657266  1.0000
  C   C16       1.0  0.1556267906239237  0.5603801189966524  0.993131439071909  1.0000
  C   C17       1.0  0.23360756264950647  0.6227504668312973  0.06211540602810062  1.0000
  C   C18       1.0  0.30655422293960166  0.6960404636256907  0.9819073804733738  1.0000
  C   C19       1.0  0.30076721384177874  0.7066907436029397  0.8310530315846892  1.0000
  C   C20       1.0  0.22485113350557273  0.643461387790863  0.7608549825523516  1.0000
  C   C21       1.0  0.15248800569375653  0.5677630942294785  0.8396551782756938  1.0000
  N   N4        1.0  0.3864192711704737  0.7614720517253128  0.05088786967676738  1.0000
  C   C22       1.0  0.3995476996940954  0.7563965323527648  0.20714934645689587  1.0000
  H   H10       1.0  0.046640436170762856  0.38658137040124396  0.28544304248003  1.0000
  H   H11       1.0  0.35597208680860426  0.7631316623120392  0.7672176272135509  1.0000
  H   H12       1.0  0.2240705330355195  0.6509005163308583  0.6438116818287631  1.0000
  H   H13       1.0  0.00045434424942003863  0.5001213129098749  0.5639495724776844  1.0000
  H   H14       1.0  0.4385603074788117  0.8154055293916606  0.9864669637301331  1.0000
  H   H15       1.0  0.466696438440976  0.8135264172983621  0.23305353845214327  1.0000
  H   H16       1.0  0.4057011960013338  0.6424114718164575  0.2509233035494491  1.0000
  H   H17       1.0  0.3376504794895655  0.8104495184374398  0.2585650978579037  1.0000
  Zn  Zn1       1.0  0.04833118202485909  0.5640732483137016  0.4163954472008985  1.0000
  Zn  Zn2       1.0  0.2597744186900002  0.5640692746236886  0.4163905458585069  1.0000
  C   C23       1.0  0.15311714129414591  0.5606236328948244  0.6796213870328005  1.0000
  C   C24       1.0  0.15499075582605704  0.5675207104633389  0.15316475463477008  1.0000
  C   C25       1.0  0.15233330303811624  0.827357263533731  0.41169089175276263  1.0000
  C   C26       1.0  0.15577453309538591  0.30078534821485037  0.4210953199115152  1.0000
  O   O1        1.0  0.23501894467984608  0.5699093599682858  0.20687151235480122  1.0000
  O   O2        1.0  0.23356948533305744  0.558230876123651  0.6259104900939063  1.0000
  O   O3        1.0  0.23293543877612718  0.7736216692631829  0.4095547254554097  1.0000
  O   O4        1.0  0.2356529194180613  0.3545185762017657  0.42322716896457946  1.0000
  O   O5        1.0  0.07245260914161646  0.7736239467384844  0.4095588240889232  1.0000
  O   O6        1.0  0.07308664453006597  0.5582348852113934  0.6259145187248099  1.0000
  O   O7        1.0  0.07453611069843591  0.5699133036981832  0.2068738078681256  1.0000
  O   O8        1.0  0.07517008510018465  0.3545225105615104  0.4232295725007198  1.0000
