data_image0
_chemical_formula_structural       NC6NC3H6C6BrH3C6H4Zn2C4O8
_chemical_formula_sum              "N2 C25 H13 Br1 Zn2 O8"
_cell_length_a       14.934028789175542
_cell_length_b       9.276564384272257
_cell_length_c       10.681121600428288
_cell_angle_alpha    85.5120417802204
_cell_angle_beta     89.97499362812657
_cell_angle_gamma    90.54840447220178

_space_group_name_H-M_alt    "P 1"
_space_group_IT_number       1

loop_
  _space_group_symop_operation_xyz
  'x, y, z'

loop_
  _atom_site_type_symbol
  _atom_site_label
  _atom_site_symmetry_multiplicity
  _atom_site_fract_x
  _atom_site_fract_y
  _atom_site_fract_z
  _atom_site_occupancy
  N   N1        1.0  0.8532085641320278  0.5773710585780303  0.6170464728857401  1.0000
  C   C1        1.0  0.7757155174346314  0.576272943030842  0.6164575437161519  1.0000
  C   C2        1.0  0.6793102298541253  0.5749018383332889  0.6157223754253451  1.0000
  C   C3        1.0  0.632229161694506  0.6816843883972588  0.6728848124248215  1.0000
  C   C4        1.0  0.5387104104842831  0.6805834872036138  0.6722953693710672  1.0000
  C   C5        1.0  0.491360526173564  0.5727545300344006  0.6145728351020778  1.0000
  C   C6        1.0  0.3947295241576115  0.5750681091903782  0.615812454988655  1.0000
  N   N2        1.0  0.3172611231342918  0.5769042259373349  0.6167965349056728  1.0000
  C   C7        1.0  0.5384265952783304  0.4644946667485504  0.5566190862110361  1.0000
  C   C8        1.0  0.48936216177109  0.3472621762609107  0.4938637621500277  1.0000
  C   C9        1.0  0.6325835840181083  0.46671893301439615  0.5578098176609072  1.0000
  H   H1        1.0  0.6678103921476054  0.765819132724755  0.717924022443307  1.0000
  H   H2        1.0  0.5032075604131904  0.7640702719660453  0.716987590806915  1.0000
  H   H3        1.0  0.4469242940997946  0.39633077284564444  0.41685041314590454  1.0000
  H   H4        1.0  0.4462181831498583  0.2844184562717984  0.5635088567929267  1.0000
  H   H5        1.0  0.5363363881774442  0.2713290036118292  0.4532098888660334  1.0000
  H   H6        1.0  0.6695865821029948  0.3843427713573948  0.5137123838619446  1.0000
  C   C10       1.0  0.08254134776811224  0.15365937718081057  0.6172431821129811  1.0000
  C   C11       1.0  0.07106638864397286  0.23717020695659863  0.5027925216058149  1.0000
  C   C12       1.0  0.06792477166406824  0.1721844955537868  0.38940645650003236  1.0000
  C   C13       1.0  0.07623821914056456  0.02276897139817091  0.38831806300630944  1.0000
  C   C14       1.0  0.0861357179711084  0.9375663994898817  0.5010387924843702  1.0000
  C   C15       1.0  0.08793687623365294  0.0006047516292115808  0.6166106016601496  1.0000
  Br  Br1       1.0  0.07259874670356559  0.934414854541388  0.23273220917172277  1.0000
  H   H7        1.0  0.059878274166510016  0.23841282112589335  0.3021806570126804  1.0000
  H   H8        1.0  0.09027874792295654  0.8213222490016566  0.4983366198754562  1.0000
  H   H9        1.0  0.13733286383272858  0.7026224011113762  0.8116263494154747  1.0000
  C   C16       1.0  0.08523912963567531  0.5771320590834728  0.2491816849682693  1.0000
  C   C17       1.0  0.02063735981230397  0.49699341887400156  0.18785361354198526  1.0000
  C   C18       1.0  0.020637304495541024  0.49699351139759207  0.05697147355014476  1.0000
  C   C19       1.0  0.08523905969380972  0.5771321298448224  0.9846721206297326  1.0000
  C   C20       1.0  0.1497875073824328  0.6572043589064418  0.04599968983750747  1.0000
  C   C21       1.0  0.14978749578372863  0.657204336556525  0.1768919885234237  1.0000
  H   H10       1.0  0.9699994428378073  0.4341769651526861  0.240964456515238  1.0000
  H   H11       1.0  0.9699994245693642  0.4341770330525909  0.012460427249081365  1.0000
  H   H12       1.0  0.20043203750428085  0.7200290902790976  0.9929331725117057  1.0000
  H   H13       1.0  0.20043199206721607  0.7200290397715499  0.22135754005816533  1.0000
  Zn  Zn1       1.0  0.9871240974679624  0.577232476411947  0.6169815752186467  1.0000
  Zn  Zn2       1.0  0.18334554460926217  0.5770309953504207  0.6168716798119018  1.0000
  C   C22       1.0  0.08520050035487342  0.5713871554524796  0.84565298719577  1.0000
  C   C23       1.0  0.08527129604601447  0.5828781336595552  0.38820038818875013  1.0000
  C   C24       1.0  0.0869123945664227  0.840514074390732  0.6117399108394392  1.0000
  C   C25       1.0  0.0835593238402414  0.3137494822047051  0.6221135326417668  1.0000
  O   O1        1.0  0.15974706788126147  0.5847238164341171  0.4348146349056074  1.0000
  O   O2        1.0  0.1596522597141238  0.5693874653143592  0.7989549727294061  1.0000
  O   O3        1.0  0.1610336321156962  0.786710856962223  0.6100685080401889  1.0000
  O   O4        1.0  0.15836562858832526  0.3674004351710143  0.6237010057284789  1.0000
  O   O5        1.0  0.012103946528160265  0.7868630366616791  0.6101522493329827  1.0000
  O   O6        1.0  0.010722585160072072  0.5695413776007396  0.7990386459564278  1.0000
  O   O7        1.0  0.010817393066703925  0.5848776784673975  0.4348968025475426  1.0000
  O   O8        1.0  0.009435953704391759  0.36755428688985936  0.623783267267674  1.0000
