data_image0
_chemical_formula_structural       NC6NC2H4C7NH3C6SCH7Zn2C4O8
_chemical_formula_sum              "N3 C26 H14 S1 Zn2 O8"
_cell_length_a       14.927258858638513
_cell_length_b       9.275154477615127
_cell_length_c       9.275274088470228
_cell_angle_alpha    86.32665131531041
_cell_angle_beta     89.7257804702982
_cell_angle_gamma    89.43371000992973

_space_group_name_H-M_alt    "P 1"
_space_group_IT_number       1

loop_
  _space_group_symop_operation_xyz
  'x, y, z'

loop_
  _atom_site_type_symbol
  _atom_site_label
  _atom_site_symmetry_multiplicity
  _atom_site_fract_x
  _atom_site_fract_y
  _atom_site_fract_z
  _atom_site_occupancy
  N   N1        1.0  0.8386796860646143  0.5628558427471704  0.4165709583230877  1.0000
  C   C1        1.0  0.7611531950402336  0.5628558143432724  0.4165709687960291  1.0000
  C   C2        1.0  0.6647206869390295  0.5628559289469505  0.4165709194051712  1.0000
  C   C3        1.0  0.6181980848649888  0.5379671762407587  0.28982394593020144  1.0000
  C   C4        1.0  0.5244867737683035  0.5379672006052467  0.2898238126083088  1.0000
  C   C5        1.0  0.47690462398311195  0.5628557516066177  0.41657093732569056  1.0000
  C   C6        1.0  0.38047204889037234  0.5628558662132028  0.41657088792892183  1.0000
  N   N2        1.0  0.30294555786599153  0.5628558378093051  0.416570898401863  1.0000
  C   C7        1.0  0.5234271590656167  0.5877445043157175  0.543317910794749  1.0000
  C   C8        1.0  0.6171384701623022  0.5877444799512295  0.5433180441166419  1.0000
  H   H1        1.0  0.6543064749676475  0.5186023221692562  0.19120752630326532  1.0000
  H   H2        1.0  0.4892028182562971  0.5186025196234159  0.19120752215248318  1.0000
  H   H3        1.0  0.4873188356866203  0.6071093490974093  0.6419344384378829  1.0000
  H   H4        1.0  0.652422424739812  0.607109259288132  0.6419344449587414  1.0000
  C   C9        1.0  0.07341431559287065  0.13945070294092554  0.41490323929926354  1.0000
  C   C10       1.0  0.04920978177257984  0.22142349278697054  0.28783539256761426  1.0000
  C   C11       1.0  0.017698176167491933  0.15424267255631086  0.16749851977593447  1.0000
  C   C12       1.0  0.009870541623075773  0.004172593195119981  0.17281226611746825  1.0000
  C   C13       1.0  0.034914141959055955  0.9209646317232304  0.29698370236820854  1.0000
  C   C14       1.0  0.0682195517108497  0.9862500035873895  0.418251102079378  1.0000
  C   C15       1.0  0.9923064519522302  0.23978273575635356  0.038899174207384986  1.0000
  N   N3        1.0  0.9718985571825783  0.308541353242691  0.9355382407963684  1.0000
  H   H5        1.0  0.08971215682864148  0.21948006944556855  0.768658177881908  1.0000
  H   H6        1.0  0.9851745542354331  0.9511680149721025  0.08032582165750113  1.0000
  H   H7        1.0  0.08299842001051139  0.6897299205732312  0.6552769730783186  1.0000
  C   C16       1.0  0.07209958039992011  0.5588326545122024  0.9933643508870165  1.0000
  C   C17       1.0  0.14807709237739408  0.6095840166184474  0.06291333389037179  1.0000
  C   C18       1.0  0.219008512102136  0.6718224427579076  0.9830953223407187  1.0000
  C   C19       1.0  0.21515130815884373  0.683447787330064  0.8325811574726412  1.0000
  C   C20       1.0  0.14109480947429032  0.6316050231181993  0.7615249474253556  1.0000
  C   C21       1.0  0.06953428597652558  0.5668680551320906  0.8397899429827942  1.0000
  S   S1        1.0  0.3148213109651128  0.7371946004303374  0.07404211579886068  1.0000
  C   C22       1.0  0.267668097152981  0.9176653873582029  0.08648777580210454  1.0000
  H   H8        1.0  0.8555305450375804  0.49950673125323664  0.10183453482489992  1.0000
  H   H9        1.0  0.2699016508066314  0.7317572687799077  0.7702742715491837  1.0000
  H   H10       1.0  0.14078575168645088  0.6390751711115146  0.6444950172178903  1.0000
  H   H11       1.0  0.924831163282472  0.5210431303994352  0.5626939851322321  1.0000
  H   H12       1.0  0.25455313417130787  0.9680524634990387  0.9767248908445049  1.0000
  H   H13       1.0  0.2043679404604806  0.9122492532978086  0.1498319355435651  1.0000
  H   H14       1.0  0.31619516060365216  0.984939545455805  0.14175306042812075  1.0000
  Zn  Zn1       1.0  0.9726567944140149  0.5628520568808253  0.41657925322743605  1.0000
  Zn  Zn2       1.0  0.1689684970191646  0.5628479258233039  0.4165743789606012  1.0000
  C   C23       1.0  0.07005241543809643  0.5596052245870053  0.6797746758965568  1.0000
  C   C24       1.0  0.07157500812379497  0.5660965786507557  0.15337910488269713  1.0000
  C   C25       1.0  0.06921426331911017  0.8261323709145891  0.4118752564758261  1.0000
  C   C26       1.0  0.07241310364932074  0.29956770076757855  0.42127859429200876  1.0000
  O   O1        1.0  0.14589826351561408  0.5685265599876922  0.2070796434491433  1.0000
  O   O2        1.0  0.14472520791000754  0.5571710162224652  0.626070018709593  1.0000
  O   O3        1.0  0.14404738064657452  0.772395071825074  0.4097393480465262  1.0000
  O   O4        1.0  0.14657602405538506  0.3533025136748933  0.4234102060960121  1.0000
  O   O5        1.0  0.9950492003862575  0.7723974690321431  0.40974342608611447  1.0000
  O   O6        1.0  0.9957270172516149  0.5571751449880349  0.6260740267546892  1.0000
  O   O7        1.0  0.9969000784764528  0.5685306220597575  0.20708191857767713  1.0000
  O   O8        1.0  0.9975778387483495  0.35330656646005587  0.4234125892348326  1.0000
