data_image0
_chemical_formula_structural       NC12NC2H8C9H10C6ClH5Zn2C4O8
_chemical_formula_sum              "N2 C33 H23 Cl1 Zn2 O8"
_cell_length_a       19.240039667572717
_cell_length_b       10.297183801781406
_cell_length_c       10.302974078461048
_cell_angle_alpha    85.53397833117516
_cell_angle_beta     89.99986526728996
_cell_angle_gamma    89.99762600624447

_space_group_name_H-M_alt    "P 1"
_space_group_IT_number       1

loop_
  _space_group_symop_operation_xyz
  'x, y, z'

loop_
  _atom_site_type_symbol
  _atom_site_label
  _atom_site_symmetry_multiplicity
  _atom_site_fract_x
  _atom_site_fract_y
  _atom_site_fract_z
  _atom_site_occupancy
  N   N1        1.0  0.654447397665401  0.4216836760648797  0.5673162805032237  1.0000
  C   C1        1.0  0.5942990288463601  0.4216837600703172  0.5673161985574497  1.0000
  C   C2        1.0  0.5194809917027677  0.4216838773900072  0.5673160612480281  1.0000
  C   C3        1.0  0.48300857810756587  0.3571996122697204  0.6707213581673577  1.0000
  C   C4        1.0  0.4103378323580785  0.3570886992507037  0.6708079191720022  1.0000
  C   C5        1.0  0.37314875676366865  0.4216839699831749  0.5673158336022694  1.0000
  C   C6        1.0  0.41033535955208167  0.4862794277522556  0.4638239424285291  1.0000
  C   C7        1.0  0.4830060503713867  0.48616827916691663  0.46391062599388855  1.0000
  C   C8        1.0  0.29594366632590574  0.4216838913009986  0.5673157382520477  1.0000
  C   C9        1.0  0.2587583169544825  0.30839111209155834  0.6092208726684301  1.0000
  C   C10       1.0  0.186087626313775  0.3084980430265294  0.6091295319643477  1.0000
  C   C11       1.0  0.14961137940549737  0.4216837620914984  0.5673157991971984  1.0000
  C   C12       1.0  0.074793342252756  0.4216836483144375  0.5673160478239232  1.0000
  N   N2        1.0  0.014645025401300993  0.42168360747741596  0.5673162561914593  1.0000
  C   C13       1.0  0.1860826433522171  0.5348695570057569  0.5255020135245194  1.0000
  C   C14       1.0  0.2587533373097332  0.5349766681135291  0.5254105102030444  1.0000
  H   H1        1.0  0.5107244499210066  0.3072744847696063  0.7514570963476686  1.0000
  H   H2        1.0  0.3832455123455868  0.3079618679413762  0.752658453334176  1.0000
  H   H3        1.0  0.3832411487759088  0.535406286122071  0.38197335742327776  1.0000
  H   H4        1.0  0.510719950022906  0.5360933063737643  0.383175163560157  1.0000
  H   H5        1.0  0.2858535300873471  0.2192105481369722  0.6404161507220929  1.0000
  H   H6        1.0  0.1583747010495953  0.22021689926282173  0.6413570502533892  1.0000
  H   H7        1.0  0.15836574516913274  0.6231506762256174  0.49327450979154164  1.0000
  H   H8        1.0  0.2858446029923785  0.624157311267266  0.4942151873589571  1.0000
  C   C15       1.0  0.8345519817062012  0.04020809461380149  0.5675002048556745  1.0000
  C   C16       1.0  0.8325258312072774  0.05006808348699465  0.4308847240970819  1.0000
  C   C17       1.0  0.8314876142915693  0.9385031567309976  0.3608926182450847  1.0000
  C   C18       1.0  0.8325176889064012  0.8148969906775378  0.4303552227229235  1.0000
  C   C19       1.0  0.8345471270979699  0.8031492212091873  0.5671435021009057  1.0000
  C   C20       1.0  0.8355503659501315  0.9162809015662708  0.6348230705424369  1.0000
  C   C21       1.0  0.8292959971569225  0.9585996257349222  0.2131333291792059  1.0000
  C   C22       1.0  0.7885987085346728  0.8598827187735752  0.1408629486722306  1.0000
  C   C23       1.0  0.8677809927120095  0.8601909223454575  0.1367387142520038  1.0000
  H   H9        1.0  0.8353393220399781  0.36394717862802856  0.6201425315553815  1.0000
  H   H10       1.0  0.8317437712802341  0.14529694852522093  0.3781436112331016  1.0000
  H   H11       1.0  0.8317556604552554  0.7272972874651776  0.37907872035883194  1.0000
  H   H12       1.0  0.8371132352466556  0.907946270232446  0.7402247827749391  1.0000
  H   H13       1.0  0.8383709317598268  0.5737445426545211  0.8254980453862966  1.0000
  H   H14       1.0  0.8285922109759811  0.05931519207487846  0.16564089614748978  1.0000
  H   H15       1.0  0.7654060375036034  0.7762452102369551  0.19994485435447196  1.0000
  H   H16       1.0  0.7640784129287561  0.9007556960007235  0.049009277350944964  1.0000
  H   H17       1.0  0.8926873072142484  0.7767414306418737  0.19331604673215952  1.0000
  H   H18       1.0  0.889539257548781  0.9012416636692813  0.042473411554768026  1.0000
  C   C24       1.0  0.8345495545009434  0.4216786740105891  0.18607937361268423  1.0000
  C   C25       1.0  0.8224605453349695  0.28675547867375345  0.19537612125402218  1.0000
  C   C26       1.0  0.8164623443585532  0.2198102640533688  0.08303212267521642  1.0000
  C   C27       1.0  0.8224605764195402  0.28675555203837466  0.9602682222486125  1.0000
  C   C28       1.0  0.8345495527285283  0.42167860695496767  0.9485643927174525  1.0000
  C   C29       1.0  0.8405351412725709  0.4884825388303131  0.06212293992173446  1.0000
  Cl  Cl1       1.0  0.80136030223696  0.0512591399921245  0.09614951182203724  1.0000
  H   H19       1.0  0.839103676358792  0.4725019129219141  0.5098803883263088  1.0000
  H   H20       1.0  0.8176524735403193  0.23309337315699263  0.289598884604527  1.0000
  H   H21       1.0  0.8176525221084681  0.2330933546206009  0.8743979185392785  1.0000
  H   H22       1.0  0.8498585168097642  0.5925393567492512  0.0540246840721188  1.0000
  H   H23       1.0  0.8391035441047346  0.4725019014262324  0.6168527578503267  1.0000
  Zn  Zn1       1.0  0.7583926615264744  0.4216801880999914  0.5673237610522248  1.0000
  Zn  Zn2       1.0  0.910699780378726  0.4216764989994357  0.5673193759826609  1.0000
  C   C30       1.0  0.8345480259436715  0.41650351936717706  0.8044407899109628  1.0000
  C   C31       1.0  0.834546079140073  0.4268548067697371  0.3302024737339635  1.0000
  C   C32       1.0  0.8345444574815273  0.658937105013996  0.5620374919776434  1.0000
  C   C33       1.0  0.8345495956403979  0.18441966038529856  0.5726058416141044  1.0000
  O   O1        1.0  0.8923446706625772  0.42858489688814294  0.3785698412538794  1.0000
  O   O2        1.0  0.8923470134894458  0.4147696493103723  0.7560697209607539  1.0000
  O   O3        1.0  0.8923433527427305  0.6105378357301385  0.5603273422270125  1.0000
  O   O4        1.0  0.8923482794371321  0.2328167197624602  0.574312122642384  1.0000
  O   O5        1.0  0.7767441104931234  0.6105399673396401  0.5603310143871685  1.0000
  O   O6        1.0  0.7767477712267133  0.4147733416601662  0.7560733231687549  1.0000
  O   O7        1.0  0.7767454284463844  0.42858854396939  0.37857188259995156  1.0000
  O   O8        1.0  0.7767490372181548  0.2328203575522967  0.5743142613283603  1.0000
