data_image0
_chemical_formula_structural       NC8NH4C12H9C12H9Zn2C4O8
_chemical_formula_sum              "N2 C36 H22 Zn2 O8"
_cell_length_a       14.927258825633057
_cell_length_b       14.994056859933256
_cell_length_c       13.024585202197207
_cell_angle_alpha    85.82059027263038
_cell_angle_beta     93.99279185103242
_cell_angle_gamma    89.97996473582496

_space_group_name_H-M_alt    "P 1"
_space_group_IT_number       1

loop_
  _space_group_symop_operation_xyz
  'x, y, z'

loop_
  _atom_site_type_symbol
  _atom_site_label
  _atom_site_symmetry_multiplicity
  _atom_site_fract_x
  _atom_site_fract_y
  _atom_site_fract_z
  _atom_site_occupancy
  N   N1        1.0  0.7742754238097115  0.9722672496208855  0.8650984004693425  1.0000
  C   C1        1.0  0.6967489998862887  0.9722672332827292  0.8650984073557634  1.0000
  C   C2        1.0  0.6003163605298855  0.9722672332428187  0.8650984466830207  1.0000
  C   C3        1.0  0.5493895487475136  0.9174100993317761  0.8010094075703974  1.0000
  C   C4        1.0  0.45567823597532936  0.9174100436912848  0.8010093872299908  1.0000
  C   C5        1.0  0.41250035930088347  0.9722672658323512  0.8650983839925932  1.0000
  C   C6        1.0  0.4634271663970225  0.027124405850573737  0.9291873459471067  1.0000
  C   C7        1.0  0.5571385461610003  0.027124461489245848  0.9291873662917428  1.0000
  C   C8        1.0  0.3160677151943166  0.9722672053071667  0.8650983447490306  1.0000
  N   N2        1.0  0.23854129133482477  0.9722672555614648  0.8650983530481617  1.0000
  H   H1        1.0  0.582071104743925  0.8747280320502914  0.7511445517343392  1.0000
  H   H2        1.0  0.4169674530835988  0.874728017651783  0.7511446211510074  1.0000
  H   H3        1.0  0.43074561040061077  0.0698064731320589  0.9790522017831651  1.0000
  H   H4        1.0  0.5958492667471704  0.06980648142338676  0.979052209524607  1.0000
  C   C9        1.0  0.006492432284818771  0.7103029760282864  0.8650247630030077  1.0000
  C   C10       1.0  0.04319534939736272  0.6677311277980742  0.7848302228858669  1.0000
  C   C11       1.0  0.04319001170822557  0.5745066264110896  0.7848876700147067  1.0000
  C   C12       1.0  0.006426013248152618  0.5218029708430812  0.8650677788612455  1.0000
  C   C13       1.0  0.9697049906895818  0.5644778418271575  0.9452063059806557  1.0000
  C   C14       1.0  0.9697774905201337  0.6577029818243144  0.9451947080889473  1.0000
  C   C15       1.0  0.006380546964349645  0.42272632150837075  0.8651123685878512  1.0000
  C   C16       1.0  0.9312742320270214  0.37323382843878233  0.8947797559646578  1.0000
  C   C17       1.0  0.9312234587331101  0.28001312895799635  0.894777383141149  1.0000
  C   C18       1.0  0.006333432279678863  0.2342246939188491  0.865180933377556  1.0000
  C   C19       1.0  0.08142374378437256  0.2836107523800487  0.8355671658245352  1.0000
  C   C20       1.0  0.08144446879685409  0.3768402269395093  0.8354873345531086  1.0000
  H   H5        1.0  0.9693841430428343  0.9180221605983921  0.9460128967582482  1.0000
  H   H6        1.0  0.07176817435154528  0.7064443034347916  0.7217813291882378  1.0000
  H   H7        1.0  0.07091246645965943  0.5436850988060621  0.7213708850752938  1.0000
  H   H8        1.0  0.9419523733016265  0.5256995187776307  0.008751909697783385  1.0000
  H   H9        1.0  0.9412314998303851  0.6884906507711261  0.008223425406338134  1.0000
  H   H10       1.0  0.8719812554193155  0.4066994054408355  0.9167049397084228  1.0000
  H   H11       1.0  0.8722133110166959  0.24384907786264112  0.917727780977007  1.0000
  H   H12       1.0  0.14041231652908648  0.2502734573855028  0.8126441217903742  1.0000
  H   H13       1.0  0.14076687245195263  0.412974519518282  0.8135322503630846  1.0000
  C   C21       1.0  0.9880511935914144  0.9711931696461227  0.5628836362862595  1.0000
  C   C22       1.0  0.9682251235930979  0.04247832518875482  0.48847509244163234  1.0000
  C   C23       1.0  0.9988332585503091  0.04111253956299679  0.38959458470347474  1.0000
  C   C24       1.0  0.0491942037126143  0.9682225059853384  0.3631256165892609  1.0000
  C   C25       1.0  0.06987108831534616  0.8974449285351616  0.43746112570690254  1.0000
  C   C26       1.0  0.039308075700204  0.8987358503232423  0.5363848748179212  1.0000
  C   C27       1.0  0.08288397560765293  0.9673991843784877  0.25892529844764  1.0000
  C   C28       1.0  0.17631523717122644  0.9644907825499937  0.25124221545063885  1.0000
  C   C29       1.0  0.2123256727388394  0.9692212842600053  0.1550192950836411  1.0000
  C   C30       1.0  0.1556615770512435  0.9771052524238228  0.06517306081166985  1.0000
  C   C31       1.0  0.0626908584501229  0.9791795781107292  0.07111327020545355  1.0000
  C   C32       1.0  0.024774620995992477  0.9733344788736523  0.16732200748990267  1.0000
  H   H14       1.0  0.9540885303656289  0.9015374645465819  0.8128053000905826  1.0000
  H   H15       1.0  0.9292254913385953  0.09942439186067145  0.5066748521364408  1.0000
  H   H16       1.0  0.9833941494688343  0.09695908807408116  0.3336138196280245  1.0000
  H   H17       1.0  0.1092461679930421  0.8409598019991963  0.41858014203050975  1.0000
  H   H18       1.0  0.05590515018113651  0.8429840278118008  0.5920475216275445  1.0000
  H   H19       1.0  0.22157415546948722  0.9601378175990188  0.3201877656397889  1.0000
  H   H20       1.0  0.28438704210468746  0.9674516618410016  0.15013756717753846  1.0000
  H   H21       1.0  0.18380480644147212  0.9810390791383207  0.9906072858568674  1.0000
  H   H22       1.0  0.8042220582424043  0.0044249750723219785  0.08279675684138299  1.0000
  Zn  Zn1       1.0  0.9082528952796767  0.972264877287317  0.8651043352776264  1.0000
  Zn  Zn2       1.0  0.10456434863052476  0.9722623343894601  0.8651008670103981  1.0000
  C   C33       1.0  0.01783221434018368  0.9693758940702301  0.05306917913394682  1.0000
  C   C34       1.0  0.9949871790804768  0.9751524435128663  0.6771361244635983  1.0000
  C   C35       1.0  0.006109695276558473  0.1351777857278419  0.8610502859593947  1.0000
  C   C36       1.0  0.0067096348156436844  0.8093494802706159  0.8691550721886709  1.0000
  O   O1        1.0  0.07181413381372681  0.976476355147484  0.7154789858560238  1.0000
  O   O2        1.0  0.09000109256712419  0.9680493784090074  0.014723388948743255  1.0000
  O   O3        1.0  0.08053407090391396  0.10193650657769228  0.8596667744389606  1.0000
  O   O4        1.0  0.08128108379891086  0.8425892330878002  0.870535523203467  1.0000
  O   O5        1.0  0.9315360931194969  0.10193797859079679  0.8596696790803282  1.0000
  O   O6        1.0  0.9410031111193717  0.9680519220085705  0.014726239035360416  1.0000
  O   O7        1.0  0.9228160772583867  0.9764788632770287  0.7154805985874608  1.0000
  O   O8        1.0  0.9322830319298028  0.8425917351101633  0.8705372130930138  1.0000
