data_image0
_chemical_formula_structural       NC12NC2H8C7OC3OC4H12C6SCOC6H10Zn2C4O8
_chemical_formula_sum              "N2 C45 H30 O11 S1 Zn2"
_cell_length_a       19.240039667572717
_cell_length_b       10.299371110280156
_cell_length_c       10.302041481415108
_cell_angle_alpha    85.5593769261431
_cell_angle_beta     89.99620935601246
_cell_angle_gamma    90.01145957794125

_space_group_name_H-M_alt    "P 1"
_space_group_IT_number       1

loop_
  _space_group_symop_operation_xyz
  'x, y, z'

loop_
  _atom_site_type_symbol
  _atom_site_label
  _atom_site_symmetry_multiplicity
  _atom_site_fract_x
  _atom_site_fract_y
  _atom_site_fract_z
  _atom_site_occupancy
  N   N1        1.0  0.6546800629764676  0.4217808353441481  0.5682624576003612  1.0000
  C   C1        1.0  0.594531694171082  0.42178091935440776  0.5682623757108118  1.0000
  C   C2        1.0  0.5197136570473422  0.42178103668858496  0.5682622384772429  1.0000
  C   C3        1.0  0.4832293760277506  0.3572793384629657  0.6716291033755744  1.0000
  C   C4        1.0  0.4105586129891592  0.35716842641101465  0.671715587621603  1.0000
  C   C5        1.0  0.3733814221279915  0.4217811293336241  0.5682620108774294  1.0000
  C   C6        1.0  0.41057990966715946  0.48639401917581804  0.4648086286984145  1.0000
  C   C7        1.0  0.4832505831627366  0.486282871580376  0.4648952353349793  1.0000
  C   C8        1.0  0.29617633168332563  0.42178105070527905  0.568261915454459  1.0000
  C   C9        1.0  0.2589749132802091  0.30850502858947904  0.6100832156114226  1.0000
  C   C10       1.0  0.18630423957767836  0.3086119612661846  0.6099919479895349  1.0000
  C   C11       1.0  0.149844044744141  0.42178092151043134  0.5682619763055332  1.0000
  C   C12       1.0  0.0750260075681969  0.42178080768017506  0.568262224872171  1.0000
  N   N2        1.0  0.014877690704338998  0.42178076678367193  0.5682624332320452  1.0000
  C   C13       1.0  0.1863313607772089  0.5349499576011729  0.5265319517692271  1.0000
  C   C14       1.0  0.2590020717017397  0.5350570704565691  0.5264405216520698  1.0000
  H   H1        1.0  0.5109360366610413  0.30734048431641364  0.7523351656714927  1.0000
  H   H2        1.0  0.3834571467909442  0.308027272324714  0.753537201195976  1.0000
  H   H3        1.0  0.3834948450819448  0.5355352003324487  0.38298696429622203  1.0000
  H   H4        1.0  0.5109736939720178  0.5362216253675873  0.3841894487392792  1.0000
  H   H5        1.0  0.2860575386373667  0.21933826254874877  0.6412122928842423  1.0000
  H   H6        1.0  0.1585788074197334  0.22034401963627895  0.6421540903541463  1.0000
  H   H7        1.0  0.1586269694842214  0.6232178746890054  0.49436982394315726  1.0000
  H   H8        1.0  0.2861059251718555  0.6242239156899894  0.4953113996456222  1.0000
  C   C15       1.0  0.8347353601527561  0.040409452898425124  0.5681476511269481  1.0000
  C   C16       1.0  0.8267321061381316  0.04974566001840896  0.432193719250616  1.0000
  C   C17       1.0  0.8219103980198919  0.9372676054255012  0.363790468671654  1.0000
  C   C18       1.0  0.8267665938039103  0.8144776675903473  0.432504733907108  1.0000
  C   C19       1.0  0.8348290726483582  0.8031421874523198  0.5683884481547489  1.0000
  C   C20       1.0  0.8385848331799632  0.9167054810197518  0.6354613009541444  1.0000
  C   C21       1.0  0.8141843480186945  0.9469980134278035  0.22007640066724665  1.0000
  O   O1        1.0  0.8426771644464627  0.8619822593809787  0.15606813025541122  1.0000
  C   C22       1.0  0.7741269004613814  0.053092691681793536  0.14898187181953393  1.0000
  C   C23       1.0  0.7935583955478513  0.09829843802561024  0.02186845949359406  1.0000
  C   C24       1.0  0.7559675048555987  0.19733667037445124  0.9525035724023233  1.0000
  O   O2        1.0  0.7781619364911265  0.23918939783280146  0.8264346306838855  1.0000
  C   C25       1.0  0.7450350107938037  0.3387037867175875  0.7450183167475521  1.0000
  C   C26       1.0  0.6976626956420685  0.2511744450056166  0.010978263434993083  1.0000
  C   C27       1.0  0.6775176985598229  0.20567940607739435  0.13657496470856323  1.0000
  C   C28       1.0  0.7152319553755104  0.10692274494446742  0.205187846607769  1.0000
  H   H9        1.0  0.8508989548132267  0.23013058597759575  0.824481834811055  1.0000
  H   H10       1.0  0.8250130008629791  0.1446991806322655  0.37917615973687696  1.0000
  H   H11       1.0  0.8235728828040496  0.7276362947773322  0.37979437250758963  1.0000
  H   H12       1.0  0.8447552029496381  0.9087041481878242  0.7402718207749956  1.0000
  H   H13       1.0  0.8385044340743071  0.4713403531879106  0.6204633724590487  1.0000
  H   H14       1.0  0.8384977298479445  0.0574187304705156  0.9765060113670238  1.0000
  H   H15       1.0  0.7733903677791684  0.35182873807197074  0.6511689459556909  1.0000
  H   H16       1.0  0.7460573210031817  0.43214355756972506  0.7920265970399711  1.0000
  H   H17       1.0  0.6905677268967149  0.31047757903064493  0.725258637694865  1.0000
  H   H18       1.0  0.6674750927293845  0.3276919977366264  0.9601014658106577  1.0000
  H   H19       1.0  0.6323157280562022  0.24672095814697428  0.1807159607676363  1.0000
  H   H20       1.0  0.6978905672851266  0.07173980024987016  0.3015444319807416  1.0000
  C   C29       1.0  0.8347952597633629  0.4219050848437289  0.18698105135469587  1.0000
  C   C30       1.0  0.8666734389811493  0.5450040941197427  0.17610693289656829  1.0000
  C   C31       1.0  0.8828441235938236  0.6057304931418839  0.05374078914696989  1.0000
  C   C32       1.0  0.8667393525597096  0.5446002296063679  0.9410013934626974  1.0000
  C   C33       1.0  0.834769186928379  0.42164652475188397  0.9495550606454319  1.0000
  C   C34       1.0  0.8190139094052193  0.36088157004146026  0.07311461868913671  1.0000
  S   S1        1.0  0.9241881280771926  0.7622641492548212  0.04126766368681145  1.0000
  C   C35       1.0  0.009796389850860393  0.6924630942322225  0.04381402699354319  1.0000
  O   O3        1.0  0.03699357456511531  0.6692902220698579  0.9367464418329603  1.0000
  C   C36       1.0  0.04810158936188236  0.6611202521284387  0.16732863509489546  1.0000
  C   C37       1.0  0.10974877221272682  0.5873965151826321  0.16749762455751124  1.0000
  C   C38       1.0  0.1459699482101724  0.5564996116639107  0.28343993934050915  1.0000
  C   C39       1.0  0.1212816454010277  0.5988473453155572  0.40039088344962565  1.0000
  C   C40       1.0  0.06038144351575347  0.6724122705734972  0.40160211052696515  1.0000
  C   C41       1.0  0.023952861157501275  0.703683310614287  0.2859593198697836  1.0000
  H   H21       1.0  0.7746063241647133  0.1899980926589762  0.41478526179488884  1.0000
  H   H22       1.0  0.8791649794381886  0.5939321085722584  0.2624367105161298  1.0000
  H   H23       1.0  0.879525443745709  0.593196712118347  0.8470453662296323  1.0000
  H   H24       1.0  0.794439718860239  0.26598078854342644  0.08057723414650497  1.0000
  H   H25       1.0  0.8228038911056493  0.37472966105027083  0.625480986803991  1.0000
  H   H26       1.0  0.1298209356917157  0.5529384429472983  0.07816809133495206  1.0000
  H   H27       1.0  0.19320768900758756  0.4995148488545551  0.28257492611172985  1.0000
  H   H28       1.0  0.14938376109452678  0.5747960481030174  0.4900453553113206  1.0000
  H   H29       1.0  0.04138833973084343  0.7054832980160397  0.4922852437675071  1.0000
  H   H30       1.0  0.9772426770376803  0.761610134866159  0.2900518889169248  1.0000
  Zn  Zn1       1.0  0.7586253261310715  0.42177734579643844  0.5682699362908451  1.0000
  Zn  Zn2       1.0  0.9109324446567458  0.4217736591908167  0.5682655478203691  1.0000
  C   C42       1.0  0.8347719109750618  0.4165217024657356  0.8054105857692042  1.0000
  C   C43       1.0  0.834787523198707  0.42703094106811545  0.3311250262504386  1.0000
  C   C44       1.0  0.8348079527256101  0.6589712100507004  0.5631688578001748  1.0000
  C   C45       1.0  0.8347514292823237  0.18457987314838387  0.5733668229521636  1.0000
  O   O4        1.0  0.8925846837661405  0.42874416041703084  0.37949939380667747  1.0000
  O   O5        1.0  0.8925723291142095  0.4148047054664097  0.7570325133904108  1.0000
  O   O6        1.0  0.8926006540690091  0.6105857485949104  0.5614206046037369  1.0000
  O   O7        1.0  0.8925563068437112  0.2329631266130765  0.5751112052440319  1.0000
  O   O8        1.0  0.777001411969162  0.6105878783768528  0.5614242788618511  1.0000
  O   O9        1.0  0.7769730872052527  0.41480839558579324  0.7570361189104983  1.0000
  O   O10       1.0  0.7769854419512663  0.42874780580941696  0.3795014382472108  1.0000
  O   O11       1.0  0.7769570650215226  0.23296676268359073  0.5751133470285532  1.0000
