data_image0
_chemical_formula_structural       NC6NC2H4C6ClH5C9H8Zn2C4O8
_chemical_formula_sum              "N2 C27 H17 Cl1 Zn2 O8"
_cell_length_a       14.927258858638513
_cell_length_b       10.302970706292308
_cell_length_c       9.275155815604963
_cell_angle_alpha    86.05280978821669
_cell_angle_beta     90.35750032956715
_cell_angle_gamma    89.9983139300619

_space_group_name_H-M_alt    "P 1"
_space_group_IT_number       1

loop_
  _space_group_symop_operation_xyz
  'x, y, z'

loop_
  _atom_site_type_symbol
  _atom_site_label
  _atom_site_symmetry_multiplicity
  _atom_site_fract_x
  _atom_site_fract_y
  _atom_site_fract_z
  _atom_site_occupancy
  N   N1        1.0  0.8373765660101748  0.40850718413274784  0.4102633529860562  1.0000
  C   C1        1.0  0.7598500748840676  0.40850715854857245  0.41026336357214954  1.0000
  C   C2        1.0  0.6634175671444263  0.40850726178093555  0.41026331372416824  1.0000
  C   C3        1.0  0.6158745922519016  0.38619720727030254  0.2836044659868988  1.0000
  C   C4        1.0  0.5221632803906137  0.3861972293148028  0.2836043325578621  1.0000
  C   C5        1.0  0.4756015032281717  0.4085071020832929  0.4102633323473066  1.0000
  C   C6        1.0  0.37916892849697104  0.40850720531827855  0.41026328249340227  1.0000
  N   N2        1.0  0.3016424373708643  0.40850717973410333  0.4102632930794956  1.0000
  C   C7        1.0  0.5231444111291368  0.43081715659654857  0.536922180078653  1.0000
  C   C8        1.0  0.6168557229904252  0.43081713455204834  0.5369223135076895  1.0000
  H   H1        1.0  0.651189073886806  0.3688387260070858  0.18505661314691624  1.0000
  H   H2        1.0  0.4860854183529778  0.3688389038049851  0.18505660821510594  1.0000
  H   H3        1.0  0.487829996901193  0.44817562940912453  0.6354701409803234  1.0000
  H   H4        1.0  0.6529335854505464  0.44817554853654484  0.6354701478567972  1.0000
  C   C9        1.0  0.06951380573824739  0.027259772446553306  0.41026955047475444  1.0000
  C   C10       1.0  0.16212505322177623  0.024331989059344306  0.43802955079167516  1.0000
  C   C11       1.0  0.20807628199920292  0.9059224563951298  0.45180322127837247  1.0000
  C   C12       1.0  0.16212505224371543  0.7892240198637729  0.4380294830098448  1.0000
  C   C13       1.0  0.069513815618651  0.789744714899072  0.41026963297801666  1.0000
  C   C14       1.0  0.023659629768478373  0.9093560042649266  0.3965249186448696  1.0000
  Cl  Cl1       1.0  0.3237697949072629  0.9037684735535108  0.48648197628097695  1.0000
  H   H5        1.0  0.034628767709781426  0.35566572923702355  0.39981203765785334  1.0000
  H   H6        1.0  0.19895879658398563  0.11369280200209153  0.44907025383091326  1.0000
  H   H7        1.0  0.19895876075536667  0.6984916083709458  0.44907015028296177  1.0000
  H   H8        1.0  0.9522350251161642  0.9106856721759433  0.3751155275401563  1.0000
  H   H9        1.0  0.03462876439633791  0.4626377646711138  0.3998123097670334  1.0000
  C   C15       1.0  0.06787243250916913  0.4052206189234097  0.9870383309941532  1.0000
  C   C16       1.0  0.9977915950735412  0.46848063188756267  0.054853209503540556  1.0000
  C   C17       1.0  0.9337111277484174  0.5403689861969532  0.9735684475729217  1.0000
  C   C18       1.0  0.9385231254530073  0.5505026810061824  0.8229866500669107  1.0000
  C   C19       1.0  0.006801221863337765  0.48654513150331113  0.7534634068897685  1.0000
  C   C20       1.0  0.07115518925988606  0.41178379238862767  0.8335007564997348  1.0000
  C   C21       1.0  0.8726318171523627  0.6254241620217136  0.7393892699947808  1.0000
  C   C22       1.0  0.817459716617837  0.6881606708513017  0.6693612308344639  1.0000
  C   C23       1.0  0.7505182935667563  0.7642808167826334  0.5843825691302151  1.0000
  H   H10       1.0  0.275805667910348  0.30047411065937224  0.0999961590816687  1.0000
  H   H11       1.0  0.9937668611620911  0.46488180197293366  0.17164474780359784  1.0000
  H   H12       1.0  0.8808460347591728  0.5891658272386642  0.028381483570200542  1.0000
  H   H13       1.0  0.00845643058338674  0.49265000614045945  0.6363171110791885  1.0000
  H   H14       1.0  0.2098963737333719  0.33659994851484343  0.5599183557002547  1.0000
  H   H15       1.0  0.7687224873949716  0.7680109887017457  0.468383579922567  1.0000
  H   H16       1.0  0.6837978158147234  0.7180495662928315  0.5994088537381681  1.0000
  H   H17       1.0  0.7482511163380476  0.8645284096888739  0.620887299778556  1.0000
  Zn  Zn1       1.0  0.9713537080669582  0.4085037686201265  0.4102716635315993  1.0000
  Zn  Zn2       1.0  0.16766535204712674  0.4085000527425262  0.4102668052027716  1.0000
  C   C24       1.0  0.07053269280348085  0.40537121341902943  0.6735012681888815  1.0000
  C   C25       1.0  0.06848851157632058  0.4116342470975274  0.14703734195076335  1.0000
  C   C26       1.0  0.0694869442897888  0.6455742692572248  0.4045263322390449  1.0000
  C   C27       1.0  0.06953419340050984  0.17142963205078687  0.4160123547410508  1.0000
  O   O1        1.0  0.14319451914273817  0.41377964520900523  0.20073262792612012  1.0000
  O   O2        1.0  0.1448226790667254  0.40322201241511424  0.6198018799717406  1.0000
  O   O3        1.0  0.1439772254431087  0.5971890294254858  0.4026027161748589  1.0000
  O   O4        1.0  0.1440399053593946  0.2198126366492741  0.41793168366131406  1.0000
  O   O5        1.0  0.9949790877631314  0.5971911847160015  0.4026067850671342  1.0000
  O   O6        1.0  0.9958245410846918  0.4032257269167976  0.6198058720176418  1.0000
  O   O7        1.0  0.9941963745001151  0.41378330103358296  0.20073488717861365  1.0000
  O   O8        1.0  0.9950417611321727  0.21981628402583375  0.4179340509695726  1.0000
