data_image0
_chemical_formula_structural       NC6NCNCH5C7NH5C7OH5Zn2C4O8
_chemical_formula_sum              "N4 C26 H15 O9 Zn2"
_cell_length_a       14.933214217465613
_cell_length_b       9.275154477615127
_cell_length_c       9.274074313596557
_cell_angle_alpha    86.3499061385644
_cell_angle_beta     90.19933690330467
_cell_angle_gamma    89.46799387830556

_space_group_name_H-M_alt    "P 1"
_space_group_IT_number       1

loop_
  _space_group_symop_operation_xyz
  'x, y, z'

loop_
  _atom_site_type_symbol
  _atom_site_label
  _atom_site_symmetry_multiplicity
  _atom_site_fract_x
  _atom_site_fract_y
  _atom_site_fract_z
  _atom_site_occupancy
  N   N1        1.0  0.8296244405196678  0.5632044066454225  0.4155499826376579  1.0000
  C   C1        1.0  0.7521256227000085  0.564191211558047  0.41456352765657223  1.0000
  C   C2        1.0  0.6557165122462465  0.565421503927964  0.4133335396887525  1.0000
  C   C3        1.0  0.6087144173272576  0.4706077174564651  0.5081331749382492  1.0000
  C   C4        1.0  0.515171694185668  0.4716798573429679  0.5070612248842286  1.0000
  C   C5        1.0  0.4677291831548353  0.5675114602134839  0.4112439621459314  1.0000
  C   C6        1.0  0.37117176292103443  0.5654236399400825  0.41333147760985467  1.0000
  N   N2        1.0  0.2937012257455255  0.5636819329109736  0.41507255353901296  1.0000
  C   C7        1.0  0.5148196609352552  0.6635224875219388  0.3152473940192422  1.0000
  N   N3        1.0  0.4686441254072856  0.7631283395686093  0.2156566824928486  1.0000
  C   C8        1.0  0.6088510384609417  0.6614937928180298  0.3172759033500385  1.0000
  H   H1        1.0  0.6443603306784977  0.39585342285249525  0.5828762689134931  1.0000
  H   H2        1.0  0.4797311475604152  0.39755440625663374  0.5811754402117135  1.0000
  H   H3        1.0  0.5043895621570514  0.8334795617622262  0.14531591928249998  1.0000
  H   H4        1.0  0.3988566850774393  0.7684282209507567  0.21035766422487523  1.0000
  H   H5        1.0  0.6454224894526861  0.7348734183110339  0.24390723645156998  1.0000
  C   C9        1.0  0.06425427699607766  0.14004015784303103  0.4136407432989438  1.0000
  C   C10       1.0  0.03936034719183579  0.2219468010671737  0.28658505226232106  1.0000
  C   C11       1.0  0.007199362628443227  0.15469450379799676  0.16626852266468717  1.0000
  C   C12       1.0  0.9994041581386788  0.004618098513615721  0.17159084974950511  1.0000
  C   C13       1.0  0.025120873708590855  0.9214762063776121  0.29574897738022166  1.0000
  C   C14       1.0  0.05908005243660885  0.9868352023551367  0.4169942827472927  1.0000
  C   C15       1.0  0.9811102981633666  0.24016670212360916  0.037682400010156984  1.0000
  N   N4        1.0  0.9601419202319583  0.3088707741974248  0.9343320938720883  1.0000
  H   H6        1.0  0.08249219568746669  0.22020113062614355  0.7674143682809729  1.0000
  H   H7        1.0  0.043006814106790525  0.338867994568918  0.2823047167072067  1.0000
  H   H8        1.0  0.9742092766744826  0.9515580947378695  0.07912053111030405  1.0000
  H   H9        1.0  0.02041835653521874  0.8050025273633624  0.2956269705631416  1.0000
  H   H10       1.0  0.07515725597047984  0.690407268248304  0.65402870650984  1.0000
  C   C16       1.0  0.060620345612652386  0.5592839083030741  0.9920609714381029  1.0000
  C   C17       1.0  0.982282862272958  0.6017704645805033  0.06219871594943328  1.0000
  C   C18       1.0  0.9082841770538934  0.6558489393096911  0.983306728273903  1.0000
  C   C19       1.0  0.910890947868925  0.6688795147631266  0.8320755561481447  1.0000
  C   C20       1.0  0.9880299987184621  0.6246509989003532  0.7607922758437646  1.0000
  C   C21       1.0  0.06271394872979341  0.5675913836753359  0.838574062215248  1.0000
  C   C22       1.0  0.8335081757705116  0.7269195349101025  0.7469942515124439  1.0000
  O   O1        1.0  0.7630908156035094  0.7670201468124396  0.807931806964945  1.0000
  H   H11       1.0  0.2796424113170008  0.5227748066187923  0.09847899090518619  1.0000
  H   H12       1.0  0.8493276804076558  0.6887951003541888  0.040899535083815046  1.0000
  H   H13       1.0  0.9890249400916903  0.6316393520749654  0.643662216641582  1.0000
  H   H14       1.0  0.20997002695743697  0.5377754227427163  0.5608382678589114  1.0000
  H   H15       1.0  0.8366344962826797  0.7356745206346262  0.6301561218387063  1.0000
  Zn  Zn1       1.0  0.9635470209785392  0.5633384234069638  0.41542052363824356  1.0000
  Zn  Zn2       1.0  0.15977873217417504  0.5635362039162166  0.41521380196400887  1.0000
  C   C23       1.0  0.06235133580215883  0.5602772098255557  0.6785421748577853  1.0000
  C   C24       1.0  0.06097654942847555  0.5665992402724609  0.15209229715832517  1.0000
  C   C25       1.0  0.06003927253708999  0.8267165229147433  0.4106167755699608  1.0000
  C   C26       1.0  0.06328855650828435  0.3001581955921928  0.4200177664999323  1.0000
  O   O2        1.0  0.13556504484714016  0.5691230989659768  0.2057217972655725  1.0000
  O   O3        1.0  0.13669817430838194  0.5579023701837802  0.6247553585680836  1.0000
  O   O4        1.0  0.13483015381190813  0.773055498784466  0.4084037100211968  1.0000
  O   O5        1.0  0.13743299805271744  0.3539699795514074  0.4220733378540438  1.0000
  O   O6        1.0  0.9858926881357164  0.772904647705775  0.4085609878111771  1.0000
  O   O7        1.0  0.9877606978531691  0.5577532506301721  0.6249125663672503  1.0000
  O   O8        1.0  0.9866275644726167  0.568973912162068  0.2058772719687727  1.0000
  O   O9        1.0  0.9884955180048103  0.3538207834953846  0.42222892057862854  1.0000
