data_image0
_chemical_formula_structural       NC12NC2H8C12NCOCH13C12ClH9Zn2C4O8
_chemical_formula_sum              "N3 C44 H30 O9 Cl1 Zn2"
_cell_length_a       19.240039667572717
_cell_length_b       10.299155265289647
_cell_length_c       10.299771906710086
_cell_angle_alpha    85.5278422735101
_cell_angle_beta     90.00915032277288
_cell_angle_gamma    89.9765233896273

_space_group_name_H-M_alt    "P 1"
_space_group_IT_number       1

loop_
  _space_group_symop_operation_xyz
  'x, y, z'

loop_
  _atom_site_type_symbol
  _atom_site_label
  _atom_site_symmetry_multiplicity
  _atom_site_fract_x
  _atom_site_fract_y
  _atom_site_fract_z
  _atom_site_occupancy
  N   N1        1.0  0.6540427649979534  0.4217921495662995  0.5670831466991435  1.0000
  C   C1        1.0  0.5938943961552386  0.42179223357739115  0.5670830647404954  1.0000
  C   C2        1.0  0.5190763589765983  0.42179235091135303  0.567082927405488  1.0000
  C   C3        1.0  0.4826256352601117  0.3572924519345473  0.6705115784171025  1.0000
  C   C4        1.0  0.4099549188888235  0.35718153748263815  0.6705981492245073  1.0000
  C   C5        1.0  0.37274412399947954  0.4217924435490446  0.5670826996998635  1.0000
  C   C6        1.0  0.4099090074729754  0.4864035365595676  0.46356744466789124  1.0000
  C   C7        1.0  0.48257972772755336  0.4862923865553812  0.46365413803644717  1.0000
  C   C8        1.0  0.29553903356894445  0.42179236490956246  0.5670826043044563  1.0000
  C   C9        1.0  0.25837965340796715  0.30851109194687587  0.6089822809422377  1.0000
  C   C10       1.0  0.1857089337588485  0.30861802646266634  0.6088909281638635  1.0000
  C   C11       1.0  0.14920674667929598  0.42179223570951735  0.5670826652477571  1.0000
  C   C12       1.0  0.07438870957057159  0.42179212188641924  0.5670829139376999  1.0000
  N   N2        1.0  0.014240392745260802  0.42179208099965476  0.5670831223675501  1.0000
  C   C13       1.0  0.1856520704351962  0.5349665208048837  0.5252743494215094  1.0000
  C   C14       1.0  0.25832273533466676  0.535073635501939  0.5251828340025004  1.0000
  H   H1        1.0  0.5103583586527403  0.30735503155687716  0.7512656230573738  1.0000
  H   H2        1.0  0.38287938992301795  0.30804193902960675  0.7524674973122076  1.0000
  H   H3        1.0  0.3827980056403672  0.5355431620817248  0.38169804572483534  1.0000
  H   H4        1.0  0.5102767758435995  0.5362297065834258  0.38290036921730164  1.0000
  H   H5        1.0  0.28549515315029234  0.21934008480210898  0.6401726670438769  1.0000
  H   H6        1.0  0.1580162074706762  0.22034596756251124  0.6411140518199863  1.0000
  H   H7        1.0  0.15791497328220638  0.6232385551621575  0.49305124032209097  1.0000
  H   H8        1.0  0.2853937143883516  0.6242447218421341  0.49399240310909737  1.0000
  C   C15       1.0  0.8342225539994084  0.040394605514799904  0.5672018227871238  1.0000
  C   C16       1.0  0.8223383590145176  0.050145018591105865  0.4322771771530735  1.0000
  C   C17       1.0  0.8162454988641317  0.9379510441337519  0.3637498161116677  1.0000
  C   C18       1.0  0.8221721489033228  0.8148853638283532  0.4319693935952573  1.0000
  C   C19       1.0  0.8340673039883558  0.803179686509012  0.5669756294674158  1.0000
  C   C20       1.0  0.8400223676313527  0.9164518546710525  0.6337606892426934  1.0000
  C   C21       1.0  0.8036743135456852  0.9492394731414209  0.22101583309469228  1.0000
  C   C22       1.0  0.8389150215803935  0.04338073872296677  0.1395985556696677  1.0000
  C   C23       1.0  0.8270904268053438  0.05387301690815315  0.005276366569886944  1.0000
  C   C24       1.0  0.780220837929244  0.9695514880163169  0.949526035941723  1.0000
  C   C25       1.0  0.7441311552988296  0.8772265335293478  0.030875154326015057  1.0000
  C   C26       1.0  0.7559810607242909  0.866478249842555  0.16516000810518694  1.0000
  N   N3        1.0  0.7661593054648962  0.979843780660962  0.8119655319935902  1.0000
  C   C27       1.0  0.8168993608970024  0.016816909224958584  0.7137481881130631  1.0000
  O   O1        1.0  0.8806625159026051  0.01934082764929368  0.7416064821974659  1.0000
  C   C28       1.0  0.7947146858023774  0.04331531056097381  0.5752088567380946  1.0000
  H   H9        1.0  0.8388152967142308  0.36412036858319907  0.6190939185532559  1.0000
  H   H10       1.0  0.8168349684356143  0.1452094286373633  0.38046774746843226  1.0000
  H   H11       1.0  0.8184288340612254  0.7281059003487005  0.3793411558121065  1.0000
  H   H12       1.0  0.8491912352865456  0.9082162923677132  0.7378304425679472  1.0000
  H   H13       1.0  0.8569349533485303  0.5738025644716374  0.8216620197095594  1.0000
  H   H14       1.0  0.8760316437680526  0.10841415429678913  0.17969070869694748  1.0000
  H   H15       1.0  0.8537485815926379  0.12935085743807595  0.9456961663631196  1.0000
  H   H16       1.0  0.7069477578599577  0.812897491457482  0.9899159688461577  1.0000
  H   H17       1.0  0.727089673716648  0.7946164472783108  0.22557315277369705  1.0000
  H   H18       1.0  0.7172038787117025  0.950986791706132  0.780892221224569  1.0000
  H   H19       1.0  0.7445438093761995  0.09676264616521868  0.57075524302121  1.0000
  H   H20       1.0  0.7882793429082573  0.949722535511542  0.5299849703271282  1.0000
  H   H21       1.0  0.8342761285831856  0.10342722553813566  0.5198137828338399  1.0000
  C   C29       1.0  0.8341118151426017  0.4218934539615531  0.18571943463354756  1.0000
  C   C30       1.0  0.8971387019721478  0.49078168677528605  0.1793713064783135  1.0000
  C   C31       1.0  0.9291088527238052  0.5255797463908556  0.05902435349307255  1.0000
  C   C32       1.0  0.8972057907839832  0.4905665080417043  0.9441015939968088  1.0000
  C   C33       1.0  0.8341780098146353  0.42168083531488654  0.9484580654324318  1.0000
  C   C34       1.0  0.8029842948122161  0.38772923758394173  0.069734894978974  1.0000
  C   C35       1.0  0.9957865054093841  0.5984563565315257  0.053362311114579994  1.0000
  C   C36       1.0  0.006750193679832203  0.7014694028230926  0.13313386643222858  1.0000
  C   C37       1.0  0.06954010025550961  0.769961986552296  0.12761727954729293  1.0000
  C   C38       1.0  0.12207874814714392  0.7364885965036957  0.04263912945308989  1.0000
  C   C39       1.0  0.11177840155468988  0.6343350830244507  0.9629961143356294  1.0000
  C   C40       1.0  0.04905083289029655  0.5656421620535148  0.9681371293820387  1.0000
  Cl  Cl1       1.0  0.20081648043754097  0.8225454407882467  0.035953994479925415  1.0000
  H   H22       1.0  0.8100770668548268  0.3957008975869707  0.5155873106434697  1.0000
  H   H23       1.0  0.9220002753922383  0.51598313361309  0.26834463488728044  1.0000
  H   H24       1.0  0.9211512424963711  0.5187097594371634  0.8509836790147828  1.0000
  H   H25       1.0  0.7543615302146969  0.33458625699383804  0.07386398081289823  1.0000
  H   H26       1.0  0.8101747809182834  0.3953863017425961  0.6226682191387662  1.0000
  H   H27       1.0  0.9664524032062443  0.7301247429171924  0.19849931376927252  1.0000
  H   H28       1.0  0.07720901728547691  0.8492420368060761  0.1892273883220872  1.0000
  H   H29       1.0  0.15239293116843886  0.6078270549824971  0.8972864551436968  1.0000
  H   H30       1.0  0.04253562412067445  0.4858217921806295  0.9067467156695923  1.0000
  Zn  Zn1       1.0  0.7579880301961378  0.4217886602295013  0.5670906291391242  1.0000
  Zn  Zn2       1.0  0.910295149394701  0.4217849731068583  0.567086241979448  1.0000
  C   C41       1.0  0.8341650068412314  0.41654693263201636  0.8042856399270732  1.0000
  C   C42       1.0  0.8341198356160919  0.42702833937101214  0.32989135812425885  1.0000
  C   C43       1.0  0.8340926036445667  0.6589984842998613  0.5618432206776869  1.0000
  C   C44       1.0  0.8341921871646335  0.18457522726552877  0.5723338470765302  1.0000
  O   O2        1.0  0.8919222864943087  0.4287445884120434  0.37827510945039905  1.0000
  O   O3        1.0  0.8919601354548776  0.41482690545846584  0.7558981852923625  1.0000
  O   O4        1.0  0.8919008899067334  0.6106095992909915  0.5601242160501572  1.0000
  O   O5        1.0  0.8919814800600071  0.2329619038988424  0.5740489813165812  1.0000
  O   O6        1.0  0.7763016475558858  0.6106117294401912  0.5601278897966567  1.0000
  O   O7        1.0  0.7763608927772074  0.41483059604797756  0.7559017893306428  1.0000
  O   O8        1.0  0.776323043736551  0.42874823417751085  0.37827715209983737  1.0000
  O   O9        1.0  0.7763822373097494  0.23296554034765868  0.5740511213367094  1.0000
