data_image0
_chemical_formula_structural       NC8NH4C12H10C7NC4H9Zn2C4O8
_chemical_formula_sum              "N3 C35 H23 Zn2 O8"
_cell_length_a       13.859017981522156
_cell_length_b       14.994056859933258
_cell_length_c       12.588827829612491
_cell_angle_alpha    92.4324788511145
_cell_angle_beta     91.15412864820333
_cell_angle_gamma    89.97999317567633

_space_group_name_H-M_alt    "P 1"
_space_group_IT_number       1

loop_
  _space_group_symop_operation_xyz
  'x, y, z'

loop_
  _atom_site_type_symbol
  _atom_site_label
  _atom_site_symmetry_multiplicity
  _atom_site_fract_x
  _atom_site_fract_y
  _atom_site_fract_z
  _atom_site_occupancy
  N   N1        1.0  0.8868680577448589  0.8587297834728654  0.8305053650826782  1.0000
  C   C1        1.0  0.8136914704697449  0.8498460805325222  0.7853936610130081  1.0000
  C   C2        1.0  0.7226641775610052  0.8387961435731733  0.7292805712119654  1.0000
  C   C3        1.0  0.720487852953713  0.8172479540966624  0.6198572932039672  1.0000
  C   C4        1.0  0.6320622662209744  0.8065175700570084  0.5653642716440976  1.0000
  C   C5        1.0  0.5456225732694963  0.8172490012116644  0.6198571108649111  1.0000
  C   C6        1.0  0.547433937977945  0.8387967320616397  0.7292804361855356  1.0000
  C   C7        1.0  0.6360459017381246  0.8495687992058457  0.7839838737131849  1.0000
  C   C8        1.0  0.458451650264454  0.8498466218310301  0.7853934843047172  1.0000
  N   N2        1.0  0.3869191407495343  0.8587299704767245  0.8305052962778168  1.0000
  H   H1        1.0  0.7869987680873337  0.8087687698837432  0.5768003875176773  1.0000
  H   H2        1.0  0.6305220568128446  0.7898726810292137  0.4808394977569218  1.0000
  H   H3        1.0  0.47754249200422777  0.8087706551417674  0.5768000791598449  1.0000
  H   H4        1.0  0.6375892346208747  0.8662473890043628  0.8686804920230968  1.0000
  C   C9        1.0  0.13698758044184856  0.5967582568778358  0.830429457429797  1.0000
  C   C10       1.0  0.18025841142823396  0.5461636030519763  0.7477905024767196  1.0000
  C   C11       1.0  0.18024998397479133  0.4529448487890461  0.7478497006528039  1.0000
  C   C12       1.0  0.13691403636951338  0.4082625550533146  0.830473784462284  1.0000
  C   C13       1.0  0.09362631586228454  0.45895462797086073  0.9130550190867432  1.0000
  C   C14       1.0  0.0937049446404377  0.5521786077270734  0.9130430676715471  1.0000
  C   C15       1.0  0.1368629866916624  0.3091903665425257  0.8305197333339258  1.0000
  C   C16       1.0  0.054584370065349004  0.2626658219420941  0.8610914210108869  1.0000
  C   C17       1.0  0.054529793838403756  0.16944488505436678  0.861088975866922  1.0000
  C   C18       1.0  0.13680904377361425  0.12069559828980155  0.8305903880530479  1.0000
  C   C19       1.0  0.21906792353621496  0.1671190725093507  0.800073954588161  1.0000
  C   C20       1.0  0.21909396796328817  0.2603405605975156  0.7999916899764605  1.0000
  H   H5        1.0  0.09324313212776869  0.812579639553521  0.9138861956033726  1.0000
  H   H6        1.0  0.21397311372181546  0.578569254167164  0.6828198115044528  1.0000
  H   H7        1.0  0.21307058463526027  0.4157689874618039  0.6823968567338439  1.0000
  H   H8        1.0  0.06077188404694378  0.42653352171742837  0.9785375602122733  1.0000
  H   H9        1.0  0.060020085649811886  0.5892717827227846  0.9779929672641133  1.0000
  H   H10       1.0  0.9896989322591037  0.2983248094937914  0.8836849131026159  1.0000
  H   H11       1.0  0.9899011868797016  0.1355768091334793  0.884738931583112  1.0000
  H   H12       1.0  0.28367201723558333  0.1314885388592697  0.7764521864476226  1.0000
  H   H13       1.0  0.2840124950670222  0.2942784513401014  0.7773673860393459  1.0000
  H   H14       1.0  0.21991128795183856  0.906736048207917  0.7997410729535109  1.0000
  C   C21       1.0  0.13121154099626062  0.8274216335595264  0.5190787652764959  1.0000
  C   C22       1.0  0.16464702338630288  0.7391233660309787  0.5071901436263386  1.0000
  C   C23       1.0  0.20276377459710943  0.7075806121623494  0.4108234826482613  1.0000
  C   C24       1.0  0.20753134523843597  0.7634568240817696  0.32517388355929877  1.0000
  C   C25       1.0  0.17303108945110424  0.8513948415356477  0.3348973996282578  1.0000
  C   C26       1.0  0.13624127829629717  0.8833886561879656  0.4323844016136173  1.0000
  C   C27       1.0  0.1802378168535168  0.9118383284420266  0.24561608500354043  1.0000
  N   N3        1.0  0.22831336465456853  0.9903790657026968  0.26420426423806975  1.0000
  C   C28       1.0  0.2435251457655352  0.04863418838600617  0.1866149076877477  1.0000
  C   C29       1.0  0.21036906172843772  0.028653432505289175  0.08324876107745215  1.0000
  C   C30       1.0  0.15998435669837927  0.9493877329041769  0.06104124324795235  1.0000
  C   C31       1.0  0.14258508160928418  0.8900321755729083  0.14194106160365516  1.0000
  H   H15       1.0  0.059871745420371644  0.8271263922470321  0.7773523974773611  1.0000
  H   H16       1.0  0.1617965531705321  0.6944736417659376  0.5724298379426029  1.0000
  H   H17       1.0  0.22903466005600168  0.6396954744651745  0.40264685633702557  1.0000
  H   H18       1.0  0.23839600699979635  0.7383235124609122  0.25142228991110493  1.0000
  H   H19       1.0  0.11099154899464891  0.951725807796609  0.4400960889918377  1.0000
  H   H20       1.0  0.2821459554042738  0.11020202910258668  0.20515778445164345  1.0000
  H   H21       1.0  0.22275767757325693  0.07465884908043319  0.02096309453529344  1.0000
  H   H22       1.0  0.1326786153934365  0.9354970288900679  0.9808291091458186  1.0000
  H   H23       1.0  0.03448371868639931  0.7208713385552946  0.9930164385591888  1.0000
  Zn  Zn1       1.0  0.031172117185560795  0.8587280705484154  0.8305114659957841  1.0000
  Zn  Zn2       1.0  0.24261524493914552  0.8587252769146224  0.8305078703350333  1.0000
  C   C32       1.0  0.1404342853979399  0.8746435232539759  0.024205656515093106  1.0000
  C   C33       1.0  0.13335538719626247  0.8428109602516443  0.6368137842130237  1.0000
  C   C34       1.0  0.1367606432350832  0.021235451687691587  0.8263338343438333  1.0000
  C   C35       1.0  0.13702895860606712  0.6962179656906031  0.8346856625975666  1.0000
  O   O1        1.0  0.2143164479289501  0.8479708067602597  0.6763253663610111  1.0000
  O   O2        1.0  0.21995366082404377  0.8694808527576974  0.9846910398492477  1.0000
  O   O3        1.0  0.21698608675944908  0.9878557997383487  0.824908143773258  1.0000
  O   O4        1.0  0.21728394838815615  0.7295958581690972  0.8361081829226829  1.0000
  O   O5        1.0  0.05650334158128567  0.9878574892953041  0.8249111534037831  1.0000
  O   O6        1.0  0.059470914243668016  0.8694836084433423  0.9846939932621388  1.0000
  O   O7        1.0  0.05383367814059281  0.8479734031883408  0.6763270447028915  1.0000
  O   O8        1.0  0.056801180049923516  0.7295984562090535  0.8361099407745305  1.0000
