data_image0
_chemical_formula_structural       NC6NC3H6C6ClH5C6NH7Zn2C4O8
_chemical_formula_sum              "N3 C25 H18 Cl1 Zn2 O8"
_cell_length_a       14.934028789175542
_cell_length_b       10.30297070629231
_cell_length_c       9.274774538082514
_cell_angle_alpha    85.06361778746081
_cell_angle_beta     90.32448570792074
_cell_angle_gamma    89.96080423122717

_space_group_name_H-M_alt    "P 1"
_space_group_IT_number       1

loop_
  _space_group_symop_operation_xyz
  'x, y, z'

loop_
  _atom_site_type_symbol
  _atom_site_label
  _atom_site_symmetry_multiplicity
  _atom_site_fract_x
  _atom_site_fract_y
  _atom_site_fract_z
  _atom_site_occupancy
  N   N1        1.0  0.837121668166374  0.43255201299942514  0.40754538060973533  1.0000
  C   C1        1.0  0.7596330399175852  0.43156873301474535  0.40686571224541135  1.0000
  C   C2        1.0  0.6632332699339615  0.43034101024004245  0.40601727271525534  1.0000
  C   C3        1.0  0.6157220814144891  0.5259577200942434  0.47198717580781974  1.0000
  C   C4        1.0  0.5222077641442295  0.524971936918903  0.4713069128096907  1.0000
  C   C5        1.0  0.47529221539229694  0.428418238166979  0.4046906137588189  1.0000
  C   C6        1.0  0.37865189918285796  0.43048988510920605  0.40612122982129506  1.0000
  N   N2        1.0  0.3011761074192233  0.43213399556592513  0.4072569327760762  1.0000
  C   C7        1.0  0.5227943533713751  0.3314786964025509  0.3378074759052287  1.0000
  C   C8        1.0  0.4742021375730424  0.2265047459055012  0.26538294384214445  1.0000
  C   C9        1.0  0.6169423829603663  0.33347037929593315  0.3391816726382055  1.0000
  H   H1        1.0  0.6509644191594215  0.6012948134515705  0.5239659301994364  1.0000
  H   H2        1.0  0.4863686308001383  0.5997288264803408  0.5228852155610813  1.0000
  H   H3        1.0  0.43111529745851956  0.2713754060315357  0.1766696112510104  1.0000
  H   H4        1.0  0.4317626429405909  0.1692993216690737  0.3455927278762534  1.0000
  H   H5        1.0  0.5214821984598073  0.15851166350049975  0.21846521769162927  1.0000
  H   H6        1.0  0.6542771918314353  0.25970797697146963  0.2882898007244481  1.0000
  C   C10       1.0  0.06915319890442362  0.05109549365210153  0.4074073703147161  1.0000
  C   C11       1.0  0.16172006641093106  0.04765128859628543  0.4351482125649102  1.0000
  C   C12       1.0  0.2076492750364689  0.9289855228555153  0.4489123771912022  1.0000
  C   C13       1.0  0.16172006543870562  0.8125433204589444  0.43514814468998164  1.0000
  C   C14       1.0  0.06915320877376738  0.8135804348087309  0.40740745292589725  1.0000
  C   C15       1.0  0.02332099658232844  0.9334474181801343  0.3936722241955217  1.0000
  Cl  Cl1       1.0  0.3232873467875114  0.9261864078598476  0.4835671990667904  1.0000
  H   H7        1.0  0.03428487810160518  0.37969599003017496  0.39695707289245075  1.0000
  H   H8        1.0  0.19853615878777717  0.1368067100215038  0.4461812958046558  1.0000
  H   H9        1.0  0.1985361229837074  0.7216055180378933  0.44618119213581225  1.0000
  H   H10       1.0  0.9519306191180431  0.9351753667221815  0.3722776083229722  1.0000
  H   H11       1.0  0.03428487476803222  0.48666802122253516  0.3969573453798694  1.0000
  C   C16       1.0  0.06754622926731035  0.4356599299221575  0.98359207006754  1.0000
  C   C17       1.0  0.1309948168191528  0.5122165512407606  0.05028913922149858  1.0000
  C   C18       1.0  0.19846058237418174  0.5780751099366064  0.9694822844453013  1.0000
  C   C19       1.0  0.20302417290827857  0.567675523053188  0.8205020319284766  1.0000
  C   C20       1.0  0.13986286692055838  0.4939786166697538  0.7521022217312896  1.0000
  C   C21       1.0  0.07076018918505574  0.4290159283045461  0.8312226982530899  1.0000
  N   N3        1.0  0.26293713209645586  0.6544501866269994  0.039183959708155136  1.0000
  H   H12       1.0  0.9337010457382977  0.18199018317015025  0.10959557982110679  1.0000
  H   H13       1.0  0.12938299587994034  0.5183753756470839  0.16631027078288052  1.0000
  H   H14       1.0  0.25511281217008086  0.6177888164692751  0.7569388820860178  1.0000
  H   H15       1.0  0.1438557723205286  0.4903637101192455  0.6359266898784592  1.0000
  H   H16       1.0  0.9778607132677821  0.26211524149763976  0.5651986616112459  1.0000
  H   H17       1.0  0.2603368948006324  0.6625939770439169  0.15055549932234435  1.0000
  H   H18       1.0  0.3137333378119601  0.7035437030906754  0.9799102979126748  1.0000
  Zn  Zn1       1.0  0.9710378002974187  0.4324278379379036  0.4074704687149259  1.0000
  Zn  Zn2       1.0  0.16726005009333275  0.43224744339740906  0.4073436441379297  1.0000
  C   C22       1.0  0.07015068930704732  0.42509978597625736  0.6710023625137658  1.0000
  C   C23       1.0  0.0681493043617407  0.4395771303764888  0.1438118906077155  1.0000
  C   C24       1.0  0.06912680639961617  0.669499604848391  0.40165622899399067  1.0000
  C   C25       1.0  0.06917312060392763  0.1951757511571979  0.41315810111560153  1.0000
  O   O1        1.0  0.14281702304907787  0.44081765590826133  0.1975349967408897  1.0000
  O   O2        1.0  0.14441111636568837  0.42372136900830437  0.6171825840059951  1.0000
  O   O3        1.0  0.14358331983115707  0.6210773027652366  0.39968367616906475  1.0000
  O   O4        1.0  0.14364475221593753  0.24346173234834878  0.41503379640861837  1.0000
  O   O5        1.0  0.9946530312137623  0.6212135490499966  0.39978031647992496  1.0000
  O   O6        1.0  0.9954808274524852  0.42385917570325443  0.6172791473644323  1.0000
  O   O7        1.0  0.9938867276161134  0.44095543096247153  0.19762982491453848  1.0000
  O   O8        1.0  0.9947144571895923  0.24359949726857247  0.4151287327871569  1.0000
