data_image0
_chemical_formula_structural       NC6NC2H4C6NH5C10H6Zn2C4O8
_chemical_formula_sum              "N3 C28 H15 Zn2 O8"
_cell_length_a       14.927258858638513
_cell_length_b       9.274771166103582
_cell_length_c       9.275153671780862
_cell_angle_alpha    85.60840141486051
_cell_angle_beta     89.40940071634567
_cell_angle_gamma    90.59705168739299

_space_group_name_H-M_alt    "P 1"
_space_group_IT_number       1

loop_
  _space_group_symop_operation_xyz
  'x, y, z'

loop_
  _atom_site_type_symbol
  _atom_site_label
  _atom_site_symmetry_multiplicity
  _atom_site_fract_x
  _atom_site_fract_y
  _atom_site_fract_z
  _atom_site_occupancy
  N   N1        1.0  0.8639683515583785  0.5745807059765489  0.4066198022123433  1.0000
  C   C1        1.0  0.7864418601380828  0.5745806774865259  0.40661981285584126  1.0000
  C   C2        1.0  0.6900093536591364  0.5745807924871889  0.40661976277280953  1.0000
  C   C3        1.0  0.6436127697870441  0.550559371085126  0.2799457605381692  1.0000
  C   C4        1.0  0.5499014594625944  0.5505593963859299  0.279945627000016  1.0000
  C   C5        1.0  0.5021932883964748  0.5745806149383768  0.40661978173149493  1.0000
  C   C6        1.0  0.4057607149260495  0.5745807299419896  0.4066197316425322  1.0000
  N   N2        1.0  0.328234223505754  0.5745807014519664  0.4066197422860301  1.0000
  C   C7        1.0  0.548589805277088  0.5986020363433897  0.5332937839602037  1.0000
  C   C8        1.0  0.6423011156015377  0.5986020110425858  0.5332939174983569  1.0000
  H   H1        1.0  0.679819209586356  0.5318693505574901  0.181386116585335  1.0000
  H   H2        1.0  0.5147155553883959  0.5318695481341666  0.18138611128753038  1.0000
  H   H3        1.0  0.5123834317080335  0.6172920468275811  0.6318535360438664  1.0000
  H   H4        1.0  0.677487019601925  0.6172919569304431  0.6318535430890386  1.0000
  C   C9        1.0  0.09335023758570787  0.15098615481119443  0.4074057218197684  1.0000
  C   C10       1.0  0.07355942902132728  0.23396477059076776  0.27846119654449963  1.0000
  C   C11       1.0  0.062137962226762405  0.1685831542616261  0.14869857343743753  1.0000
  C   C12       1.0  0.07056027173844395  0.018843042765892316  0.14694059279212413  1.0000
  C   C13       1.0  0.08870583365711499  0.934540463863666  0.2741137974078254  1.0000
  C   C14       1.0  0.09886078700011819  0.9981642009062819  0.4058463648205373  1.0000
  N   N3        1.0  0.04290660358047883  0.2546576396011506  0.01833687304788923  1.0000
  H   H5        1.0  0.19215393526398172  0.23145441159032634  0.7229726409205892  1.0000
  H   H6        1.0  0.06219660234006777  0.9671002021092813  0.04710134605967032  1.0000
  H   H7        1.0  0.16176440178429008  0.7016475747270124  0.6205436022078383  1.0000
  H   H8        1.0  0.03673467687266887  0.3667314212113062  0.01829004048106175  1.0000
  H   H9        1.0  0.03461212467322808  0.20693807791164856  0.9208689272268628  1.0000
  C   C15       1.0  0.09880984338689316  0.5734910636234549  0.9831983995942278  1.0000
  C   C16       1.0  0.1231930158717463  0.7009721827396529  0.04670745008748223  1.0000
  C   C17       1.0  0.13921495845513243  0.8298110445001432  0.9614779042548666  1.0000
  C   C18       1.0  0.13095739519575567  0.8327735063255658  0.8115319321986978  1.0000
  C   C19       1.0  0.10831577812187337  0.706901305801396  0.7464015172181195  1.0000
  C   C20       1.0  0.09340119245969603  0.575659232707604  0.8300536860371467  1.0000
  C   C21       1.0  0.1631397655654004  0.9596650628304695  0.028347948328215862  1.0000
  C   C22       1.0  0.1831718290500013  0.06838099087655847  0.08435952322835738  1.0000
  C   C23       1.0  0.20662838411504103  0.19568255456391317  0.14995466817876824  1.0000
  C   C24       1.0  0.22665657801746797  0.30437769669067466  0.20596363023067135  1.0000
  H   H10       1.0  0.10136784538518034  0.3345759503436794  0.28217462298420104  1.0000
  H   H11       1.0  0.12771231624525936  0.7010452154077511  0.1633227076148489  1.0000
  H   H12       1.0  0.1428984838298275  0.9322240715141178  0.74464220057058  1.0000
  H   H13       1.0  0.1045358053533012  0.7114177326650206  0.6295615274169069  1.0000
  H   H14       1.0  0.10232306246410255  0.2209082633287576  0.754207848360803  1.0000
  H   H15       1.0  0.24424296901594988  0.3998209434324318  0.255144400195354  1.0000
  Zn  Zn1       1.0  0.9979453831330025  0.5745768607778448  0.4066281237313841  1.0000
  Zn  Zn2       1.0  0.19425705041579416  0.5745727615684253  0.4066232706707178  1.0000
  C   C25       1.0  0.09438414488129965  0.5695029050458669  0.6699904567669674  1.0000
  C   C26       1.0  0.09782044331957357  0.5796485376675318  0.1432610757559034  1.0000
  C   C27       1.0  0.09785125182035874  0.8380147748672329  0.40039518372629157  1.0000
  C   C28       1.0  0.09435325762924966  0.31113493498319333  0.41285642886276636  1.0000
  O   O1        1.0  0.171987605331967  0.5817071935180869  0.19697774193867312  1.0000
  O   O2        1.0  0.16921299156648448  0.5674400487289237  0.6162696941513766  1.0000
  O   O3        1.0  0.17201171040601004  0.7842667832653649  0.398569601003788  1.0000
  O   O4        1.0  0.1691888202621834  0.36488046902509064  0.4146777269554329  1.0000
  O   O5        1.0  0.023013546295133757  0.7842691533241297  0.39857366744073747  1.0000
  O   O6        1.0  0.020214839215393587  0.5674441516536111  0.6162736805162086  1.0000
  O   O7        1.0  0.02298946378559298  0.5817112417375087  0.19697999479854889  1.0000
  O   O8        1.0  0.0201906779545884  0.36488450720401766  0.41468008794020617  1.0000
