data_image0
_chemical_formula_structural       NC8NH4C6NH7C6NH7Zn2C4O8
_chemical_formula_sum              "N4 C24 H18 Zn2 O8"
_cell_length_a       13.859017981522156
_cell_length_b       9.274771166103582
_cell_length_c       9.274774538082514
_cell_angle_alpha    84.9550519661537
_cell_angle_beta     90.34966334456435
_cell_angle_gamma    90.59707920365587

_space_group_name_H-M_alt    "P 1"
_space_group_IT_number       1

loop_
  _space_group_symop_operation_xyz
  'x, y, z'

loop_
  _atom_site_type_symbol
  _atom_site_label
  _atom_site_symmetry_multiplicity
  _atom_site_fract_x
  _atom_site_fract_y
  _atom_site_fract_z
  _atom_site_occupancy
  N   N1        1.0  0.9131820542649953  0.5925444388497376  0.4051314596138216  1.0000
  C   C1        1.0  0.8405314853260728  0.5860463219015213  0.34375422799490507  1.0000
  C   C2        1.0  0.7501584934990118  0.5779638875903941  0.2674089376454094  1.0000
  C   C3        1.0  0.7492580849543622  0.5622023070801316  0.11853187689880952  1.0000
  C   C4        1.0  0.6614679147687562  0.5543540733161234  0.04439078668608243  1.0000
  C   C5        1.0  0.5743928200035741  0.5622040320975743  0.11853162513621542  1.0000
  C   C6        1.0  0.5749282626504411  0.5779648627428872  0.26740875184419727  1.0000
  C   C7        1.0  0.6629023592095095  0.5858438045842556  0.34183612500879135  1.0000
  C   C8        1.0  0.4852916738875171  0.5860472280153004  0.3437539856153986  1.0000
  N   N2        1.0  0.4132331404065697  0.5925447532400686  0.4051313653192963  1.0000
  H   H1        1.0  0.8162710572842093  0.555999969700947  0.05995032454395833  1.0000
  H   H2        1.0  0.6609132974818596  0.5421791895379362  0.9293896627460381  1.0000
  H   H3        1.0  0.5068148074495287  0.5560030719995481  0.05994989839353427  1.0000
  H   H4        1.0  0.6634580945749056  0.5980432153147198  0.4570710542685213  1.0000
  C   C9        1.0  0.1602530674187168  0.16894120770361187  0.40591808121237327  1.0000
  C   C10       1.0  0.1375303038760627  0.2533734707462858  0.27685312413309404  1.0000
  C   C11       1.0  0.12381306000254821  0.1894547311207706  0.14696930394645236  1.0000
  C   C12       1.0  0.13286537809801002  0.03973444492487976  0.14520968016482264  1.0000
  C   C13       1.0  0.15379675967436796  0.9539981865430757  0.27250166239572216  1.0000
  C   C14       1.0  0.16617135604402591  0.016136837618057287  0.40435726699887153  1.0000
  N   N3        1.0  0.10167741007102471  0.27699884075997966  0.016485848028929388  1.0000
  H   H5        1.0  0.27011459779984115  0.24585198201402658  0.7217797269446684  1.0000
  H   H6        1.0  0.13266297606579314  0.3699710015853579  0.27629872799925415  1.0000
  H   H7        1.0  0.12276802117411201  0.9891171406350564  0.04527718444794205  1.0000
  H   H8        1.0  0.15803239937037725  0.8378701561644267  0.26836823174966895  1.0000
  H   H9        1.0  0.23626539367119803  0.7171998603758625  0.619255023452578  1.0000
  H   H10       1.0  0.09502924582955607  0.38907314549293415  0.016438972582980552  1.0000
  H   H11       1.0  0.09168044237810036  0.23037808250758962  0.9189268680159102  1.0000
  C   C15       1.0  0.1615063402717516  0.5962284440867844  0.981314547323097  1.0000
  C   C16       1.0  0.23047128266933942  0.6813539200305939  0.04789420799833289  1.0000
  C   C17       1.0  0.3036820068659681  0.7545968218432744  0.9669943334994803  1.0000
  C   C18       1.0  0.3085189068400963  0.7430464308767355  0.8180381972640195  1.0000
  C   C19       1.0  0.23988572888281579  0.6610986667535529  0.7497501194379317  1.0000
  C   C20       1.0  0.16491805963578332  0.5888495252260764  0.8289607675997934  1.0000
  N   N4        1.0  0.3737532483476957  0.8395216135373972  0.036579608799795604  1.0000
  H   H12       1.0  0.015308944877284965  0.31424238382730696  0.1077544175891263  1.0000
  H   H13       1.0  0.2287822252710197  0.6881953641538461  0.16390173328148316  1.0000
  H   H14       1.0  0.3650373850228772  0.7987793945879144  0.7544047327163796  1.0000
  H   H15       1.0  0.24416033301460255  0.6570861501445113  0.6335844614445407  1.0000
  H   H16       1.0  0.06351629184521812  0.40331342292827554  0.5632208354628037  1.0000
  H   H17       1.0  0.3710145032841832  0.8485675597406851  0.14793286635433311  1.0000
  H   H18       1.0  0.4288711148267834  0.8941202103667041  0.9772369191421499  1.0000
  Zn  Zn1       1.0  0.05748600864133313  0.5925406050449529  0.40513977017955605  1.0000
  Zn  Zn2       1.0  0.2689291540440109  0.5925367147027472  0.4051348851481329  1.0000
  C   C21       1.0  0.1642308804521582  0.5844976961000781  0.6687480709385007  1.0000
  C   C22       1.0  0.1621866044705429  0.6005814424593312  0.14152672263866162  1.0000
  C   C23       1.0  0.16502454656594367  0.8560488649595018  0.39890099462637063  1.0000
  C   C24       1.0  0.1613928544087584  0.3290285398342429  0.41137387909177137  1.0000
  O   O1        1.0  0.24265643512256685  0.6020345789238313  0.19529354998125648  1.0000
  O   O2        1.0  0.24424149542519058  0.5830405223513586  0.6149771225122097  1.0000
  O   O3        1.0  0.24488131519483863  0.8023215123946384  0.397073696438955  1.0000
  O   O4        1.0  0.24201654283822535  0.38275360014296206  0.4131968678226965  1.0000
  O   O5        1.0  0.08439854769193045  0.8023237196077022  0.3970777874990643  1.0000
  O   O6        1.0  0.08375873971509407  0.5830444633330514  0.6149811334254115  1.0000
  O   O7        1.0  0.08217367214133776  0.6020384847430249  0.19529582577040272  1.0000
  O   O8        1.0  0.08153378021650196  0.38275749470270903  0.41319925183772965  1.0000
