data_image0
_chemical_formula_structural       NC8NC6H8C13OH12C12NH11Zn2C4O8
_chemical_formula_sum              "N3 C43 H31 O9 Zn2"
_cell_length_a       17.457602349358154
_cell_length_b       10.299150109392551
_cell_length_c       10.299774167527172
_cell_angle_alpha    85.55710761189597
_cell_angle_beta     92.86883644785563
_cell_angle_gamma    91.67070309183428

_space_group_name_H-M_alt    "P 1"
_space_group_IT_number       1

loop_
  _space_group_symop_operation_xyz
  'x, y, z'

loop_
  _atom_site_type_symbol
  _atom_site_label
  _atom_site_symmetry_multiplicity
  _atom_site_fract_x
  _atom_site_fract_y
  _atom_site_fract_z
  _atom_site_occupancy
  N   N1        1.0  0.7222435940908072  0.4525231514938478  0.6260227351833574  1.0000
  C   C1        1.0  0.661175095066137  0.4065917621413524  0.6154249189193213  1.0000
  C   C2        1.0  0.5852032975095188  0.34945883136175504  0.6022507748174735  1.0000
  C   C3        1.0  0.5266619256021884  0.38964545201295325  0.6771295918508604  1.0000
  C   C4        1.0  0.4521277671156508  0.33463110550984204  0.6645690537270577  1.0000
  C   C5        1.0  0.3899947708013025  0.3770623286401869  0.7438686092999185  1.0000
  C   C6        1.0  0.3154484242212073  0.3955154931230995  0.6881008267171638  1.0000
  C   C7        1.0  0.25690707694919823  0.43551820799456203  0.763087661811408  1.0000
  C   C8        1.0  0.1809226118945782  0.4545766116970881  0.7051042969314574  1.0000
  N   N2        1.0  0.11984401969715511  0.46989318819921116  0.658485825024143  1.0000
  C   C9        1.0  0.27241983263428476  0.45731106605033744  0.8943506802113161  1.0000
  C   C10       1.0  0.34618137491354023  0.43924702840053803  0.950505894706996  1.0000
  C   C11       1.0  0.40471105178539984  0.39942451486604047  0.8759766904140475  1.0000
  C   C12       1.0  0.43742385292732583  0.23875225114166063  0.5756971052939115  1.0000
  C   C13       1.0  0.4959534264613404  0.19884444699289405  0.5012181665387168  1.0000
  C   C14       1.0  0.5697027603242015  0.25397133886111134  0.5143285850794748  1.0000
  H   H1        1.0  0.5389871467721344  0.4648644305640166  0.7437285794939623  1.0000
  H   H2        1.0  0.303113247840108  0.38051411383688055  0.5860869925868621  1.0000
  H   H3        1.0  0.227548976698122  0.48821324589128284  0.9531719518498816  1.0000
  H   H4        1.0  0.3580025705118871  0.4558060610822501  0.052145896694901106  1.0000
  H   H5        1.0  0.4611963511336833  0.3844453200838527  0.9220865703692953  1.0000
  H   H6        1.0  0.38094852260491135  0.19341055831627507  0.5650629506189513  1.0000
  H   H7        1.0  0.4841418854749418  0.12474165025453066  0.43342049337181066  1.0000
  H   H8        1.0  0.6145737900553638  0.2221995543390698  0.45601874278072135  1.0000
  C   C15       1.0  0.9211197719847983  0.07981186993858147  0.6424046020735343  1.0000
  C   C16       1.0  0.9196972189116308  0.06798500187146561  0.7790926233167521  1.0000
  C   C17       1.0  0.9189092178800334  0.9448509371682444  0.8481272207772579  1.0000
  C   C18       1.0  0.9195493269451271  0.832723091337078  0.7787171707425267  1.0000
  C   C19       1.0  0.9209751752166996  0.8425947220944727  0.6421158133724991  1.0000
  C   C20       1.0  0.921754175240156  0.9665994850896333  0.5747579890726915  1.0000
  C   C21       1.0  0.9173976350249725  0.9333208841785448  0.9926369852563569  1.0000
  C   C22       1.0  0.8702178902370002  0.8383991165089527  0.056803025457975324  1.0000
  C   C23       1.0  0.8687700747989245  0.8276296470545741  0.19278449413434118  1.0000
  C   C24       1.0  0.9149790275962264  0.9106448566209464  0.26709925018451186  1.0000
  C   C25       1.0  0.9614247352274148  0.006488376264870855  0.203515818461943  1.0000
  C   C26       1.0  0.9628903594070911  0.017434420679655508  0.06753551512568057  1.0000
  C   C27       1.0  0.9118101201914601  0.9013560971201084  0.4129197831435563  1.0000
  O   O1        1.0  0.854465881423443  0.9820379095199114  0.44847649558103553  1.0000
  H   H9        1.0  0.9233064764066574  0.30940669859075864  0.38435886094313765  1.0000
  H   H10       1.0  0.9181352246470453  0.15470410102496435  0.8319711261136113  1.0000
  H   H11       1.0  0.9199834264994764  0.7376333690403225  0.8315835953825199  1.0000
  H   H12       1.0  0.9228518037845416  0.9749298830033417  0.46939309744877417  1.0000
  H   H13       1.0  0.9214719688138405  0.5189139736039665  0.5895699243678294  1.0000
  H   H14       1.0  0.8335315410132599  0.7737742061322258  0.0017014809469299045  1.0000
  H   H15       1.0  0.831446351208669  0.7546825615370916  0.24011025090749594  1.0000
  H   H16       1.0  0.9966978659835405  0.07260471148649761  0.25924814716617206  1.0000
  H   H17       1.0  0.00023973277554456698  0.09082826955674282  0.021018457178970773  1.0000
  H   H18       1.0  0.9682399849450765  0.931660982941986  0.45769522136215823  1.0000
  H   H19       1.0  0.899339805571779  0.7987998402477465  0.4497123818298384  1.0000
  H   H20       1.0  0.8547434119208841  0.9723979150843256  0.5451212029222761  1.0000
  C   C28       1.0  0.9210735977901716  0.461089931230038  0.26091028006553296  1.0000
  C   C29       1.0  0.8459455437763085  0.4085019407793189  0.2576149307734552  1.0000
  C   C30       1.0  0.8078506803415899  0.3819698423254553  0.138795094854971  1.0000
  C   C31       1.0  0.8458927929101869  0.40873095604035514  0.022305828754852767  1.0000
  C   C32       1.0  0.9210213353617247  0.4613167411518359  0.02361007437342755  1.0000
  C   C33       1.0  0.9581909149888872  0.48720225205732337  0.14339723656192227  1.0000
  C   C34       1.0  0.7283695532713406  0.32633536306864763  0.13636215472553403  1.0000
  C   C35       1.0  0.7068268753322595  0.22693238257416581  0.2299377448063877  1.0000
  C   C36       1.0  0.6320156647162133  0.17462458313493975  0.2275138451596408  1.0000
  C   C37       1.0  0.5775637444610903  0.2207753474601992  0.13174575680307155  1.0000
  C   C38       1.0  0.5986002311761587  0.31976602163434187  0.0382883438510575  1.0000
  C   C39       1.0  0.6733883855772774  0.3721740838704432  0.0404440441363043  1.0000
  N   N3        1.0  0.5010492494611959  0.1672169896768798  0.12940341550570622  1.0000
  H   H21       1.0  0.9497138838589617  0.4810752632857893  0.5896246453026548  1.0000
  H   H22       1.0  0.816494342593711  0.38971074439045766  0.34750235375104177  1.0000
  H   H23       1.0  0.8171646784492502  0.38679868544804896  0.9306373432805368  1.0000
  H   H24       1.0  0.01614891643614924  0.5277705859226731  0.14517147363433258  1.0000
  H   H25       1.0  0.9496371896458136  0.48140888999102555  0.6966484834570114  1.0000
  H   H26       1.0  0.7481035195183653  0.18846419230973274  0.3039723242400747  1.0000
  H   H27       1.0  0.6165537498465397  0.09789629003712674  0.30009738495493377  1.0000
  H   H28       1.0  0.5570036282449861  0.35655478865122014  0.963958192269028  1.0000
  H   H29       1.0  0.6879532603319314  0.4497297528755347  0.9681189663893477  1.0000
  H   H30       1.0  0.4600582958024078  0.20098551681340315  0.05837915176641029  1.0000
  H   H31       1.0  0.484827143877485  0.09340099539176737  0.19867668300491734  1.0000
  Zn  Zn1       1.0  0.8369824884577581  0.4575322881491532  0.6353983810837944  1.0000
  Zn  Zn2       1.0  0.00510511237053812  0.4648734061167183  0.6491208151533501  1.0000
  C   C40       1.0  0.921030493018032  0.45609971605568184  0.8794453319308385  1.0000
  C   C41       1.0  0.9210589433847091  0.46630769715072606  0.4050741409944871  1.0000
  C   C42       1.0  0.920998912029114  0.6984108537958855  0.6369951459143938  1.0000
  C   C43       1.0  0.9210904672961846  0.2239949965108965  0.6475243921544229  1.0000
  O   O2        1.0  0.9848556859029557  0.470839076918355  0.45866444403507356  1.0000
  O   O3        1.0  0.9848349321682148  0.4571390950591577  0.8362696653771008  1.0000
  O   O4        1.0  0.9848085699508745  0.6528083660729742  0.6404893540803602  1.0000
  O   O5        1.0  0.9848819907563422  0.27516981266145374  0.654444653275942  1.0000
  O   O6        1.0  0.8572055526999537  0.6472358791006667  0.630074538271578  1.0000
  O   O7        1.0  0.8572319146227357  0.45156816848272463  0.8258547797352026  1.0000
  O   O8        1.0  0.8572526685240414  0.4652681046206814  0.448247997091574  1.0000
  O   O9        1.0  0.8572789733693812  0.2695988311031139  0.6440283036986905  1.0000
