data_image0
_chemical_formula_structural       NC6NCNCH5C9H6C6ClH3Zn2C4O8
_chemical_formula_sum              "N3 C27 H14 Cl1 Zn2 O8"
_cell_length_a       14.933214217465613
_cell_length_b       9.275152443626249
_cell_length_c       10.30297407846105
_cell_angle_alpha    85.36323094855369
_cell_angle_beta     89.96595870270414
_cell_angle_gamma    90.60755784757023

_space_group_name_H-M_alt    "P 1"
_space_group_IT_number       1

loop_
  _space_group_symop_operation_xyz
  'x, y, z'

loop_
  _atom_site_type_symbol
  _atom_site_label
  _atom_site_symmetry_multiplicity
  _atom_site_fract_x
  _atom_site_fract_y
  _atom_site_fract_z
  _atom_site_occupancy
  N   N1        1.0  0.8530561681977359  0.5796803639100754  0.5622659324455541  1.0000
  C   C1        1.0  0.775572106432361  0.5806774344751402  0.5613707297931476  1.0000
  C   C2        1.0  0.6791813933319175  0.5819205267729453  0.5602545231322318  1.0000
  C   C3        1.0  0.6307614627154547  0.48612020888221363  0.6462845579554395  1.0000
  C   C4        1.0  0.5372347721670826  0.48720350402331225  0.6453117702527782  1.0000
  C   C5        1.0  0.49122531706040257  0.5840322282646625  0.5583582450433706  1.0000
  C   C6        1.0  0.3946366757574158  0.5819226842872687  0.5602526513168429  1.0000
  N   N2        1.0  0.3171400942355039  0.5801628585517782  0.5618326685590416  1.0000
  C   C7        1.0  0.5397515336203301  0.6810422429377638  0.4712420007760527  1.0000
  N   N3        1.0  0.49506549313884846  0.7816844848500055  0.3808640944477397  1.0000
  C   C8        1.0  0.6337525739475809  0.6789924386414885  0.4730828586382898  1.0000
  H   H1        1.0  0.6652895080781742  0.4105881010219535  0.7141134160312648  1.0000
  H   H2        1.0  0.5006857615498306  0.41230678402410187  0.7125699260257707  1.0000
  H   H3        1.0  0.5318629550003388  0.8527677074409739  0.31703032265675435  1.0000
  H   H4        1.0  0.425357306507868  0.7870395104530092  0.3760552703351381  1.0000
  H   H5        1.0  0.671421336361734  0.7531355744080566  0.4065012841870086  1.0000
  C   C9        1.0  0.08246076405121806  0.15628655693446933  0.5633772225909717  1.0000
  C   C10       1.0  0.050156734373172814  0.23899237682573005  0.4531120718063524  1.0000
  C   C11       1.0  0.026176665767033497  0.17352610446937922  0.340774147111776  1.0000
  C   C12       1.0  0.03412409479538892  0.024192427474746255  0.33647702371395294  1.0000
  C   C13       1.0  0.06467701141417148  0.939796640340171  0.4458116709623737  1.0000
  C   C14       1.0  0.08774399551695304  0.003545568059720942  0.5607326308157188  1.0000
  C   C15       1.0  0.009862725874651314  0.9570176996673692  0.22014350407554487  1.0000
  C   C16       1.0  0.9895494987191826  0.9007412304860862  0.1227324194394741  1.0000
  C   C17       1.0  0.9649034127758073  0.8324476899275743  0.004541151789195341  1.0000
  H   H6        1.0  0.2111346843207439  0.23807176600672927  0.8225388753639504  1.0000
  H   H7        1.0  0.0022345012124886906  0.23974098114667597  0.25671326583175524  1.0000
  H   H8        1.0  0.17150563929043552  0.7083332415788988  0.7379944648462924  1.0000
  H   H9        1.0  0.981273885909646  0.7157428790638154  0.016654604062085184  1.0000
  H   H10       1.0  0.8920186058038656  0.844954485332328  0.9868358280343551  1.0000
  H   H11       1.0  0.00272053018923679  0.8848355398765951  0.9204700234741039  1.0000
  C   C18       1.0  0.08510238426969655  0.5799160652420521  0.18081244974595068  1.0000
  C   C19       1.0  0.06859130146436443  0.43006538761307  0.19052833996160756  1.0000
  C   C20       1.0  0.06039899840488405  0.35571356290781586  0.07839230846856649  1.0000
  C   C21       1.0  0.06859134202281858  0.43006546912735827  0.9554204406988118  1.0000
  C   C22       1.0  0.08510238152119226  0.5799159907732792  0.9432974690539355  1.0000
  C   C23       1.0  0.09327745502080068  0.6541109017125595  0.056648488015355714  1.0000
  Cl  Cl1       1.0  0.03977273642697465  0.1685144672131078  0.09203330626177886  1.0000
  H   H12       1.0  0.06202447044548533  0.37046627381428365  0.28491780609038275  1.0000
  H   H13       1.0  0.062024532892884364  0.370466253294367  0.8697168400223125  1.0000
  H   H14       1.0  0.10601125748320331  0.7696802419768873  0.0482269768694954  1.0000
  Zn  Zn1       1.0  0.9869807409561114  0.579815730548433  0.5621484189056629  1.0000
  Zn  Zn2       1.0  0.18321543301629162  0.5800156570399979  0.5619608803955605  1.0000
  C   C24       1.0  0.08506453534506947  0.5741689666888958  0.7991893870079809  1.0000
  C   C25       1.0  0.085133792854373  0.5856642433062194  0.3249200319880394  1.0000
  C   C26       1.0  0.08674073732262189  0.8433955471815897  0.5560590895367483  1.0000
  C   C27       1.0  0.08345751310780969  0.3164359295184729  0.568050404148885  1.0000
  O   O1        1.0  0.15961433756828836  0.5876629617757327  0.37321270278476226  1.0000
  O   O2        1.0  0.1595215745568531  0.5723208994979347  0.7507540084962605  1.0000
  O   O3        1.0  0.16087412496036613  0.7897247670577539  0.5544245693784613  1.0000
  O   O4        1.0  0.15826172026752072  0.3702591044675305  0.5695420445919557  1.0000
  O   O5        1.0  0.011934386739622214  0.7895722830542462  0.5545672547664318  1.0000
  O   O6        1.0  0.010581847139859766  0.5721701487228246  0.7508966192517821  1.0000
  O   O7        1.0  0.010674609897409313  0.5875121607291998  0.37335375281405003  1.0000
  O   O8        1.0  0.009321992528636532  0.37010829310272597  0.5696831919890131  1.0000
