data_image0
_chemical_formula_structural       NC8NH4C6NH7C6NCOH5Zn2C4O8
_chemical_formula_sum              "N4 C25 H16 O9 Zn2"
_cell_length_a       13.859017124695912
_cell_length_b       9.274771166103582
_cell_length_c       9.27373355559583
_cell_angle_alpha    86.06900368676713
_cell_angle_beta     90.01104731116409
_cell_angle_gamma    90.59707951677755

_space_group_name_H-M_alt    "P 1"
_space_group_IT_number       1

loop_
  _space_group_symop_operation_xyz
  'x, y, z'

loop_
  _atom_site_type_symbol
  _atom_site_label
  _atom_site_symmetry_multiplicity
  _atom_site_fract_x
  _atom_site_fract_y
  _atom_site_fract_z
  _atom_site_occupancy
  N   N1        1.0  0.9192740074273518  0.5615590435566588  0.4074059316352918  1.0000
  C   C1        1.0  0.8467486025673815  0.5380919087534157  0.35129111135208135  1.0000
  C   C2        1.0  0.7565313196422301  0.5089022164094443  0.28149148609079333  1.0000
  C   C3        1.0  0.6691233620463244  0.5373591952558177  0.3495373375913049  1.0000
  C   C4        1.0  0.5813010082143978  0.508903436281124  0.2814909046169736  1.0000
  C   C5        1.0  0.5810689643452648  0.4519829725691101  0.14537773112238694  1.0000
  C   C6        1.0  0.6682951582630178  0.4236353708687591  0.07759380661251103  1.0000
  C   C7        1.0  0.755934307072889  0.45198063524949667  0.14537891363229094  1.0000
  C   C8        1.0  0.4915087702103046  0.5380928301622454  0.3512906116987571  1.0000
  N   N2        1.0  0.4193251352217816  0.5615593639179224  0.4074057150610978  1.0000
  H   H1        1.0  0.6694441784516392  0.5814178358676512  0.4548921933360406  1.0000
  H   H2        1.0  0.5136104406845142  0.42958622943837277  0.09181819338219688  1.0000
  H   H3        1.0  0.6679750628320849  0.37966670751455717  0.9724523108709917  1.0000
  H   H4        1.0  0.8230666267091071  0.42958180166013404  0.09182037884593863  1.0000
  C   C9        1.0  0.16634203123905267  0.1379711002400137  0.40819138501634467  1.0000
  C   C10       1.0  0.14411225386267734  0.2198958638548869  0.27931050801307533  1.0000
  C   C11       1.0  0.13089112451302554  0.15345371596001156  0.14961193409819562  1.0000
  C   C12       1.0  0.13995016437908614  0.003699243643200848  0.1478548182410162  1.0000
  C   C13       1.0  0.16039533188491006  0.9204360389532589  0.27496524939481093  1.0000
  C   C14       1.0  0.17226628205074795  0.9851364064784122  0.4066327957674094  1.0000
  N   N3        1.0  0.10925387900391104  0.23846276731396077  0.019314581246749674  1.0000
  H   H5        1.0  0.27499707620713676  0.2210184980075549  0.7236025200158551  1.0000
  H   H6        1.0  0.13924704336988936  0.3364826236763365  0.2787569034859508  1.0000
  H   H7        1.0  0.13023451755683224  0.9511404312851616  0.04806485075523659  1.0000
  H   H8        1.0  0.1646467602493289  0.8042277035735435  0.270837713161582  1.0000
  H   H9        1.0  0.24153948212781562  0.6903745058879126  0.621224046282014  1.0000
  H   H10       1.0  0.10260589340008108  0.35053616120195397  0.019267773902086557  1.0000
  H   H11       1.0  0.09962955533480233  0.18994661411765068  0.9218947442758588  1.0000
  C   C15       1.0  0.16921715622601252  0.5570090570652062  0.9841934315537234  1.0000
  C   C16       1.0  0.08047608689345978  0.5487298213171963  0.058160165408113196  1.0000
  C   C17       1.0  0.9926942569651158  0.552140246077961  0.9832044446974924  1.0000
  C   C18       1.0  0.9936605656623081  0.5685186797729367  0.8318265762300269  1.0000
  C   C19       1.0  0.08093572702366192  0.5746454734266868  0.7566598105659953  1.0000
  C   C20       1.0  0.1693911387909999  0.5660983919743177  0.8306307413528538  1.0000
  N   N4        1.0  0.9036897307030269  0.5470809909313281  0.0632282778472335  1.0000
  C   C21       1.0  0.8162945431922812  0.48065699049444516  0.01656810138237242  1.0000
  O   O1        1.0  0.8152533422964621  0.4043209425843204  0.9093577140743099  1.0000
  H   H12       1.0  0.39729200944186366  0.6571694316239036  0.08032250183456302  1.0000
  H   H13       1.0  0.927089726632973  0.5781226122030936  0.7711943234678542  1.0000
  H   H14       1.0  0.3237216165576524  0.6274613509810656  0.5454115382306584  1.0000
  H   H15       1.0  0.9036123810670408  0.5854346628644536  0.16657671265303686  1.0000
  H   H16       1.0  0.7504297049715369  0.49275418068411114  0.07696671453457626  1.0000
  Zn  Zn1       1.0  0.06357793899911446  0.5615553742441184  0.4074142032963151  1.0000
  Zn  Zn2       1.0  0.2750211161593117  0.5615513934386676  0.40740928559382783  1.0000
  C   C22       1.0  0.16931591655960054  0.5586339005977441  0.670646518993543  1.0000
  C   C23       1.0  0.16928546030825675  0.5644746885827372  0.1441771079484635  1.0000
  C   C24       1.0  0.17114031374730648  0.8249424282807334  0.40118430548821193  1.0000
  C   C25       1.0  0.167460978866433  0.2981644286910763  0.41363940148049094  1.0000
  O   O2        1.0  0.24954992356236638  0.566972419059875  0.19786723655084026  1.0000
  O   O3        1.0  0.24953192461304807  0.556132056144137  0.6169522451005746  1.0000
  O   O4        1.0  0.2510040670278737  0.771179576291666  0.39935959847088515  1.0000
  O   O5        1.0  0.24807770904625426  0.35192490807200705  0.415459775103092  1.0000
  O   O6        1.0  0.09052127395700162  0.7711818596136273  0.39936371378114544  1.0000
  O   O7        1.0  0.08904914364112426  0.5561360716776171  0.6169562803782334  1.0000
  O   O8        1.0  0.089067141946938  0.5669763657205307  0.19786953917912342  1.0000
  O   O9        1.0  0.08759492737694274  0.3519288455758492  0.4154621858029075  1.0000
