data_image0
_chemical_formula_structural       NC10NC5H10C16H10C12NCOCH13Zn2C4O8
_chemical_formula_sum              "N3 C49 H33 O9 Zn2"
_cell_length_a       19.4436361288709
_cell_length_b       10.29914801576943
_cell_length_c       10.299158637457996
_cell_angle_alpha    85.55741753884429
_cell_angle_beta     89.6864852280966
_cell_angle_gamma    89.43179634642199

_space_group_name_H-M_alt    "P 1"
_space_group_IT_number       1

loop_
  _space_group_symop_operation_xyz
  'x, y, z'

loop_
  _atom_site_type_symbol
  _atom_site_label
  _atom_site_symmetry_multiplicity
  _atom_site_fract_x
  _atom_site_fract_y
  _atom_site_fract_z
  _atom_site_occupancy
  N   N1        1.0  0.6480673290441932  0.40891136387167587  0.5615209448771492  1.0000
  C   C1        1.0  0.5892310599832277  0.4188165922823821  0.5759012444182883  1.0000
  C   C2        1.0  0.5159013540362676  0.4311697494499152  0.5938889787914455  1.0000
  C   C3        1.0  0.4737239615049521  0.3991535186013435  0.4992264264402795  1.0000
  C   C4        1.0  0.39782000035572657  0.409593566894724  0.5045504903632442  1.0000
  C   C5        1.0  0.3580657062081739  0.3848627681727225  0.6116341541978945  1.0000
  C   C6        1.0  0.2819470920929817  0.38877738925705346  0.5986730546964268  1.0000
  C   C7        1.0  0.2413808551782926  0.4464598574467462  0.6924224865109128  1.0000
  C   C8        1.0  0.1697190868186497  0.4500960205048035  0.681877009264933  1.0000
  C   C9        1.0  0.1376287185020936  0.39565372404541477  0.5778687860932201  1.0000
  C   C10       1.0  0.0638377304307122  0.3993511075434858  0.5671680006261546  1.0000
  N   N2        1.0  0.004514780986359199  0.40232360988708465  0.5585652785400967  1.0000
  C   C11       1.0  0.1774699337965072  0.3372641784189203  0.48450287170151785  1.0000
  C   C12       1.0  0.24914815268154203  0.3335737424565193  0.4947965891456503  1.0000
  C   C13       1.0  0.386178785430778  0.3444221284387534  0.7427465149300289  1.0000
  C   C14       1.0  0.4448424167221908  0.3875557330667605  0.7899728009500735  1.0000
  C   C15       1.0  0.4890703167432914  0.4854083179600792  0.7155659771862195  1.0000
  H   H1        1.0  0.4958295187613785  0.37001814187457893  0.40892971629084474  1.0000
  H   H2        1.0  0.3731348344994281  0.43207344498888617  0.4113819928124882  1.0000
  H   H3        1.0  0.2652475831216736  0.48976844245425044  0.7732550185459101  1.0000
  H   H4        1.0  0.13937169052988901  0.49542708239626965  0.7547811695103132  1.0000
  H   H5        1.0  0.15313130996976643  0.29415132539107525  0.40400475080720616  1.0000
  H   H6        1.0  0.2788295761806766  0.28599924108313224  0.4225896504499529  1.0000
  H   H7        1.0  0.355198128352771  0.2802114841306014  0.8070194944287002  1.0000
  H   H8        1.0  0.4599771115740426  0.353503239121896  0.8879219848721225  1.0000
  H   H9        1.0  0.45897540500983314  0.5761251225961446  0.6902781809659573  1.0000
  H   H10       1.0  0.5323514878287946  0.5110074793277655  0.7786418424781323  1.0000
  C   C16       1.0  0.8262453394076502  0.024217020056385596  0.5602090658163095  1.0000
  C   C17       1.0  0.8105638807301272  0.03405862741787313  0.42686389856666324  1.0000
  C   C18       1.0  0.8026636187701771  0.9219177781079736  0.35909004361283053  1.0000
  C   C19       1.0  0.8106557622640927  0.7988049716684692  0.4264585427063569  1.0000
  C   C20       1.0  0.826343337321957  0.7870078389738548  0.5598884129063659  1.0000
  C   C21       1.0  0.8340427637577073  0.9002315141170029  0.6259420917185375  1.0000
  C   C22       1.0  0.7860746964502346  0.9333746143155991  0.2180269367232961  1.0000
  C   C23       1.0  0.8186298524506533  0.8517578212235437  0.1325385250513138  1.0000
  C   C24       1.0  0.8029929020526977  0.8626662215035008  0.9997755662368502  1.0000
  C   C25       1.0  0.754640307341811  0.9550940544975398  0.9506980781624462  1.0000
  C   C26       1.0  0.7219599563500096  0.03669302452594403  0.034903575356137743  1.0000
  C   C27       1.0  0.7375478649241062  0.026026803702623225  0.16768788758847375  1.0000
  C   C28       1.0  0.7385674359969068  0.9662000849613441  0.8140059527028427  1.0000
  C   C29       1.0  0.7251065794292659  0.9755012791145886  0.6995282755995053  1.0000
  C   C30       1.0  0.7093440753806474  0.9863928523014657  0.5654760828803953  1.0000
  C   C31       1.0  0.6958854780592927  0.9956926340419147  0.45101689497580466  1.0000
  H   H11       1.0  0.8322417261857011  0.3479067748429117  0.6115137164835338  1.0000
  H   H12       1.0  0.8053840981652228  0.1291913940984617  0.37499629450130223  1.0000
  H   H13       1.0  0.8037006172090645  0.7120221409549553  0.37510024578030765  1.0000
  H   H14       1.0  0.8461362635017065  0.8919245765039155  0.7287955143406444  1.0000
  H   H15       1.0  0.8555268530079163  0.5574427412267237  0.8119120695723161  1.0000
  H   H16       1.0  0.8568309030866847  0.7806597574481232  0.16807178687123003  1.0000
  H   H17       1.0  0.828735847039537  0.7992449180779035  0.9353866709298057  1.0000
  H   H18       1.0  0.68430619497896  0.1083448427019198  0.9979958703341832  1.0000
  H   H19       1.0  0.7110032801349733  0.0890728327225685  0.23128063534163054  1.0000
  H   H20       1.0  0.6840677461632417  0.0038586270049059115  0.35051207632809245  1.0000
  C   C32       1.0  0.8263588071256189  0.4054732648004061  0.17867515677322607  1.0000
  C   C33       1.0  0.82797441190667  0.5421582779024816  0.16729088650227286  1.0000
  C   C34       1.0  0.828739582363194  0.6116003371863901  0.04436166046690548  1.0000
  C   C35       1.0  0.8278427936488069  0.5425206107521332  0.9319803483610295  1.0000
  C   C36       1.0  0.8262298780064823  0.40575163193404806  0.9414223253715267  1.0000
  C   C37       1.0  0.8255008230097393  0.3380688635727014  0.06515715988251891  1.0000
  C   C38       1.0  0.8304495182104047  0.7561962932782165  0.033292031193542515  1.0000
  C   C39       1.0  0.8726728573776701  0.8232556000145408  0.11548085488680604  1.0000
  C   C40       1.0  0.8742876024945604  0.9593279171018888  0.10493284618585008  1.0000
  C   C41       1.0  0.834147205234836  0.031061176771669547  0.011086359989865398  1.0000
  C   C42       1.0  0.7911048342930279  0.9643774257592586  0.9306872558482442  1.0000
  C   C43       1.0  0.7895183301448799  0.8283324985504938  0.9409740318167297  1.0000
  N   N3        1.0  0.833902543575418  0.1711235683939467  0.9997942786441105  1.0000
  C   C44       1.0  0.8928403214158082  0.24902889809967957  0.022504014153215127  1.0000
  O   O1        1.0  0.9521342378326301  0.19851618158197448  0.030549211968619032  1.0000
  C   C45       1.0  0.884790945628941  0.3930050296371173  0.027113005859021422  1.0000
  H   H21       1.0  0.8257589243072376  0.35289610191929227  0.51052962952987  1.0000
  H   H22       1.0  0.82768053724004  0.5949854429323309  0.2542220280290044  1.0000
  H   H23       1.0  0.8293407082600606  0.5955110323874698  0.8369740867535688  1.0000
  H   H24       1.0  0.8242570237586947  0.23264047602298435  0.07322319685529188  1.0000
  H   H25       1.0  0.8236031284373801  0.14758424352733804  0.7519478909583571  1.0000
  H   H26       1.0  0.9048567173953994  0.7704293091696152  0.18742843294664846  1.0000
  H   H27       1.0  0.906031708678291  0.00808500291148029  0.17168045264050089  1.0000
  H   H28       1.0  0.7589406700827118  0.018078434240273552  0.859308438087711  1.0000
  H   H29       1.0  0.7555209440132064  0.7795702731832456  0.8779293707930651  1.0000
  H   H30       1.0  0.7893241030367313  0.21940648149308342  0.9651972826801247  1.0000
  H   H31       1.0  0.8364313183844989  0.4156153221951713  0.07892269360800297  1.0000
  H   H32       1.0  0.8829477566269112  0.43971040003510736  0.9263899229358701  1.0000
  H   H33       1.0  0.928675773584921  0.43296506767723614  0.07938678182435344  1.0000
  Zn  Zn1       1.0  0.7509303635370229  0.40700681146028833  0.5606755171085982  1.0000
  Zn  Zn2       1.0  0.901651734840173  0.4042175576372551  0.5594213920787066  1.0000
  C   C46       1.0  0.8262520471278573  0.4005249172218164  0.7972489408597923  1.0000
  C   C47       1.0  0.826331697311031  0.41070106021857655  0.32284808141157373  1.0000
  C   C48       1.0  0.8263221539510326  0.642822324689025  0.5547737954737538  1.0000
  C   C49       1.0  0.826261538844995  0.16840209329698458  0.5653232971210439  1.0000
  O   O2        1.0  0.8835205732001142  0.4113913826186049  0.3707579004253141  1.0000
  O   O3        1.0  0.8834572045400336  0.3977166357692138  0.7483868965281579  1.0000
  O   O4        1.0  0.8835130454020451  0.5933748713299015  0.5525865069252176  1.0000
  O   O5        1.0  0.8834646809247619  0.2157331572651553  0.56655819307644  1.0000
  O   O6        1.0  0.7691173660186282  0.5954912127856349  0.5535387165320043  1.0000
  O   O7        1.0  0.7690615253656721  0.3998345376325776  0.7493390362326525  1.0000
  O   O8        1.0  0.7691248943296153  0.4135092386516239  0.3717084787287144  1.0000
  O   O9        1.0  0.7690690020337984  0.21785100404418367  0.5675088687527945  1.0000
