data_image0
_chemical_formula_structural       NC6NC3H6C7NH3C6IH3Zn2C4O8
_chemical_formula_sum              "N3 C26 H12 I1 Zn2 O8"
_cell_length_a       14.934028789175542
_cell_length_b       9.275154477615127
_cell_length_c       9.275433903346869
_cell_angle_alpha    86.39417635758981
_cell_angle_beta     89.94113207268822
_cell_angle_gamma    89.3962875590186

_space_group_name_H-M_alt    "P 1"
_space_group_IT_number       1

loop_
  _space_group_symop_operation_xyz
  'x, y, z'

loop_
  _atom_site_type_symbol
  _atom_site_label
  _atom_site_symmetry_multiplicity
  _atom_site_fract_x
  _atom_site_fract_y
  _atom_site_fract_z
  _atom_site_occupancy
  N   N1        1.0  0.8341994293340522  0.5602059161173105  0.4162096324188119  1.0000
  C   C1        1.0  0.7567203955223958  0.5591007610496548  0.4155266541984481  1.0000
  C   C2        1.0  0.6603326043166491  0.5577208688706352  0.41467408169555764  1.0000
  C   C3        1.0  0.611888953488139  0.6651866562291486  0.48096602653419945  1.0000
  C   C4        1.0  0.5183842502186272  0.6640787096515692  0.4802824435645287  1.0000
  C   C5        1.0  0.4724103010663943  0.5555598206107311  0.4133409468372512  1.0000
  C   C6        1.0  0.37574977640743246  0.5578882167146404  0.41477853837146705  1.0000
  N   N2        1.0  0.29825794530152405  0.5597360960686806  0.4159197767421381  1.0000
  C   C7        1.0  0.5208578041153368  0.4466072616922323  0.34613131270611563  1.0000
  C   C8        1.0  0.473289297599371  0.3286246849319241  0.2733532212953418  1.0000
  C   C9        1.0  0.6149864104171219  0.4488457602567551  0.34751221744583805  1.0000
  H   H1        1.0  0.6463965949338164  0.7498597344340163  0.5331985190510207  1.0000
  H   H2        1.0  0.48181607939360466  0.7480996808547773  0.5321125305023695  1.0000
  H   H3        1.0  0.43027716953698997  0.3767433160896147  0.18496904326207364  1.0000
  H   H4        1.0  0.4308953518498068  0.2666428625410388  0.3531922966977106  1.0000
  H   H5        1.0  0.5212324606518218  0.2522055929392357  0.22620650079469362  1.0000
  H   H6        1.0  0.6530405571897763  0.36594252146436074  0.29637191039106203  1.0000
  C   C10       1.0  0.06882490446898504  0.13656133836887885  0.41439554247178  1.0000
  C   C11       1.0  0.04430170290858146  0.21841407680423772  0.2873558267262992  1.0000
  C   C12       1.0  0.012492145730552242  0.1511282563704068  0.1670509569213254  1.0000
  C   C13       1.0  0.004681785068259228  0.0010721428435389653  0.17236904546472195  1.0000
  C   C14       1.0  0.030036168254070177  0.9179800888896953  0.2965121237006727  1.0000
  C   C15       1.0  0.06364114126928966  0.9833697042238836  0.4177463052268997  1.0000
  C   C16       1.0  0.9867783129027156  0.2365477273950194  0.038480640416493454  1.0000
  N   N3        1.0  0.966111525071438  0.30520941910770594  0.9351430385952008  1.0000
  H   H7        1.0  0.08603272684542906  0.2169766241097424  0.768104057908356  1.0000
  H   H8        1.0  0.9797570163590326  0.947987348415786  0.07990749530682839  1.0000
  H   H9        1.0  0.07902799949246497  0.68710429309208  0.654738662366394  1.0000
  C   C17       1.0  0.06641773821543406  0.5554651012317029  0.992900669140921  1.0000
  C   C18       1.0  0.14891913543589297  0.5526822940976182  0.06629332678262112  1.0000
  C   C19       1.0  0.22952221736980813  0.5631878633052863  0.9901660860867637  1.0000
  C   C20       1.0  0.2289139910201543  0.5768115532484623  0.8396746755097493  1.0000
  C   C21       1.0  0.14794310715918788  0.5774134074703896  0.7647519249813315  1.0000
  C   C22       1.0  0.06604829362776998  0.5644658721851505  0.8392411026567363  1.0000
  I   I1        1.0  0.3521875224751454  0.5611496204120536  0.10286628599733216  1.0000
  H   H10       1.0  0.8524409146538877  0.6411013102408099  0.09086161802428516  1.0000
  H   H11       1.0  0.29131173506875263  0.5855622409979955  0.780459606794427  1.0000
  H   H12       1.0  0.9215766031699709  0.6160586099161667  0.5550591975526924  1.0000
  Zn  Zn1       1.0  0.9681167263622192  0.5600665609072841  0.41613428628696636  1.0000
  Zn  Zn2       1.0  0.16434074549653369  0.5598637657329504  0.4160068576475845  1.0000
  C   C23       1.0  0.06615129715170598  0.5570205650997588  0.6792419369746103  1.0000
  C   C24       1.0  0.06630830626885809  0.5629115800855189  0.15289935420487089  1.0000
  C   C25       1.0  0.06461887656766337  0.8232438121410413  0.4113704919587693  1.0000
  C   C26       1.0  0.06784067046618933  0.2966866016255283  0.4207708692374519  1.0000
  O   O1        1.0  0.1407376110456967  0.565327436388233  0.2065479911238106  1.0000
  O   O2        1.0  0.14065148942268746  0.5544496998167114  0.6254961655401052  1.0000
  O   O3        1.0  0.13941303592970744  0.7694283556278784  0.4091880850390137  1.0000
  O   O4        1.0  0.141975997564735  0.3503487898115245  0.4228559636614273  1.0000
  O   O5        1.0  0.9904814073323844  0.7695815368994027  0.4092851803090355  1.0000
  O   O6        1.0  0.9917198502504414  0.5546046125776374  0.6255931908292982  1.0000
  O   O7        1.0  0.991805972996852  0.5654822804786988  0.2066432836705021  1.0000
  O   O8        1.0  0.9930443595281983  0.3505036247382247  0.4229513642075051  1.0000
