data_image0
_chemical_formula_structural       NC9NC3NH7C6SCNH4C8NH7Zn2C4O8
_chemical_formula_sum              "N5 C31 H18 S1 Zn2 O8"
_cell_length_a       16.053384444249904
_cell_length_b       10.302215558581763
_cell_length_c       9.274266800404106
_cell_angle_alpha    85.99272178288915
_cell_angle_beta     89.35588104550887
_cell_angle_gamma    89.19414689339631

_space_group_name_H-M_alt    "P 1"
_space_group_IT_number       1

loop_
  _space_group_symop_operation_xyz
  'x, y, z'

loop_
  _atom_site_type_symbol
  _atom_site_label
  _atom_site_symmetry_multiplicity
  _atom_site_fract_x
  _atom_site_fract_y
  _atom_site_fract_z
  _atom_site_occupancy
  N   N1        1.0  0.7919656030601347  0.39273480683058004  0.4068254439941703  1.0000
  C   C1        1.0  0.7415857984146391  0.37136214244460963  0.32374439398731014  1.0000
  C   C2        1.0  0.6789772909365441  0.3448065262019777  0.22053747606827415  1.0000
  C   C3        1.0  0.6932551528580867  0.33174335934248167  0.07542645285450346  1.0000
  C   C4        1.0  0.6168906645171761  0.3060277247390215  0.017423536247354706  1.0000
  C   C5        1.0  0.5592790439590085  0.3048325229796207  0.1302755238114424  1.0000
  C   C6        1.0  0.4686735343857424  0.28093990036782257  0.11889901088966305  1.0000
  C   C7        1.0  0.4123103018757938  0.32435159049698226  0.22313789167752507  1.0000
  C   C8        1.0  0.326806757443087  0.3016909367350413  0.2122413693219174  1.0000
  C   C9        1.0  0.2696517934118622  0.34686496377999365  0.3191132023405392  1.0000
  N   N2        1.0  0.22371594044109316  0.38317849989549146  0.405021419615881  1.0000
  C   C10       1.0  0.2969403223024397  0.23550674179393363  0.09712117031564671  1.0000
  C   C11       1.0  0.3522939545379876  0.19221623503884405  0.9931172496366385  1.0000
  C   C12       1.0  0.4375935098231503  0.21470820732156692  0.003573557617930993  1.0000
  N   N3        1.0  0.5979066320690283  0.32864226558935306  0.2541006824326626  1.0000
  H   H1        1.0  0.7522532882804517  0.3399858321315463  0.018135430747919127  1.0000
  H   H2        1.0  0.6051406229497115  0.29149284120324354  0.9051205086779671  1.0000
  H   H3        1.0  0.4342343852571836  0.3774000036539946  0.31171790469903204  1.0000
  H   H4        1.0  0.2309570178684087  0.21748099361216108  0.08775913739938046  1.0000
  H   H5        1.0  0.3290810701533836  0.14080738358677714  0.9042778688091575  1.0000
  H   H6        1.0  0.4790767719945988  0.17871934184962865  0.922266572136119  1.0000
  H   H7        1.0  0.5712726074354194  0.3317108032135722  0.3570606612860088  1.0000
  C   C13       1.0  0.007762180452017152  0.006685931970517253  0.40588406273198263  1.0000
  C   C14       1.0  0.09105083549669035  0.0010769242127754897  0.4508947953475489  1.0000
  C   C15       1.0  0.13249678846300506  0.8812480542311598  0.47374992612837025  1.0000
  C   C16       1.0  0.09126682315208856  0.7658977586338188  0.4510159501721378  1.0000
  C   C17       1.0  0.007927230724860347  0.7692173007666312  0.40597517356607327  1.0000
  C   C18       1.0  0.9666229660717919  0.8901216290896568  0.3837124229722736  1.0000
  S   S1        1.0  0.2389095458128014  0.8756010402904914  0.5306139211130375  1.0000
  C   C19       1.0  0.2105884873244639  0.8646416202562248  0.7154521123314517  1.0000
  N   N4        1.0  0.19199617969524863  0.8574577386714359  0.8366294635853484  1.0000
  H   H8        1.0  0.12404654921550273  0.0894406253735096  0.4686437644586472  1.0000
  H   H9        1.0  0.12441058706456642  0.6739769950613401  0.46884803863007973  1.0000
  H   H10       1.0  0.902387265323082  0.8935979989710748  0.34901856852599966  1.0000
  H   H11       1.0  0.8508685152739751  0.5682654008779137  0.3209300961912419  1.0000
  C   C20       1.0  0.0097601867522934  0.3850704528967579  0.9826105653520045  1.0000
  C   C21       1.0  0.9613277018539066  0.2931975811450769  0.06395122548429644  1.0000
  C   C22       1.0  0.9078562113383306  0.21153386992751205  0.9962676535156065  1.0000
  C   C23       1.0  0.9010352157128331  0.22050955406730718  0.8455993548429155  1.0000
  C   C24       1.0  0.9506107120908903  0.3092530889252316  0.7629472937153694  1.0000
  C   C25       1.0  0.005929227342195804  0.3908328064812654  0.8292486714811921  1.0000
  C   C26       1.0  0.8442719736411846  0.13108246936116763  0.7727438169683642  1.0000
  C   C27       1.0  0.8893592545271197  0.011385357225446088  0.7413260385514193  1.0000
  N   N5        1.0  0.92494964392434  0.9169165677076075  0.7165273201417386  1.0000
  H   H12       1.0  0.10159462558106047  0.6687890511692343  0.06169653827075905  1.0000
  H   H13       1.0  0.963453213903287  0.2864262753196112  0.18095555735218066  1.0000
  H   H14       1.0  0.8710759279908146  0.14196085575613826  0.06165683538232237  1.0000
  H   H15       1.0  0.9473669935503812  0.3122873313933652  0.646070208331043  1.0000
  H   H16       1.0  0.07078486306139277  0.579262802114205  0.5326605564389013  1.0000
  H   H17       1.0  0.8205195599902945  0.17914873231571413  0.6700797538484595  1.0000
  H   H18       1.0  0.7896270866868481  0.10561512847807505  0.8431305016098877  1.0000
  Zn  Zn1       1.0  0.9165593834548014  0.3899736570486482  0.4063131581557142  1.0000
  Zn  Zn2       1.0  0.09912208098545228  0.3859291521905355  0.40554548599350726  1.0000
  C   C28       1.0  0.006650400811104124  0.38457129514576893  0.6692153597672608  1.0000
  C   C29       1.0  0.009033056922562288  0.3913331090880736  0.14264341768244315  1.0000
  C   C30       1.0  0.007917759437377379  0.6250436612722403  0.40021356505181704  1.0000
  C   C31       1.0  0.007765635314945121  0.15085918496408923  0.4116452893281817  1.0000
  O   O1        1.0  0.07807061656244096  0.3918943809182691  0.1960605765808248  1.0000
  O   O2        1.0  0.07617370604935664  0.3809393554172307  0.6152151403747259  1.0000
  O   O3        1.0  0.07719617343657005  0.5751238631451622  0.39799429199834135  1.0000
  O   O4        1.0  0.077048087370031  0.1977098831226329  0.41328131713450145  1.0000
  O   O5        1.0  0.9386333147705683  0.5781929274981044  0.39857732726910694  1.0000
  O   O6        1.0  0.9376108480650444  0.3840099791492382  0.6157980989695836  1.0000
  O   O7        1.0  0.93950776646605  0.39496494760862033  0.19664180201701575  1.0000
  O   O8        1.0  0.9384852367791822  0.20078044126224157  0.41386265064778693  1.0000
