data_image0
_chemical_formula_structural       NC8NH4C6ClH5C6OCH7Zn2C4O8
_chemical_formula_sum              "N2 C25 H16 Cl1 O9 Zn2"
_cell_length_a       14.927258825633057
_cell_length_b       9.276545438789551
_cell_length_c       9.273891588657152
_cell_angle_alpha    86.10611493905307
_cell_angle_beta     89.68012686031724
_cell_angle_gamma    89.40960858786079

_space_group_name_H-M_alt    "P 1"
_space_group_IT_number       1

loop_
  _space_group_symop_operation_xyz
  'x, y, z'

loop_
  _atom_site_type_symbol
  _atom_site_label
  _atom_site_symmetry_multiplicity
  _atom_site_fract_x
  _atom_site_fract_y
  _atom_site_fract_z
  _atom_site_occupancy
  N   N1        1.0  0.8390666590994001  0.5637223796540596  0.410998157802579  1.0000
  C   C1        1.0  0.7615402348872299  0.5637223532927889  0.41099816743905637  1.0000
  C   C2        1.0  0.6651075929490918  0.5637223535000242  0.4109982225193311  1.0000
  C   C3        1.0  0.6189373446075508  0.47460890733772515  0.3212093327824075  1.0000
  C   C4        1.0  0.5252260337273336  0.4746088172603633  0.3212093042658244  1.0000
  C   C5        1.0  0.4772915955102646  0.5637224057442809  0.4109981347341797  1.0000
  C   C6        1.0  0.5234618441705127  0.6528358612450211  0.5007869164094572  1.0000
  C   C7        1.0  0.6171732220422641  0.6528359513194708  0.500786944931963  1.0000
  C   C8        1.0  0.3808589545856528  0.5637223076407255  0.4109980797400309  1.0000
  N   N2        1.0  0.3033325296786633  0.5637223889286866  0.41099809138928545  1.0000
  H   H1        1.0  0.6553197744132743  0.40527342137193717  0.25134855612955653  1.0000
  H   H2        1.0  0.4902161183392146  0.4052733985779726  0.2513486533445699  1.0000
  H   H3        1.0  0.48707941436478913  0.7221713472108091  0.5706476930623083  1.0000
  H   H4        1.0  0.6521830701201419  0.7221713606663323  0.5706477039089406  1.0000
  C   C9        1.0  0.07390842321782021  0.14028507498932075  0.4107605323286838  1.0000
  C   C10       1.0  0.07470804818703812  0.22273623995261935  0.27771977341477383  1.0000
  C   C11       1.0  0.06734741255777243  0.15648267035164157  0.14757467079762288  1.0000
  C   C12       1.0  0.059009116550188034  0.006899588794743616  0.1484680766294244  1.0000
  C   C13       1.0  0.05960006531040185  0.9228879768223733  0.27906687065274594  1.0000
  C   C14       1.0  0.06849940475724314  0.9871487030335772  0.41124822239686426  1.0000
  Cl  Cl1       1.0  0.06722293532347456  0.261619438539042  0.983018237560166  1.0000
  H   H5        1.0  0.11894087290584832  0.4052886387406533  0.6373766026985566  1.0000
  H   H6        1.0  0.07891558093476281  0.33943105827643905  0.2748659976604402  1.0000
  H   H7        1.0  0.052922708217411074  0.9552695754964261  0.047780054105842185  1.0000
  H   H8        1.0  0.055229578770009224  0.8066035986433645  0.2764163734832197  1.0000
  H   H9        1.0  0.037661911690208605  0.6905159817520252  0.6443259091112383  1.0000
  C   C15       1.0  0.07269587344055162  0.5598979794090739  0.9877268396721467  1.0000
  C   C16       1.0  0.14567026114645995  0.6208023545876242  0.05633560889771605  1.0000
  C   C17       1.0  0.21349442752514558  0.6924740287098072  0.9765671328947714  1.0000
  C   C18       1.0  0.2085860669776074  0.7036026433817099  0.8251329288715232  1.0000
  C   C19       1.0  0.137499329674188  0.6418251721208352  0.7551814588820678  1.0000
  C   C20       1.0  0.06971191331010675  0.5675357050663759  0.8342818787750117  1.0000
  O   O1        1.0  0.2840336521104019  0.7516030420906437  0.05180778761394733  1.0000
  C   C21       1.0  0.35731919333873985  0.8274897091928654  0.9847751132013229  1.0000
  H   H10       1.0  0.860178654108127  0.47133470627014185  0.09869308878580219  1.0000
  H   H11       1.0  0.25983950557661784  0.7586644946040755  0.7602424985736742  1.0000
  H   H12       1.0  0.1367290258417342  0.6492567483955549  0.6381045623230104  1.0000
  H   H13       1.0  0.9280312554712291  0.5021936189430076  0.5588016094166481  1.0000
  H   H14       1.0  0.3326488769918594  0.9250672603831848  0.9204357273213842  1.0000
  H   H15       1.0  0.39512911103284987  0.7559262611080313  0.9143212330714529  1.0000
  H   H16       1.0  0.40295633438902656  0.8619558887047641  0.06963850375236547  1.0000
  Zn  Zn1       1.0  0.9730437646298226  0.5637185860433007  0.41100646865654267  1.0000
  Zn  Zn2       1.0  0.16935547113052518  0.5637144517598061  0.4110016098248479  1.0000
  C   C22       1.0  0.07031065200240705  0.5603476722624252  0.6742615599285713  1.0000
  C   C23       1.0  0.07209071535639988  0.567087186145997  0.1477466610212046  1.0000
  C   C24       1.0  0.06953744186398914  0.8270215952864726  0.4054121567911084  1.0000
  C   C25       1.0  0.07286386930168653  0.30041153139870547  0.41659614000995154  1.0000
  O   O2        1.0  0.14638692848489065  0.5694920899384368  0.20144892734117148  1.0000
  O   O3        1.0  0.1450104901747047  0.5579385391062108  0.6205551903133916  1.0000
  O   O4        1.0  0.1443851036406829  0.7732811180435577  0.4034573960140141  1.0000
  O   O5        1.0  0.14701224834608514  0.3541495203424439  0.4185466135729809  1.0000
  O   O6        1.0  0.9953869204227289  0.7732835174635758  0.403461464902487  1.0000
  O   O7        1.0  0.9960122961583483  0.5579426702523851  0.620559183344658  1.0000
  O   O8        1.0  0.9973887409574822  0.5694961552012074  0.20145118736054846  1.0000
  O   O9        1.0  0.9980140604999697  0.35415357626677274  0.4185489816540041  1.0000
