data_image0
_chemical_formula_structural       NC8NC6H8C6NCOCH7C6OCH6Zn2C4O8
_chemical_formula_sum              "N3 C33 H21 O10 Zn2"
_cell_length_a       17.457602349358154
_cell_length_b       10.300268703208214
_cell_length_c       9.273891588657152
_cell_angle_alpha    86.07587478402297
_cell_angle_beta     92.54290593679646
_cell_angle_gamma    91.66828978603887

_space_group_name_H-M_alt    "P 1"
_space_group_IT_number       1

loop_
  _space_group_symop_operation_xyz
  'x, y, z'

loop_
  _atom_site_type_symbol
  _atom_site_label
  _atom_site_symmetry_multiplicity
  _atom_site_fract_x
  _atom_site_fract_y
  _atom_site_fract_z
  _atom_site_occupancy
  N   N1        1.0  0.7266559559507653  0.4405468007639202  0.47595384827464504  1.0000
  C   C1        1.0  0.6656224016614052  0.3945306811392677  0.46417591014775783  1.0000
  C   C2        1.0  0.5896940444691089  0.3372924269364626  0.44953474260756043  1.0000
  C   C3        1.0  0.530910305089411  0.3781157613595467  0.5326392097153381  1.0000
  C   C4        1.0  0.4564175723163011  0.3230010696302032  0.5186797624019246  1.0000
  C   C5        1.0  0.3940279015403096  0.36610661432945546  0.6066905480707152  1.0000
  C   C6        1.0  0.319661292345422  0.38407909611350144  0.5448156586373518  1.0000
  C   C7        1.0  0.2608772318258077  0.42471947563181733  0.628039914200859  1.0000
  C   C8        1.0  0.18507964693092416  0.4432781168438278  0.5637067643733789  1.0000
  N   N2        1.0  0.1241513059882788  0.4581928864732999  0.5119830796690903  1.0000
  C   C9        1.0  0.2759658917596979  0.44763500804890644  0.7737032974905074  1.0000
  C   C10       1.0  0.349546439726061  0.43005492328190065  0.8360082510168497  1.0000
  C   C11       1.0  0.4083173496308694  0.3895986452053365  0.7532918724179652  1.0000
  C   C12       1.0  0.4420020868755938  0.2263729623819704  0.42002591626753527  1.0000
  C   C13       1.0  0.5007727325335796  0.1858318361362825  0.3373652806012529  1.0000
  C   C14       1.0  0.5744788637435776  0.24106377343748853  0.3519349420219242  1.0000
  H   H1        1.0  0.5430193293849382  0.4538957652223365  0.6065699027749657  1.0000
  H   H2        1.0  0.3076556800934705  0.36820494766732326  0.4316110417274055  1.0000
  H   H3        1.0  0.23090465398272045  0.47903744943822674  0.8389859886699615  1.0000
  H   H4        1.0  0.3610392531744469  0.4474833110276155  0.9487986649013488  1.0000
  H   H5        1.0  0.46465403419986784  0.3750168509286659  0.8044513363740009  1.0000
  H   H6        1.0  0.38556180919365607  0.18094614876253173  0.4082078888718673  1.0000
  H   H7        1.0  0.4891812402636752  0.11115758588753599  0.2621049191370762  1.0000
  H   H8        1.0  0.619538638167633  0.20879622929066646  0.28721940950587377  1.0000
  C   C15       1.0  0.9254851928928856  0.06802587373593184  0.49398437418539093  1.0000
  C   C16       1.0  0.9388608396666486  0.07678845970069892  0.34536559316846144  1.0000
  C   C17       1.0  0.9466462008072235  0.9639524579573313  0.2708791441043814  1.0000
  C   C18       1.0  0.93868722043063  0.8416215254857489  0.34538581454315564  1.0000
  C   C19       1.0  0.9253293506420608  0.8307042385268225  0.4939656633839482  1.0000
  C   C20       1.0  0.9190873385082897  0.9445193718977605  0.567594250886065  1.0000
  N   N3        1.0  0.959147360732757  0.9712776393060849  0.11824933252386297  1.0000
  C   C21       1.0  0.0044048228195445755  0.0717652004029823  0.04490236732893638  1.0000
  O   O1        1.0  0.04751533712769309  0.14721519449658696  0.11536976229367224  1.0000
  C   C22       1.0  0.004916132317758228  0.08136207337563817  0.8834835388177815  1.0000
  H   H9        1.0  0.9417061695645531  0.17128762193759028  0.28698616794511445  1.0000
  H   H10       1.0  0.943623679581561  0.7549990893971172  0.28683226806794115  1.0000
  H   H11       1.0  0.9087919866644285  0.936952714632414  0.6822276347351843  1.0000
  H   H12       1.0  0.9381929141559977  0.8944528579776171  0.05843577210694195  1.0000
  H   H13       1.0  0.9463350608840998  0.06139441813860056  0.8373090892692046  1.0000
  H   H14       1.0  0.024056346221393642  0.18053024444833055  0.8431895173460138  1.0000
  H   H15       1.0  0.04462274427094417  0.009076906409811729  0.8474050299049313  1.0000
  C   C23       1.0  0.9266644928200523  0.44598156568207226  0.0708136705003144  1.0000
  C   C24       1.0  0.9894655826681343  0.503619981244821  0.14507937440818935  1.0000
  C   C25       1.0  0.04791405434079344  0.5707621984830538  0.07056705006549427  1.0000
  C   C26       1.0  0.04377042200456892  0.5806006786172586  0.9187507956288266  1.0000
  C   C27       1.0  0.982580887464312  0.5222474949119637  0.8432889709819151  1.0000
  C   C28       1.0  0.9241500466008656  0.45274847631322573  0.91713635889854  1.0000
  O   O2        1.0  0.10862082335767509  0.6267087497835073  0.15127584066744815  1.0000
  C   C29       1.0  0.17176749126687474  0.6978555572457223  0.0899227157942859  1.0000
  H   H16       1.0  0.7442434052687524  0.35812323470129925  0.1652966194242409  1.0000
  H   H17       1.0  0.08794358656745782  0.632150364448206  0.8578322475078024  1.0000
  H   H18       1.0  0.8025005457401062  0.3885009893242175  0.6306676720875558  1.0000
  H   H19       1.0  0.15116090318837982  0.7848190974959575  0.023658816181693517  1.0000
  H   H20       1.0  0.20376142065471695  0.6348258361502856  0.02241038526774842  1.0000
  H   H21       1.0  0.21102325346494546  0.7306384839920195  0.17832424305291  1.0000
  Zn  Zn1       1.0  0.8413645036239245  0.44563566397268106  0.48635942645694646  1.0000
  Zn  Zn2       1.0  0.009442711189583175  0.453093470466794  0.5015892994443494  1.0000
  C   C30       1.0  0.9246246894676893  0.44629600561769456  0.7571632401284263  1.0000
  C   C31       1.0  0.9261843599996368  0.45243484990490024  0.23078579347735162  1.0000
  C   C32       1.0  0.9253719311805342  0.6864956860250052  0.48822656099799416  1.0000
  C   C33       1.0  0.9254370610239746  0.21223360736573205  0.499722544275304  1.0000
  O   O3        1.0  0.989808028020805  0.45742516436570263  0.2902535568782709  1.0000
  O   O4        1.0  0.9885684933564429  0.4469650107483769  0.709254183139606  1.0000
  O   O5        1.0  0.9891710361884181  0.6409292642448988  0.4920858340233863  1.0000
  O   O6        1.0  0.9892054281542287  0.26346091675005373  0.5074217927518353  1.0000
  O   O7        1.0  0.8616017293024587  0.6352682151457913  0.4805269279446723  1.0000
  O   O8        1.0  0.8609991863764794  0.44130552123749645  0.6976952001885839  1.0000
  O   O9        1.0  0.8622387262483878  0.45176561575141494  0.27869284142567113  1.0000
  O   O10       1.0  0.8616361260595916  0.2578013597112625  0.49586118533710316  1.0000
