data_image0
_chemical_formula_structural       NC9NC5H8C7F3H5C6NO2H2Zn2C4O8
_chemical_formula_sum              "N3 C31 H15 F3 O10 Zn2"
_cell_length_a       17.807436237873137
_cell_length_b       9.272718291674593
_cell_length_c       9.273395971720356
_cell_angle_alpha    85.39368926886713
_cell_angle_beta     89.26497821809997
_cell_angle_gamma    87.96869977406762

_space_group_name_H-M_alt    "P 1"
_space_group_IT_number       1

loop_
  _space_group_symop_operation_xyz
  'x, y, z'

loop_
  _atom_site_type_symbol
  _atom_site_label
  _atom_site_symmetry_multiplicity
  _atom_site_fract_x
  _atom_site_fract_y
  _atom_site_fract_z
  _atom_site_occupancy
  N   N1        1.0  0.7029987344943126  0.557512532344717  0.4079033976671631  1.0000
  C   C1        1.0  0.6425743659908933  0.5185687806748656  0.3953524115732028  1.0000
  C   C2        1.0  0.5674130927553591  0.4701270425050443  0.379740348103861  1.0000
  C   C3        1.0  0.549741786861974  0.39204896057413285  0.26242096613024357  1.0000
  C   C4        1.0  0.47676463219065823  0.34489292867347343  0.2471698756258944  1.0000
  C   C5        1.0  0.42041172295568513  0.3753961819856431  0.3491989053876364  1.0000
  C   C6        1.0  0.342855237319488  0.32540810779876095  0.3330831460715462  1.0000
  C   C7        1.0  0.2802994603902598  0.4158822063504733  0.36260637751117053  1.0000
  C   C8        1.0  0.2071808590389014  0.3685005826244714  0.34736877861708915  1.0000
  C   C9        1.0  0.1435630296794294  0.46195868701046106  0.377319247937252  1.0000
  N   N2        1.0  0.09242730906771457  0.5370925244901672  0.4013985683757842  1.0000
  C   C10       1.0  0.19603562618588993  0.23035871779188  0.3025775908680608  1.0000
  C   C11       1.0  0.2577341018823525  0.1398693360206753  0.27304491680779486  1.0000
  C   C12       1.0  0.330735185587001  0.18681524206897926  0.28805405029343667  1.0000
  C   C13       1.0  0.4387720718338572  0.45402062487208106  0.46676614944457473  1.0000
  C   C14       1.0  0.511803084018904  0.5009670613585102  0.4818426174961274  1.0000
  H   H1        1.0  0.592310604939123  0.36791282450767143  0.1825186355586734  1.0000
  H   H2        1.0  0.46417217136802585  0.2862482465486096  0.15454601304827184  1.0000
  H   H3        1.0  0.2883468001553289  0.5237637340163837  0.3955282053396335  1.0000
  H   H4        1.0  0.13972834109326684  0.1926909423819343  0.2905132520829077  1.0000
  H   H5        1.0  0.2489861843397032  0.032912247355114  0.23879570106916903  1.0000
  H   H6        1.0  0.3776791879367988  0.11403867423296998  0.26632527111927184  1.0000
  H   H7        1.0  0.3969210575562692  0.4775432845009408  0.548102825258751  1.0000
  H   H8        1.0  0.5249197684739229  0.5609790069328697  0.573318973119115  1.0000
  C   C15       1.0  0.8993561373761846  0.12386687857683731  0.40143487316309745  1.0000
  C   C16       1.0  0.8536485385031128  0.20861404024634414  0.3024412014181791  1.0000
  C   C17       1.0  0.8026130158149631  0.14467777131373372  0.21492614721171446  1.0000
  C   C18       1.0  0.7992794107339755  0.9934761013868139  0.22342100209258883  1.0000
  C   C19       1.0  0.8450462059133141  0.907799266335306  0.31929011744435454  1.0000
  C   C20       1.0  0.8960771004178745  0.9707266036591821  0.4078794663863469  1.0000
  C   C21       1.0  0.7555475158546078  0.23718900270050122  0.10677185497847641  1.0000
  F   F1        1.0  0.7361883775275522  0.3690775669006432  0.15955631457476716  1.0000
  F   F2        1.0  0.6899835802271337  0.16954021688858448  0.07770868629142778  1.0000
  F   F3        1.0  0.7962058355467474  0.26115466717225577  0.9796489739912996  1.0000
  H   H9        1.0  0.9882758952056078  0.19465652082865814  0.7114738243136867  1.0000
  H   H10       1.0  0.8566544251093541  0.3254951495933515  0.2956725675341822  1.0000
  H   H11       1.0  0.76178739505583  0.941071568602941  0.15463290003297114  1.0000
  H   H12       1.0  0.8419774399729065  0.7911708848250834  0.3212835153745943  1.0000
  H   H13       1.0  0.05722024327924568  0.8445557435194563  0.578924669724902  1.0000
  C   C22       1.0  0.8981270904962103  0.551704030634312  0.9807470002362857  1.0000
  C   C23       1.0  0.8310257706312195  0.5881277163110183  0.05270284706671435  1.0000
  C   C24       1.0  0.7637669102679562  0.6109281038645621  0.9775423282718928  1.0000
  C   C25       1.0  0.7617018680909233  0.597791949510506  0.8281822307039068  1.0000
  C   C26       1.0  0.8287534658581167  0.5638411037149244  0.7548081787555181  1.0000
  C   C27       1.0  0.8973061404335818  0.5428894549619341  0.8285673154452239  1.0000
  N   N3        1.0  0.691968818735691  0.6202416373883797  0.751351329024324  1.0000
  O   O1        1.0  0.626546774815778  0.6546544221353645  0.823452508830022  1.0000
  O   O2        1.0  0.689621746260565  0.6084839643715217  0.6183053296612151  1.0000
  H   H14       1.0  0.06317881888463317  0.38154386626277126  0.09319318433185407  1.0000
  H   H15       1.0  0.7131031253430452  0.6374896666471406  0.03695197318414833  1.0000
  Zn  Zn1       1.0  0.8153794146167449  0.5516158248551499  0.406034563778299  1.0000
  Zn  Zn2       1.0  0.980046644767676  0.5429773547248522  0.40327918039329586  1.0000
  C   C28       1.0  0.8974818982989178  0.5388113333777844  0.6682674169607703  1.0000
  C   C29       1.0  0.8979459520647962  0.5557835697631028  0.14104645265255406  1.0000
  C   C30       1.0  0.8966986210119161  0.8107121040235346  0.4009088721871037  1.0000
  C   C31       1.0  0.8987291797957182  0.2838810688548057  0.4084050621450277  1.0000
  O   O3        1.0  0.9603755403817346  0.5538681552720872  0.19379871173045427  1.0000
  O   O4        1.0  0.9600309321404594  0.5341692654510934  0.6134234618227781  1.0000
  O   O5        1.0  0.9593975819720206  0.7537326049888802  0.3975295708177098  1.0000
  O   O6        1.0  0.9610088344252669  0.33430483012230466  0.4096924955175521  1.0000
  O   O7        1.0  0.8344171687663112  0.760288352407232  0.3996212495867393  1.0000
  O   O8        1.0  0.8350505122979877  0.5407267460815274  0.6155150768056965  1.0000
  O   O9        1.0  0.8353951224643247  0.5604256036963349  0.19588859075714904  1.0000
  O   O10       1.0  0.8360284164399207  0.3408622671080823  0.41178248269491324  1.0000
