data_image0
_chemical_formula_structural       NC8NC6H8C6SCH6C6NH5Zn2C4O8
_chemical_formula_sum              "N3 C31 H19 S1 Zn2 O8"
_cell_length_a       17.457602349358154
_cell_length_b       10.302809429070853
_cell_length_c       9.274774538082514
_cell_angle_alpha    85.0636117428054
_cell_angle_beta     93.23827242343725
_cell_angle_gamma    91.68806441137123

_space_group_name_H-M_alt    "P 1"
_space_group_IT_number       1

loop_
  _space_group_symop_operation_xyz
  'x, y, z'

loop_
  _atom_site_type_symbol
  _atom_site_label
  _atom_site_symmetry_multiplicity
  _atom_site_fract_x
  _atom_site_fract_y
  _atom_site_fract_z
  _atom_site_occupancy
  N   N1        1.0  0.7174645922133841  0.46413274110044717  0.4731803339219263  1.0000
  C   C1        1.0  0.6563483238134333  0.41831251711947903  0.46137956323231893  1.0000
  C   C2        1.0  0.5803171373507455  0.36131778947932447  0.44671001163842794  1.0000
  C   C3        1.0  0.5220589954371623  0.40082655618415886  0.5299686368094383  1.0000
  C   C4        1.0  0.4474681106098274  0.3459441810479491  0.5159821138031633  1.0000
  C   C5        1.0  0.3856350413551991  0.38765757911667875  0.6041561555828268  1.0000
  C   C6        1.0  0.3108869894242522  0.40659728506666326  0.5421676724954632  1.0000
  C   C7        1.0  0.252629234548084  0.44592125965662927  0.6255463024110304  1.0000
  C   C8        1.0  0.1764350262342534  0.46548558287874914  0.5610950427771735  1.0000
  N   N2        1.0  0.11518779980311633  0.481208919730586  0.5092763979416381  1.0000
  C   C9        1.0  0.26862920537093116  0.46654424475380013  0.7714786996410149  1.0000
  C   C10       1.0  0.34259395305938883  0.4479900897817719  0.8338980490196091  1.0000
  C   C11       1.0  0.4008417560427925  0.40884219849019243  0.7510282365758586  1.0000
  C   C12       1.0  0.43241883865348435  0.25088808638153726  0.41714408682882365  1.0000
  C   C13       1.0  0.49066670699575643  0.21165449191583274  0.33433011797362333  1.0000
  C   C14       1.0  0.5644748122737349  0.26664450360343284  0.3489279825623264  1.0000
  H   H1        1.0  0.5346436645161228  0.475427699132805  0.6040374364711236  1.0000
  H   H2        1.0  0.29817353297461796  0.39250436503571534  0.42875403447702376  1.0000
  H   H3        1.0  0.22398071432680539  0.49691418665660114  0.8368824733371651  1.0000
  H   H4        1.0  0.3547923503801879  0.4636433821198813  0.946896758687294  1.0000
  H   H5        1.0  0.4574938823907733  0.3934606165489163  0.8022816289709032  1.0000
  H   H6        1.0  0.37589571780893993  0.20565765738897898  0.4053031674096794  1.0000
  H   H7        1.0  0.47859151996930505  0.13817971636417492  0.2589292264315699  1.0000
  H   H8        1.0  0.6091251931806649  0.235400760092904  0.28409239161315286  1.0000
  C   C15       1.0  0.9163299010219814  0.09141750668581645  0.491234972550944  1.0000
  C   C16       1.0  0.9601889274671772  0.10195961260233166  0.36822432160811425  1.0000
  C   C17       1.0  0.981800603496886  0.9902182101589421  0.3068354825351718  1.0000
  C   C18       1.0  0.9601888304484254  0.8668084511239583  0.368224235240475  1.0000
  C   C19       1.0  0.9163298704086459  0.8539143667998835  0.49123496219606366  1.0000
  C   C20       1.0  0.8945947328898467  0.9668654737908705  0.5521099901106317  1.0000
  S   S1        1.0  0.03797911857157765  0.005182701411263313  0.14985272368348723  1.0000
  C   C21       1.0  0.954427777833324  0.010826587207283469  0.02316471356331196  1.0000
  H   H9        1.0  0.9776092503634929  0.19671375234117483  0.31936248328804506  1.0000
  H   H10       1.0  0.9776090806443907  0.7813633524474817  0.31936235541940383  1.0000
  H   H11       1.0  0.8607517444476481  0.957827426454911  0.6469776121310642  1.0000
  H   H12       1.0  0.9192724868386111  0.9197112542281376  0.03921905412877535  1.0000
  H   H13       1.0  0.9192732038400359  0.09594625078860994  0.0392185945682264  1.0000
  H   H14       1.0  0.9738729752409075  0.020496676242631077  0.9108543737205554  1.0000
  C   C22       1.0  0.9149525989347581  0.4759273845787197  0.06729362833632502  1.0000
  C   C23       1.0  0.9693319309272996  0.5548771261523522  0.1389654205322091  1.0000
  C   C24       1.0  0.0271542321431153  0.6232800794680919  0.06344825990664416  1.0000
  C   C25       1.0  0.03106551045533369  0.6130523705979833  0.914825820333006  1.0000
  C   C26       1.0  0.9769323961890032  0.536973218847203  0.8414738112544278  1.0000
  C   C27       1.0  0.9177071605860748  0.469404440632336  0.91517625022261  1.0000
  N   N3        1.0  0.0824145908917005  0.7020870262808807  0.1382052563560625  1.0000
  H   H15       1.0  0.8002390727601298  0.217207892625749  0.1828029409918233  1.0000
  H   H16       1.0  0.07570867085606192  0.6651301163027337  0.8553467118466309  1.0000
  H   H17       1.0  0.8380866148319548  0.29899896226595035  0.641868383568228  1.0000
  H   H18       1.0  0.08018602711822487  0.7101329189815868  0.24937292144963297  1.0000
  H   H19       1.0  0.12595005641207946  0.7530962561594169  0.082914301852419  1.0000
  Zn  Zn1       1.0  0.8322389457422154  0.46905701161297286  0.4836052138066255  1.0000
  Zn  Zn2       1.0  0.00041347042340778175  0.47627391369393446  0.4988633374995031  1.0000
  C   C28       1.0  0.9171847820500553  0.46546525970155495  0.7549081266942406  1.0000
  C   C29       1.0  0.9154694710364063  0.4798673814469201  0.22756073292558218  1.0000
  C   C30       1.0  0.9163072321863412  0.70983030682699  0.4854816841664915  1.0000
  C   C31       1.0  0.9163469637640328  0.23550077143670878  0.49698724721470144  1.0000
  O   O1        1.0  0.9794642937032806  0.4839227930912395  0.28713821570735343  1.0000
  O   O2        1.0  0.9808305309725193  0.46688633352027414  0.7069107911678443  1.0000
  O   O3        1.0  0.9801210428938311  0.6642141510234467  0.4893469545315925  1.0000
  O   O4        1.0  0.9801737240437338  0.2865949832455812  0.5047019388923912  1.0000
  O   O5        1.0  0.8524786347321524  0.6587359396000236  0.4777666071992954  1.0000
  O   O6        1.0  0.853188122557192  0.4614096825203251  0.6953303668597349  1.0000
  O   O7        1.0  0.8518218797001197  0.4784461102042694  0.275556055703273  1.0000
  O   O8        1.0  0.8525313103890713  0.2811182902397942  0.4931198871250826  1.0000
