data_image0
_chemical_formula_structural       NC9NC4H8C9H10C7F3H5Zn2C4O8
_chemical_formula_sum              "N2 C33 H23 F3 Zn2 O8"
_cell_length_a       16.32274767691083
_cell_length_b       9.27267660452572
_cell_length_c       9.272721663655245
_cell_angle_alpha    86.12112079025516
_cell_angle_beta     89.98655041730063
_cell_angle_gamma    90.07922574154927

_space_group_name_H-M_alt    "P 1"
_space_group_IT_number       1

loop_
  _space_group_symop_operation_xyz
  'x, y, z'

loop_
  _atom_site_type_symbol
  _atom_site_label
  _atom_site_symmetry_multiplicity
  _atom_site_fract_x
  _atom_site_fract_y
  _atom_site_fract_z
  _atom_site_occupancy
  N   N1        1.0  0.7718585658183927  0.5591200427767314  0.40445944659529975  1.0000
  C   C1        1.0  0.7189314489382038  0.5061141764986816  0.34395448820396934  1.0000
  C   C2        1.0  0.6531430767880404  0.44028047783921775  0.2688068461135298  1.0000
  C   C3        1.0  0.6636908174209721  0.35023170009066007  0.16601347914045173  1.0000
  C   C4        1.0  0.5838347733078203  0.3062874405305287  0.11585371838020198  1.0000
  C   C5        1.0  0.525619529934454  0.3705988968147367  0.18926969413466477  1.0000
  C   C6        1.0  0.4354923605594541  0.3536019783928462  0.16987042908659578  1.0000
  C   C7        1.0  0.3807330203747375  0.42856108922185965  0.2554332815842719  1.0000
  C   C8        1.0  0.29586239130109476  0.414034704295664  0.2388534414291412  1.0000
  C   C9        1.0  0.24071683934964974  0.4912981913920176  0.3270458011664623  1.0000
  N   N2        1.0  0.19639861294286043  0.5534053187004627  0.39793752289462825  1.0000
  C   C10       1.0  0.2646967146747297  0.3244279804329899  0.13657306372061573  1.0000
  C   C11       1.0  0.3181352465363158  0.24956816049537123  0.05112392439069403  1.0000
  C   C12       1.0  0.4028427120582694  0.26370327080325473  0.06725700641125831  1.0000
  C   C13       1.0  0.5644201274171289  0.4643720638411446  0.2963116734549993  1.0000
  H   H1        1.0  0.722207543419744  0.3152159630228588  0.1260394792627264  1.0000
  H   H2        1.0  0.5747181595803893  0.2326906855856452  0.03184062256899267  1.0000
  H   H3        1.0  0.40362607308061443  0.49851424396472166  0.3352804775113014  1.0000
  H   H4        1.0  0.1991714253351361  0.3124612499748452  0.12291496378136003  1.0000
  H   H5        1.0  0.2938532235324227  0.18024900661728263  0.9720006849782542  1.0000
  H   H6        1.0  0.44195572330593913  0.20382023595749946  0.9989036331262778  1.0000
  H   H7        1.0  0.5480124960827948  0.4264087584176454  0.40884020183784076  1.0000
  H   H8        1.0  0.5481495460683526  0.5797885913423098  0.27219836792998775  1.0000
  C   C14       1.0  0.9818019401427962  0.13279517034426094  0.3993921684338342  1.0000
  C   C15       1.0  0.9496214142262354  0.19800160664671743  0.5193090376493057  1.0000
  C   C16       1.0  0.9249539703214251  0.11489079103530164  0.6426346580139539  1.0000
  C   C17       1.0  0.9316719028173444  0.9640943301773077  0.6501927041796862  1.0000
  C   C18       1.0  0.9625045750490462  0.8974500991593383  0.5291855683068294  1.0000
  C   C19       1.0  0.9864631192217529  0.979718998710323  0.40301712457116246  1.0000
  C   C20       1.0  0.904155139897625  0.8816308837083391  0.7891329642984182  1.0000
  C   C21       1.0  0.862679395581181  0.7360136753685753  0.7754129924878255  1.0000
  C   C22       1.0  0.9494919478692784  0.7426330962293729  0.8350926493287003  1.0000
  H   H9        1.0  0.9987846054095937  0.4300577519137676  0.16283963076770602  1.0000
  H   H10       1.0  0.945298238450138  0.3145815452462142  0.5192368326538996  1.0000
  H   H11       1.0  0.9011493987460542  0.16916949544739657  0.7336024567054389  1.0000
  H   H12       1.0  0.9664194712040917  0.7810046247385014  0.5304644409775268  1.0000
  H   H13       1.0  0.005913547285247178  0.9006471905491076  0.04964378329937479  1.0000
  H   H14       1.0  0.8814299971332686  0.9425725809868449  0.8802719383766229  1.0000
  H   H15       1.0  0.8583154016304256  0.6962011897902293  0.6655521803883568  1.0000
  H   H16       1.0  0.8156286545371492  0.7083346968595765  0.8593243518277469  1.0000
  H   H17       1.0  0.997837422655405  0.7067138877718309  0.7615695600490446  1.0000
  H   H18       1.0  0.9531769569296882  0.7188169296542174  0.9539029767562384  1.0000
  C   C23       1.0  0.9819521982339499  0.5539473606204527  0.9777846993225309  1.0000
  C   C24       1.0  0.016167747841482782  0.4355269889834577  0.05946658945248596  1.0000
  C   C25       1.0  0.05761043818248668  0.32558756671698297  0.992447549136391  1.0000
  C   C26       1.0  0.062317041449049045  0.3321651725947248  0.8412544094920462  1.0000
  C   C27       1.0  0.0275994735486944  0.44758971471344555  0.7585988252041886  1.0000
  C   C28       1.0  0.9863128524152663  0.55856684521574  0.8246245548473574  1.0000
  C   C29       1.0  0.09196731059902663  0.19762762640884857  0.0817106593396042  1.0000
  F   F1        1.0  0.11978565587156662  0.23916755805506495  0.21369918416141598  1.0000
  F   F2        1.0  0.1569375206586754  0.13710153730862995  0.011332310805395096  1.0000
  F   F3        1.0  0.031254384729690665  0.09463854477348121  0.10522601068582227  1.0000
  H   H19       1.0  0.9319158478372365  0.8980382589395708  0.05627155957196494  1.0000
  H   H20       1.0  0.01204919787690728  0.43045889730871467  0.17635313251934281  1.0000
  H   H21       1.0  0.09212908390280283  0.24704681406131188  0.7865188325681474  1.0000
  H   H22       1.0  0.031112310014860475  0.4480036704466457  0.6418922554908679  1.0000
  H   H23       1.0  0.8406452727553703  0.8037691013028168  0.706633088449601  1.0000
  Zn  Zn1       1.0  0.8943716806330541  0.5574670719327571  0.402585670693963  1.0000
  Zn  Zn2       1.0  0.07388549999929528  0.5550465206070451  0.39982306043956406  1.0000
  C   C30       1.0  0.985455133874016  0.5519488800602297  0.6645291466186072  1.0000
  C   C31       1.0  0.9828040177862599  0.5605665063227288  0.13787970365633595  1.0000
  C   C32       1.0  0.9855482310447837  0.8196010930939805  0.3965861785000284  1.0000
  C   C33       1.0  0.9827108502205586  0.29291256199303084  0.4058227421752232  1.0000
  O   O1        1.0  0.05121442049059244  0.5618630743025126  0.19056062647560879  1.0000
  O   O2        1.0  0.0532915582770761  0.5488140794957024  0.6097510468149061  1.0000
  O   O3        1.0  0.05336582478844365  0.7649466470061443  0.39338522486898686  1.0000
  O   O4        1.0  0.05114009222339355  0.34573051734405036  0.40692634129684535  1.0000
  O   O5        1.0  0.9171170271496687  0.7667830760232957  0.3954823907718472  1.0000
  O   O6        1.0  0.9170427697739482  0.5506522406363451  0.6118481432526244  1.0000
  O   O7        1.0  0.9149656228387252  0.5637011757342372  0.19265598913140813  1.0000
  O   O8        1.0  0.9148912950680705  0.34756860905133946  0.4090218120124933  1.0000
