data_image0
_chemical_formula_structural       NC12NC2H8C10ClC2H9C10BrC2H9Zn2C4O8
_chemical_formula_sum              "N2 C42 H26 Cl1 Br1 Zn2 O8"
_cell_length_a       17.80743265337812
_cell_length_b       10.299769246903262
_cell_length_c       10.29977236648636
_cell_angle_alpha    85.5442884197668
_cell_angle_beta     91.53768000638924
_cell_angle_gamma    89.45359272153547

_space_group_name_H-M_alt    "P 1"
_space_group_IT_number       1

loop_
  _space_group_symop_operation_xyz
  'x, y, z'

loop_
  _atom_site_type_symbol
  _atom_site_label
  _atom_site_symmetry_multiplicity
  _atom_site_fract_x
  _atom_site_fract_y
  _atom_site_fract_z
  _atom_site_occupancy
  N   N1        1.0  0.7076187668061059  0.4070691460975451  0.6014312333689471  1.0000
  C   C1        1.0  0.6568013006958517  0.4366473979958727  0.5327349847364551  1.0000
  C   C2        1.0  0.5935793580667238  0.47344059528365223  0.4472854992212539  1.0000
  C   C3        1.0  0.6053102787365421  0.527497137638804  0.32067030699365584  1.0000
  C   C4        1.0  0.5439955207464644  0.5627860726958647  0.23761668810891945  1.0000
  C   C5        1.0  0.47079555776293264  0.5442821170024243  0.280518381972084  1.0000
  C   C6        1.0  0.4580878631186073  0.49010663808645005  0.40760170483954283  1.0000
  C   C7        1.0  0.5202599370537592  0.45482096165422076  0.490638812397588  1.0000
  C   C8        1.0  0.3803196176853932  0.4704877442403297  0.4533635955941251  1.0000
  C   C9        1.0  0.36154475202414693  0.49763717981650585  0.5804084259056712  1.0000
  C   C10       1.0  0.2883148526031375  0.47917478521678114  0.6233506848853447  1.0000
  C   C11       1.0  0.23291684329538204  0.4333084456389324  0.5400860580892874  1.0000
  C   C12       1.0  0.1575503053152758  0.4142928298959876  0.5844291964935746  1.0000
  N   N2        1.0  0.09696094592135521  0.39900555374879265  0.6200780292570918  1.0000
  C   C13       1.0  0.2510002112740103  0.4059899437246317  0.41358418155022303  1.0000
  C   C14       1.0  0.3241772458566325  0.42446719711756886  0.3703860389303402  1.0000
  H   H1        1.0  0.6617769771961697  0.5423306002816677  0.28623456673138903  1.0000
  H   H2        1.0  0.5531965004515591  0.6049106650337268  0.13984118183444827  1.0000
  H   H3        1.0  0.42415840877102073  0.5739360840126457  0.214930054204487  1.0000
  H   H4        1.0  0.5117570856243495  0.41131111460804015  0.5882897886534975  1.0000
  H   H5        1.0  0.40323104326752346  0.534797137244738  0.6459832057883095  1.0000
  H   H6        1.0  0.2748802018636617  0.5009919150401152  0.7213599831700994  1.0000
  H   H7        1.0  0.20859728872923  0.3700971331935643  0.34842243053797795  1.0000
  H   H8        1.0  0.3370832414099785  0.40111445305073756  0.2726799783354799  1.0000
  C   C15       1.0  0.9022228172664453  0.02167362479489765  0.6107461609923985  1.0000
  C   C16       1.0  0.909155734953245  0.031119678962336916  0.4748696036088911  1.0000
  C   C17       1.0  0.9127405070033305  0.9187651536469562  0.40603394054724823  1.0000
  C   C18       1.0  0.9092983450804747  0.7958285611598686  0.47489837706521515  1.0000
  C   C19       1.0  0.9023641106437535  0.7843909283298887  0.6107745966004592  1.0000
  C   C20       1.0  0.8988653760907919  0.8978698733847461  0.6779375962761418  1.0000
  C   C21       1.0  0.9200762553016629  0.9298112627847167  0.26228805038899244  1.0000
  C   C22       1.0  0.9687828352830775  0.8458797510735528  0.20213273611805427  1.0000
  C   C23       1.0  0.9756205704478054  0.8564738537552989  0.06682243640386254  1.0000
  C   C24       1.0  0.9339700967512826  0.9507323932770558  0.9900239061030304  1.0000
  Cl  Cl1       1.0  0.9426317917992081  0.9637752421354935  0.820279115358843  1.0000
  C   C25       1.0  0.8854065843079216  0.03458155790336259  0.0486951540877365  1.0000
  C   C26       1.0  0.8784356042868782  0.02438281718746538  0.18397878138910384  1.0000
  H   H9        1.0  0.8995523136503601  0.3455285187674104  0.6625171558543237  1.0000
  H   H10       1.0  0.9128190441555932  0.1260621157498134  0.4224563190325332  1.0000
  H   H11       1.0  0.9110045081799524  0.7089721213428781  0.4220916761054004  1.0000
  H   H12       1.0  0.8935166936570622  0.8898146006326317  0.7827600231323852  1.0000
  H   H13       1.0  0.8997573469223631  0.4525778923792647  0.6625577035432157  1.0000
  H   H14       1.0  0.002285031091885379  0.7732309538939354  0.25984217482247907  1.0000
  H   H15       1.0  0.01345975937026123  0.7915532461736583  0.021846823591969548  1.0000
  H   H16       1.0  0.8528793862141842  0.10750052920556664  0.9895799869385975  1.0000
  H   H17       1.0  0.8397833541415108  0.08927664685124002  0.22719022433562788  1.0000
  C   C27       1.0  0.9022788899776903  0.40315301684383537  0.22938936147440336  1.0000
  C   C28       1.0  0.9794807537785608  0.42967789830185965  0.22991461550784997  1.0000
  C   C29       1.0  0.01861444348377317  0.4429953267569411  0.11305234317668102  1.0000
  C   C30       1.0  0.9795101165564305  0.4294334622107398  0.9946485011233249  1.0000
  C   C31       1.0  0.9023080159344437  0.40291151931527525  0.9921314822190466  1.0000
  C   C32       1.0  0.8641247983223912  0.3899189722632386  0.11000841366051552  1.0000
  C   C33       1.0  0.10028738634431411  0.47105551274342067  0.11466112783278604  1.0000
  C   C34       1.0  0.14893870755539385  0.40745400061656767  0.0340528352470999  1.0000
  C   C35       1.0  0.22579630593828126  0.43398768233021046  0.03576072079531878  1.0000
  C   C36       1.0  0.2549759799107103  0.5242034953565302  0.11770632410980642  1.0000
  Br  Br1       1.0  0.3599831827979647  0.5602824928936945  0.11977281214561343  1.0000
  C   C37       1.0  0.20719846537259423  0.5879781035294478  0.19813705188355502  1.0000
  C   C38       1.0  0.13031147508947027  0.5616880714047623  0.19681851434238795  1.0000
  H   H18       1.0  0.8728535574643808  0.3931056847656658  0.556637663221782  1.0000
  H   H19       1.0  0.009574276084134187  0.4382771665594831  0.3215734596821598  1.0000
  H   H20       1.0  0.00920021955360695  0.4413737284602688  0.9041674873124115  1.0000
  H   H21       1.0  0.8045669769125833  0.3694574450069883  0.10883472782991332  1.0000
  H   H22       1.0  0.8728961457189054  0.39275413513535007  0.663723066288812  1.0000
  H   H23       1.0  0.12770992252476357  0.3360146705286937  0.9709995529744604  1.0000
  H   H24       1.0  0.26264338673113496  0.38412242689877973  0.9735814216833738  1.0000
  H   H25       1.0  0.22954457162632558  0.6581814005402951  0.261481277961785  1.0000
  H   H26       1.0  0.09420586730028035  0.6134287039770734  0.2587429335915532  1.0000
  Zn  Zn1       1.0  0.8199745124271501  0.4047386979265071  0.6068197827139061  1.0000
  Zn  Zn2       1.0  0.9846051962487924  0.4013254052533599  0.6147000726266347  1.0000
  C   C39       1.0  0.9022998720183023  0.397783629368277  0.847956577465268  1.0000
  C   C40       1.0  0.9022816347279499  0.40828207509517567  0.373563491456129  1.0000
  C   C41       1.0  0.9023333176653726  0.640222861437741  0.605593867883236  1.0000
  C   C42       1.0  0.9022481326175883  0.16584128388744832  0.6159262675299331  1.0000
  O   O1        1.0  0.9647590413721321  0.4087024414546283  0.4249401752668223  1.0000
  O   O2        1.0  0.9647733449042937  0.39477167325747636  0.8025604774761468  1.0000
  O   O3        1.0  0.9647995105259176  0.5905444362502716  0.6068508344683443  1.0000
  O   O4        1.0  0.9647328195712106  0.21292968894747746  0.6206497182107538  1.0000
  O   O5        1.0  0.8398468329243595  0.5931344153985945  0.6008701344338001  1.0000
  O   O6        1.0  0.8398206675856538  0.39736321271026775  0.7965797082538436  1.0000
  O   O7        1.0  0.8398063640354602  0.41129393614532495  0.41895784463584645  1.0000
  O   O8        1.0  0.8397801422334638  0.2155211743187353  0.6146674849476621  1.0000
