data_image0
_chemical_formula_structural       NC11NC3H8C10IC2H9C10ClC2H9Zn2C4O8
_chemical_formula_sum              "N2 C42 H26 I1 Cl1 Zn2 O8"
_cell_length_a       17.807433833752565
_cell_length_b       10.299770258652044
_cell_length_c       10.299772619071826
_cell_angle_alpha    85.54407940277211
_cell_angle_beta     88.52892007266341
_cell_angle_gamma    90.70301214587626

_space_group_name_H-M_alt    "P 1"
_space_group_IT_number       1

loop_
  _space_group_symop_operation_xyz
  'x, y, z'

loop_
  _atom_site_type_symbol
  _atom_site_label
  _atom_site_symmetry_multiplicity
  _atom_site_fract_x
  _atom_site_fract_y
  _atom_site_fract_z
  _atom_site_occupancy
  N   N1        1.0  0.7076161431891022  0.4389272423596403  0.5347021823012954  1.0000
  C   C1        1.0  0.6567931268919929  0.40417980823178334  0.6012632220404892  1.0000
  C   C2        1.0  0.5935641691540001  0.36095686530346316  0.6840566613119172  1.0000
  C   C3        1.0  0.6052848487502768  0.2973684683935496  0.8067726788783587  1.0000
  C   C4        1.0  0.5439634964250061  0.25582600728606764  0.8872822477009035  1.0000
  C   C5        1.0  0.4707670866988343  0.2775584750073638  0.8457165825878843  1.0000
  C   C6        1.0  0.45806962237540993  0.34130156718636373  0.7225403746292818  1.0000
  C   C7        1.0  0.3803051191296168  0.36436502024555284  0.6781941103092994  1.0000
  C   C8        1.0  0.36151274402113004  0.34753374515837837  0.5486139446781668  1.0000
  C   C9        1.0  0.2882863826491086  0.3692274990815699  0.507004207185977  1.0000
  C   C10       1.0  0.23290934596835358  0.4080713115025379  0.594154374367392  1.0000
  C   C11       1.0  0.1575463261341666  0.4304239541315382  0.5511833680488871  1.0000
  N   N2        1.0  0.0969598314578531  0.4483938182076284  0.5166378063891892  1.0000
  C   C12       1.0  0.251010173534899  0.4251133292059912  0.7232034145750601  1.0000
  C   C13       1.0  0.3241837778500107  0.4033845651076309  0.7650685790850726  1.0000
  C   C14       1.0  0.5202482864542632  0.3828394582281218  0.6420472214221777  1.0000
  H   H1        1.0  0.6617488586707462  0.27994362464501155  0.8401375588419469  1.0000
  H   H2        1.0  0.5531565358087309  0.20634429716614158  0.9820165138894683  1.0000
  H   H3        1.0  0.4241241691394053  0.24298275067989256  0.9091543593682625  1.0000
  H   H4        1.0  0.40318221201040166  0.3159138416946836  0.47989690184009653  1.0000
  H   H5        1.0  0.2748379506226847  0.355378407855655  0.4069698138690865  1.0000
  H   H6        1.0  0.20862367223037845  0.4555103793402387  0.7914056573486039  1.0000
  H   H7        1.0  0.33710405673946975  0.41877910888306014  0.864920262263908  1.0000
  H   H8        1.0  0.5117539880193045  0.4336834345615546  0.5475473082007323  1.0000
  C   C15       1.0  0.9022207784539942  0.06229364065373909  0.5256699916385521  1.0000
  C   C16       1.0  0.9077905013005543  0.07203286709740686  0.3890152218776066  1.0000
  C   C17       1.0  0.9106847178750678  0.9598302738906295  0.31977696078152196  1.0000
  C   C18       1.0  0.9079336292901435  0.8367485468594134  0.38902619740197486  1.0000
  C   C19       1.0  0.9023623640936652  0.8250175700611826  0.5256808707140741  1.0000
  C   C20       1.0  0.8995375493997947  0.9383481024124934  0.5932375605254496  1.0000
  C   C21       1.0  0.9165774644669704  0.9711869079721956  0.1752094155793238  1.0000
  C   C22       1.0  0.9646478640002395  0.8895396748488068  0.10903212499513294  1.0000
  C   C23       1.0  0.970118533351561  0.9004387286456014  0.9729574428625298  1.0000
  C   C24       1.0  0.9277372182999916  0.9926941242936312  0.9014055465149351  1.0000
  I   I1        1.0  0.9361028056747229  0.008816659100032495  0.6961485295917682  1.0000
  C   C25       1.0  0.8798046529118929  0.07425089843897317  0.966057659115271  1.0000
  C   C26       1.0  0.8741834406345481  0.06377353739345093  0.10212079624920545  1.0000
  H   H9        1.0  0.9000643340072237  0.38603544213665264  0.5777392351684194  1.0000
  H   H10       1.0  0.9109273473146451  0.1671351192381794  0.33617839410652706  1.0000
  H   H11       1.0  0.909110545718163  0.7499594751712817  0.3360396992093464  1.0000
  H   H12       1.0  0.8952400808060362  0.930066487260287  0.69866040542541  1.0000
  H   H13       1.0  0.9002728059842539  0.493094419405177  0.5777550770190729  1.0000
  H   H14       1.0  0.9987057382353661  0.8184839368245435  0.16253084479807267  1.0000
  H   H15       1.0  0.0074554049797526094  0.8373540475859778  0.9232279307716046  1.0000
  H   H16       1.0  0.846740696700141  0.1455704924535568  0.9109496540080508  1.0000
  H   H17       1.0  0.8359894629620439  0.1268583565096302  0.15009968946654229  1.0000
  C   C27       1.0  0.9022754298964673  0.4437749040539268  0.14430589505118085  1.0000
  C   C28       1.0  0.9790807293400253  0.4768643364527761  0.1373303987515282  1.0000
  C   C29       1.0  0.01801526282944099  0.49350993339919974  0.01666588348067499  1.0000
  C   C30       1.0  0.9791133845819279  0.4766234767470406  0.9020612590448968  1.0000
  C   C31       1.0  0.9023077275559269  0.4435362961725536  0.9070449090437047  1.0000
  C   C32       1.0  0.8643189618219524  0.42729689834570017  0.028631771570046816  1.0000
  C   C33       1.0  0.09926922289934548  0.5285136886255045  0.010339535152515952  1.0000
  C   C34       1.0  0.14874482958244695  0.46909148547813234  0.9249583840005475  1.0000
  C   C35       1.0  0.22520766069422285  0.5021507506534215  0.9191909347422436  1.0000
  C   C36       1.0  0.25316941816781147  0.5948140211799342  0.9983560452043694  1.0000
  Cl  Cl1       1.0  0.34911928064527076  0.6361502016486394  0.9908842175486888  1.0000
  C   C37       1.0  0.20455554916978191  0.6544881554809228  0.08348417746365877  1.0000
  C   C38       1.0  0.1280622570314347  0.6216539978936705  0.08962660808880152  1.0000
  H   H18       1.0  0.8730016372045876  0.43121428559166347  0.4744138713800203  1.0000
  H   H19       1.0  0.009043109248632721  0.488023263460589  0.2260643629677885  1.0000
  H   H20       1.0  0.008627708148792431  0.4910872671103277  0.8086967444497586  1.0000
  H   H21       1.0  0.8050671094964026  0.4017703180341435  0.03324497389979708  1.0000
  H   H22       1.0  0.8730489426491754  0.4308682977887051  0.581494808408288  1.0000
  H   H23       1.0  0.12848059291603417  0.39588292586057006  0.8639325780770738  1.0000
  H   H24       1.0  0.2626809921653268  0.4554132143475931  0.8533680181209635  1.0000
  H   H25       1.0  0.22592060642356881  0.7265731529213522  0.14472547465600716  1.0000
  H   H26       1.0  0.0912798921204454  0.6702869640928032  0.15509426206801002  1.0000
  Zn  Zn1       1.0  0.8199723208075097  0.4416556146979567  0.5294966781064134  1.0000
  Zn  Zn2       1.0  0.9846036375555938  0.44565482302047954  0.5218538964634047  1.0000
  C   C39       1.0  0.9022989804150392  0.43840773497988517  0.7628709345211091  1.0000
  C   C40       1.0  0.9022787760265178  0.44890438498113605  0.2884796840797452  1.0000
  C   C41       1.0  0.9023315227982114  0.680848057734844  0.5205037939643853  1.0000
  C   C42       1.0  0.9022461771794577  0.20646250054525164  0.5308468964609523  1.0000
  O   O1        1.0  0.9647566246891065  0.4521378986425295  0.3339653288380977  1.0000
  O   O2        1.0  0.9647724916571746  0.43820854829933364  0.7115842214770682  1.0000
  O   O3        1.0  0.9647979278841509  0.6339821541189055  0.5158710798082902  1.0000
  O   O4        1.0  0.9647311322822159  0.25636430077893047  0.5296783757401482  1.0000
  O   O5        1.0  0.8398447699002989  0.6309461355761885  0.5216722014309454  1.0000
  O   O6        1.0  0.8398193339566228  0.4351740900742252  0.7173852738765163  1.0000
  O   O7        1.0  0.8398034669640141  0.4491033956512791  0.3397648198314023  1.0000
  O   O8        1.0  0.8397779745564492  0.2533297884683898  0.5354779641014551  1.0000
