data_image0
_chemical_formula_structural       NC6NC2H4C12H10C12H9Zn2C4O8
_chemical_formula_sum              "N2 C36 H23 Zn2 O8"
_cell_length_a       14.927258858638513
_cell_length_b       14.38812564980172
_cell_length_c       14.389300134226545
_cell_angle_alpha    85.2703182299558
_cell_angle_beta     90.22201251492375
_cell_angle_gamma    91.20506056824709

_space_group_name_H-M_alt    "P 1"
_space_group_IT_number       1

loop_
  _space_group_symop_operation_xyz
  'x, y, z'

loop_
  _atom_site_type_symbol
  _atom_site_label
  _atom_site_symmetry_multiplicity
  _atom_site_fract_x
  _atom_site_fract_y
  _atom_site_fract_z
  _atom_site_occupancy
  N   N1        1.0  0.8613053829835594  0.05738070261467043  0.010099714286184832  1.0000
  C   C1        1.0  0.7837788914617712  0.057380684011005156  0.010099720443113582  1.0000
  C   C2        1.0  0.6873463853339045  0.05738075931197728  0.010099690988674803  1.0000
  C   C3        1.0  0.6397478443620067  0.04563533814877219  0.927621555687514  1.0000
  C   C4        1.0  0.5460365331064616  0.04563535827435869  0.9276214700229499  1.0000
  C   C5        1.0  0.49953031904887624  0.057380644750632204  0.010099698742419004  1.0000
  C   C6        1.0  0.4030977459295015  0.05738072005367045  0.010099669284221676  1.0000
  N   N2        1.0  0.3255712544077125  0.0573807014500054  0.010099675441150424  1.0000
  C   C7        1.0  0.5471287930292654  0.06912606591590384  0.09257783403982134  1.0000
  C   C8        1.0  0.6408401042848106  0.06912604579031734  0.09257791970438567  1.0000
  H   H1        1.0  0.675019092712824  0.03649674178062767  0.8634488333548054  1.0000
  H   H2        1.0  0.5099154397825849  0.036496868805782505  0.8634488349376135  1.0000
  H   H3        1.0  0.5118576117319634  0.07826465269380464  0.15675062600297585  1.0000
  H   H4        1.0  0.6769611990871871  0.07826459476289238  0.15675062827819247  1.0000
  C   C9        1.0  0.08788232724670758  0.785352203188117  0.999873367930666  1.0000
  C   C10       1.0  0.04317581187490085  0.8175616399315644  0.9176791204152491  1.0000
  C   C11       1.0  0.010035438793828406  0.7545687446176579  0.8565695485785377  1.0000
  C   C12       1.0  0.02099158719530992  0.6588958980889895  0.8765637350276172  1.0000
  C   C13       1.0  0.06539107622290133  0.6249471796437239  0.9583556157238493  1.0000
  C   C14       1.0  0.07697269377665644  0.5231269448560714  0.9797300027887098  1.0000
  C   C15       1.0  0.09971804334529603  0.46617989225578615  0.908950428463341  1.0000
  C   C16       1.0  0.11065492133979139  0.3703730473976591  0.9290526119773499  1.0000
  C   C17       1.0  0.09900275864667157  0.3294016915436491  0.020333808365713635  1.0000
  C   C18       1.0  0.07619741769606692  0.38625019717389  0.09115607292907402  1.0000
  C   C19       1.0  0.06533234929139864  0.4820645280251726  0.0710657484765791  1.0000
  C   C20       1.0  0.09868232141665724  0.6888602655601637  0.01965295350664119  1.0000
  H   H5        1.0  0.19196961713217967  0.8644356228273827  0.1910291044679029  1.0000
  H   H6        1.0  0.03378069119391606  0.8914244071330126  0.9005635799519436  1.0000
  H   H7        1.0  0.9754854350973235  0.7799979961728719  0.7935520849039439  1.0000
  H   H8        1.0  0.9936868102369301  0.6113721017693173  0.8286690482175949  1.0000
  H   H9        1.0  0.11023791191775728  0.4959371481758147  0.8381430840864649  1.0000
  H   H10       1.0  0.12846817811600045  0.32849479835375617  0.8730183263447304  1.0000
  H   H11       1.0  0.14124805504353122  0.10266922629449925  0.9842058362568565  1.0000
  H   H12       1.0  0.06649523526876247  0.35669690538631665  0.16216374224219265  1.0000
  H   H13       1.0  0.04662490129704325  0.523865910193418  0.1268539760442675  1.0000
  H   H14       1.0  0.13409362227445376  0.6633622650886969  0.08215478840428814  1.0000
  C   C21       1.0  0.09265488748912488  0.06898052211601644  0.7364148420572203  1.0000
  C   C22       1.0  0.1425472765453131  0.12385600667850924  0.6689354364192023  1.0000
  C   C23       1.0  0.14404936733380824  0.10095878514294454  0.576429654710078  1.0000
  C   C24       1.0  0.09575548775375547  0.02267344608657562  0.5493778049109477  1.0000
  C   C25       1.0  0.04593465961608703  0.9678114773137161  0.6169501637506106  1.0000
  C   C26       1.0  0.04437214289368163  0.990750290820464  0.7094451462212434  1.0000
  C   C27       1.0  0.09737729895592326  0.9982999738237935  0.4510795478741658  1.0000
  C   C28       1.0  0.09265481715058083  0.06840399903126927  0.37707636546640066  1.0000
  C   C29       1.0  0.09423019381253367  0.04577338114845728  0.2837923711362741  1.0000
  C   C30       1.0  0.10061980746675442  0.9518453433185727  0.2651514005168325  1.0000
  C   C31       1.0  0.1052856280700532  0.8819731286426332  0.3382089045896297  1.0000
  C   C32       1.0  0.10365836849253278  0.9048191657777459  0.4305888934092823  1.0000
  H   H15       1.0  0.03955635616765663  0.05393319716681286  0.9680527220702035  1.0000
  H   H16       1.0  0.18068279060396575  0.1844406101153604  0.6876074242467178  1.0000
  H   H17       1.0  0.18402291281611782  0.14386628909489718  0.5262665890322931  1.0000
  H   H18       1.0  0.007143909264759164  0.9077575694682639  0.598029885678371  1.0000
  H   H19       1.0  0.0051055207853083475  0.9472362922000719  0.759738535016224  1.0000
  H   H20       1.0  0.08651788397484815  0.14049282270591879  0.3922300402808845  1.0000
  H   H21       1.0  0.102028669500484  0.9322402733793028  0.19413083934912914  1.0000
  H   H22       1.0  0.11043452695253424  0.8098003375637862  0.32316056462887444  1.0000
  H   H23       1.0  0.10851738386893338  0.8494835809779341  0.4860125850599899  1.0000
  Zn  Zn1       1.0  0.9952824575235303  0.057377991747917134  0.010104995043112464  1.0000
  Zn  Zn2       1.0  0.19159405765908766  0.05737550046590889  0.010101754632082072  1.0000
  C   C33       1.0  0.09385501352696336  0.04646968486187375  0.18018749649820442  1.0000
  C   C34       1.0  0.09302366952629519  0.0682849722646395  0.840019388574269  1.0000
  C   C35       1.0  0.0968854745779289  0.22672223770863753  0.01275241149676809  1.0000
  C   C36       1.0  0.08999311888194583  0.8880313043569501  0.00745448141009819  1.0000
  O   O1        1.0  0.16764658270618438  0.06804655261034331  0.874788639119885  1.0000
  O   O2        1.0  0.16822804745241526  0.04670552623485169  0.14541549198419912  1.0000
  O   O3        1.0  0.17067418158025893  0.1922617011892236  0.010210512454905786  1.0000
  O   O4        1.0  0.16520038152482594  0.9224903872462148  0.009993549018732615  1.0000
  O   O5        1.0  0.021676066666283415  0.19226310496967744  0.010213200652703586  1.0000
  O   O6        1.0  0.0192299551403159  0.046708045078297955  0.14541817234384563  1.0000
  O   O7        1.0  0.01864848656898733  0.06804908668026877  0.8747901977289665  1.0000
  O   O8        1.0  0.016202285449635548  0.922492911727963  0.009995177254501497  1.0000
