data_image0
_chemical_formula_structural       NC6NC2H4C7NH3C7F3H4Zn2C4O8
_chemical_formula_sum              "N3 C26 H11 F3 Zn2 O8"
_cell_length_a       14.927258858638513
_cell_length_b       9.275154477615127
_cell_length_c       10.299327507215196
_cell_angle_alpha    85.77882767837892
_cell_angle_beta     89.98118973128214
_cell_angle_gamma    89.43371000992973

_space_group_name_H-M_alt    "P 1"
_space_group_IT_number       1

loop_
  _space_group_symop_operation_xyz
  'x, y, z'

loop_
  _atom_site_type_symbol
  _atom_site_label
  _atom_site_symmetry_multiplicity
  _atom_site_fract_x
  _atom_site_fract_y
  _atom_site_fract_z
  _atom_site_occupancy
  N   N1        1.0  0.8342003493545592  0.5781069181127434  0.5730810959675368  1.0000
  C   C1        1.0  0.756673858359805  0.5781068896079735  0.5730811054053058  1.0000
  C   C2        1.0  0.6602413501188804  0.578107004687368  0.5730810608963657  1.0000
  C   C3        1.0  0.6133601955892317  0.5544390377530335  0.4588620793569089  1.0000
  C   C4        1.0  0.5196488841153937  0.5544390634016352  0.4588619592128898  1.0000
  C   C5        1.0  0.4724252872136579  0.5781068271744307  0.573081077045576  1.0000
  C   C6        1.0  0.3759927119811803  0.5781069422567897  0.5730810325313087  1.0000
  N   N2        1.0  0.2984662209864264  0.5781069137520201  0.5730810419690779  1.0000
  C   C7        1.0  0.5193063747517541  0.60177479411173  0.6873000585797058  1.0000
  C   C8        1.0  0.6130176862255915  0.6017747684631285  0.687300178723725  1.0000
  H   H1        1.0  0.6491896113033812  0.536024025075384  0.3699931564624239  1.0000
  H   H2        1.0  0.48408595458028864  0.536024222569523  0.3699931527219158  1.0000
  H   H3        1.0  0.48347702606683185  0.6201897964591923  0.7761690788137936  1.0000
  H   H4        1.0  0.6485806151384707  0.6201897065871078  0.7761690846901141  1.0000
  C   C9        1.0  0.0689302610995437  0.15471784123565488  0.5715782185167172  1.0000
  C   C10       1.0  0.044366267110497876  0.23791450740077583  0.45707007964611135  1.0000
  C   C11       1.0  0.012514242479560796  0.17189273292960272  0.3486276082002491  1.0000
  C   C12       1.0  0.0047016399059045585  0.02177147328574991  0.3534161303925276  1.0000
  C   C13       1.0  0.03009650680205179  0.9373675327818561  0.46531414733138554  1.0000
  C   C14       1.0  0.06374496793219064  0.0014848963528091255  0.5745951700587912  1.0000
  C   C15       1.0  0.986758725663347  0.2586714233491843  0.23273934771739715  1.0000
  N   N3        1.0  0.9660584348271666  0.3284255798485223  0.13959487080012112  1.0000
  H   H5        1.0  0.08622883393808811  0.23133995481815006  0.8903671228327811  1.0000
  H   H6        1.0  0.9797440191169865  0.969657694522403  0.27007128039096795  1.0000
  H   H7        1.0  0.07919435487036025  0.7026818569654579  0.7881928035308687  1.0000
  C   C16       1.0  0.06642304138857424  0.5781599187661515  0.19170530168348  1.0000
  C   C17       1.0  0.15312469121543382  0.6359700062003188  0.18664079241110398  1.0000
  C   C18       1.0  0.19619312087036855  0.6675800865885695  0.06679841788162078  1.0000
  C   C19       1.0  0.15290036342568436  0.6358171169103424  0.951402790047224  1.0000
  C   C20       1.0  0.06625221135500858  0.578042819288435  0.9544680607841731  1.0000
  C   C21       1.0  0.023379733132395282  0.5500837737923031  0.0750960101208078  1.0000
  C   C22       1.0  0.2905270690477557  0.7247533289677925  0.06273977627397387  1.0000
  F   F1        1.0  0.305659657703288  0.8089479379531245  0.1659309116811476  1.0000
  F   F2        1.0  0.3504044740164909  0.609800392988538  0.07019916837774343  1.0000
  F   F3        1.0  0.30541367423183763  0.8089283764128599  0.9482874383377276  1.0000
  H   H8        1.0  0.9034293394277463  0.46665500223331274  0.4086601298634991  1.0000
  H   H9        1.0  0.18735537431009153  0.6562484498820071  0.2761095694825999  1.0000
  H   H10       1.0  0.18697720077532165  0.655986811131547  0.8590946167607312  1.0000
  H   H11       1.0  0.9565538957576362  0.5055298825522663  0.07819454362489386  1.0000
  Zn  Zn1       1.0  0.9681774811692804  0.578103052352568  0.5730885709825269  1.0000
  Zn  Zn2       1.0  0.16448916998569518  0.578098968242405  0.5730841785005731  1.0000
  C   C23       1.0  0.06631765145174295  0.5723212070449979  0.8102690913446211  1.0000
  C   C24       1.0  0.06635113225229139  0.5838826326524242  0.33590379204256315  1.0000
  C   C25       1.0  0.06472164301433139  0.8414286737585545  0.5688495291860779  1.0000
  C   C26       1.0  0.06794708429423313  0.3147734337091679  0.5773234172718389  1.0000
  O   O1        1.0  0.14082630022586828  0.5857953878053683  0.3842964333421295  1.0000
  O   O2        1.0  0.1408385196907984  0.5704042645336681  0.7618727385194224  1.0000
  O   O3        1.0  0.13954871810511524  0.7877119470468166  0.5669247393566437  1.0000
  O   O4        1.0  0.14211603478232426  0.3684877156224076  0.5792443351653052  1.0000
  O   O5        1.0  0.9905505493810979  0.78771430497553  0.566928414312468  1.0000
  O   O6        1.0  0.9918403403706993  0.5704083546950462  0.7618763503991879  1.0000
  O   O7        1.0  0.9918281216227811  0.5857994279641331  0.3842984835911951  1.0000
  O   O8        1.0  0.9931178562169115  0.36849174545394914  0.5792464827486477  1.0000
