data_image0
_chemical_formula_structural       NC12NC2H8C6NO2H5C6NO2H5Zn2C4O8
_chemical_formula_sum              "N4 C30 H18 O12 Zn2"
_cell_length_a       17.80743265337812
_cell_length_b       9.273423624067512
_cell_length_c       9.27342699604674
_cell_angle_alpha    85.08372593905337
_cell_angle_beta     91.97882923782456
_cell_angle_gamma    90.04087344610896

_space_group_name_H-M_alt    "P 1"
_space_group_IT_number       1

loop_
  _space_group_symop_operation_xyz
  'x, y, z'

loop_
  _atom_site_type_symbol
  _atom_site_label
  _atom_site_symmetry_multiplicity
  _atom_site_fract_x
  _atom_site_fract_y
  _atom_site_fract_z
  _atom_site_occupancy
  N   N1        1.0  0.7096921368107627  0.573611505835355  0.4440283372204997  1.0000
  C   C1        1.0  0.6587428142880326  0.6069932364474775  0.3676388681030444  1.0000
  C   C2        1.0  0.5953568681925797  0.6485176568627162  0.27261998323671266  1.0000
  C   C3        1.0  0.6068420452528033  0.7095335696887446  0.13182573371141904  1.0000
  C   C4        1.0  0.5453650883718024  0.7493687468124197  0.03947148332916406  1.0000
  C   C5        1.0  0.47224728252677783  0.7284859318205041  0.08717772358760922  1.0000
  C   C6        1.0  0.45978671842859015  0.6673343108353229  0.2284924492788412  1.0000
  C   C7        1.0  0.5221209368014446  0.6275028802209497  0.32082834297338836  1.0000
  C   C8        1.0  0.3821068090551529  0.6451911029441857  0.279379084099515  1.0000
  C   C9        1.0  0.3640596212719022  0.6743680327491908  0.4205723487927691  1.0000
  C   C10       1.0  0.29091230576495725  0.6535310676792199  0.468323639909598  1.0000
  C   C11       1.0  0.23487143909002808  0.6032280354147033  0.3758133485783617  1.0000
  C   C12       1.0  0.15959046914545472  0.5817658170792988  0.4251223538089611  1.0000
  N   N2        1.0  0.0990699003927614  0.5645116375208956  0.4647634019104481  1.0000
  C   C13       1.0  0.2522285538552616  0.5738591417973677  0.23522377987695323  1.0000
  C   C14       1.0  0.3253219499562221  0.5947145808095256  0.18718804118937918  1.0000
  H   H1        1.0  0.6632426864208194  0.7262743547195172  0.09353356479250552  1.0000
  H   H2        1.0  0.5543785491384258  0.7969096950730357  0.9307461761865184  1.0000
  H   H3        1.0  0.4254926000768368  0.7619278306183144  0.014242860330112125  1.0000
  H   H4        1.0  0.5137968599726643  0.5784242769210381  0.42941656607796147  1.0000
  H   H5        1.0  0.4062583288506407  0.7151370161418003  0.49342751679443664  1.0000
  H   H6        1.0  0.2780441832402781  0.6770089184341606  0.5772469665704383  1.0000
  H   H7        1.0  0.20932254917742704  0.5344944088461221  0.16282649753682454  1.0000
  H   H8        1.0  0.3376536939479485  0.5695287758704128  0.07860327073378738  1.0000
  C   C15       1.0  0.9020596650074267  0.1454777966303928  0.45475538551606315  1.0000
  C   C16       1.0  0.8906299026072284  0.23056080149070965  0.32278127847390775  1.0000
  C   C17       1.0  0.8861496488381896  0.16756962835374667  0.19037337850597408  1.0000
  C   C18       1.0  0.8933515963877858  0.016948914663067693  0.19081341375259608  1.0000
  C   C19       1.0  0.9034472530295146  0.9308153154149027  0.3208489039854734  1.0000
  C   C20       1.0  0.9067095523017895  0.9926340646983813  0.4540491697986697  1.0000
  N   N3        1.0  0.8750735942989188  0.25657517073429204  0.05629148208716517  1.0000
  O   O1        1.0  0.8678645074765075  0.4043508664412745  0.05598824938017177  1.0000
  O   O2        1.0  0.871607081310841  0.20118333985716538  0.9381754080964706  1.0000
  H   H9        1.0  0.882965755161752  0.4054213082024902  0.6906120122711187  1.0000
  H   H10       1.0  0.8869729507079992  0.34711316458557984  0.3229719154148978  1.0000
  H   H11       1.0  0.8904157091459518  0.9652865724705465  0.09043137257551503  1.0000
  H   H12       1.0  0.9069216483207857  0.8145298468520985  0.31739909847727743  1.0000
  H   H13       1.0  0.87464205423219  0.859926614171531  0.802057965981952  1.0000
  C   C21       1.0  0.902668120547137  0.5721263385290913  0.030480643021249202  1.0000
  C   C22       1.0  0.9468451411755493  0.6742101952931792  0.09844979959892067  1.0000
  C   C23       1.0  0.9959083519964689  0.7667118313526506  0.01944320939506828  1.0000
  C   C24       1.0  0.0006218825907875487  0.7562025962949022  0.8700635884343235  1.0000
  C   C25       1.0  0.9563024567076137  0.6572736580942036  0.8005997509424837  1.0000
  C   C26       1.0  0.9061010767824916  0.5659854162259488  0.8783239792691228  1.0000
  N   N4        1.0  0.04115477245284738  0.8696647840649592  0.09115027472796446  1.0000
  O   O3        1.0  0.03638251797871051  0.8800950105453391  0.23769949686792669  1.0000
  O   O4        1.0  0.0852819264737197  0.9514293217226231  0.021559345226067183  1.0000
  H   H14       1.0  0.7969016013375368  0.4457854911956156  0.31447735546145783  1.0000
  H   H15       1.0  0.9442887628721961  0.6792770736137219  0.21441965296526935  1.0000
  H   H16       1.0  0.038130623657815395  0.825676580762449  0.8063357514986422  1.0000
  H   H17       1.0  0.9600174699983951  0.654586255691874  0.6844905921990776  1.0000
  H   H18       1.0  0.7473992026440581  0.38509598452798866  0.7804639904653441  1.0000
  Zn  Zn1       1.0  0.8220581642563164  0.5709815690473345  0.4500203545144099  1.0000
  Zn  Zn2       1.0  0.9867038535492574  0.5671297229460708  0.45878316943701375  1.0000
  C   C27       1.0  0.9054189734174025  0.56139990141612  0.7180680925509514  1.0000
  C   C28       1.0  0.9033448528773552  0.5767131674917432  0.19073566726197844  1.0000
  C   C29       1.0  0.9058034653008451  0.8325452138343474  0.44842985398800167  1.0000
  C   C30       1.0  0.9029602956112635  0.30556612281381595  0.46037398124365875  1.0000
  O   O5        1.0  0.9660541169172697  0.5767845007740502  0.24784416518607122  1.0000
  O   O6        1.0  0.967671970253504  0.5584040209078804  0.6676099537431261  1.0000
  O   O7        1.0  0.967981616100137  0.7773572986192332  0.4498751222887865  1.0000
  O   O8        1.0  0.965744414506583  0.35783123547962425  0.4655788854020264  1.0000
  O   O9        1.0  0.8430175471134751  0.7802800578298521  0.4432246355514838  1.0000
  O   O10       1.0  0.8427079104639756  0.5613285136942701  0.6609593885891796  1.0000
  O   O11       1.0  0.8410900498741659  0.5797089558647659  0.2411918644566158  1.0000
  O   O12       1.0  0.8407803478420176  0.3607556794694844  0.4589266929130427  1.0000
