data_image0
_chemical_formula_structural       NC5NC3H4C6ClH5C7NH3Zn2C4O8
_chemical_formula_sum              "N3 C25 H12 Cl1 Zn2 O8"
_cell_length_a       13.859018345313864
_cell_length_b       9.276545438789551
_cell_length_c       9.275157849593905
_cell_angle_alpha    86.141431454383
_cell_angle_beta     89.74087919435236
_cell_angle_gamma    89.40960550048821

_space_group_name_H-M_alt    "P 1"
_space_group_IT_number       1

loop_
  _space_group_symop_operation_xyz
  'x, y, z'

loop_
  _atom_site_type_symbol
  _atom_site_label
  _atom_site_symmetry_multiplicity
  _atom_site_fract_x
  _atom_site_fract_y
  _atom_site_fract_z
  _atom_site_occupancy
  N   N1        1.0  0.902620150125133  0.5627576823174116  0.411288774168749  1.0000
  C   C1        1.0  0.830379889891031  0.5237140005002057  0.46250768250654506  1.0000
  C   C2        1.0  0.7405172392407282  0.4751488903608964  0.526217191543277  1.0000
  C   C3        1.0  0.6527635151194858  0.5224941880838161  0.4641082225595332  1.0000
  C   C4        1.0  0.5652869371621673  0.47514859874210846  0.5262170658512784  1.0000
  C   C5        1.0  0.4751400113443009  0.5237138868897933  0.4625075851506985  1.0000
  N   N2        1.0  0.4026712480149225  0.5627576477584473  0.4112887051385665  1.0000
  C   C6        1.0  0.5657466032235104  0.3804437110303329  0.6504534609627497  1.0000
  C   C7        1.0  0.6533172524586832  0.33328066752598273  0.7123234197628547  1.0000
  C   C8        1.0  0.7406119441108392  0.3804440081174525  0.6504536647455303  1.0000
  H   H1        1.0  0.6525489275301563  0.5957983546432248  0.36794591109551966  1.0000
  H   H2        1.0  0.4985601965208541  0.3431781141245125  0.6993390359917393  1.0000
  H   H3        1.0  0.6535313410172678  0.2601253235291734  0.8082906958616876  1.0000
  H   H4        1.0  0.8080164532168579  0.3431786481131691  0.699339461509235  1.0000
  C   C9        1.0  0.1555631355050675  0.139320213033284  0.4110511921832052  1.0000
  C   C10       1.0  0.15633053787532303  0.22169061377598617  0.27803476540504324  1.0000
  C   C11       1.0  0.14831073701970565  0.15535803850850805  0.14791346532929595  1.0000
  C   C12       1.0  0.1393303630397078  0.005775500028534438  0.14880670776300398  1.0000
  C   C13       1.0  0.14005899580736145  0.9218431697291033  0.27938161626741786  1.0000
  C   C14       1.0  0.14973753889019736  0.9861841376053176  0.41153879305595265  1.0000
  Cl  Cl1       1.0  0.14806057470371758  0.2603949105487735  0.9833871282028848  1.0000
  H   H5        1.0  0.2042265173536224  0.4044613431603241  0.6376258162152522  1.0000
  H   H6        1.0  0.16086037013999221  0.33838369931263146  0.27518151158494386  1.0000
  H   H7        1.0  0.13270378699873797  0.9540843632630528  0.0481371003066855  1.0000
  H   H8        1.0  0.13534976629208062  0.8055571829097659  0.27673160385299034  1.0000
  H   H9        1.0  0.11668755053289348  0.6896929118886005  0.6445738516431714  1.0000
  C   C15       1.0  0.15395868369938692  0.558676309363338  0.9880948691482714  1.0000
  C   C16       1.0  0.23680090797799647  0.6056834607560111  0.05781796079076984  1.0000
  C   C17       1.0  0.3146155183324315  0.6640291139793636  0.9779733836124215  1.0000
  C   C18       1.0  0.31049334734714956  0.6762951911509925  0.8273214990368136  1.0000
  C   C19       1.0  0.22964291790443747  0.6281203988240931  0.7562561931352687  1.0000
  C   C20       1.0  0.1513419944608007  0.5668279633351989  0.8344951332419956  1.0000
  C   C21       1.0  0.39838963155134977  0.7130443606805632  0.05100522350991809  1.0000
  N   N3        1.0  0.46572257257642447  0.7524394024673371  0.10971049970900147  1.0000
  H   H10       1.0  0.9195248591368791  0.510058402266677  0.09590450069660439  1.0000
  H   H11       1.0  0.37026324651502107  0.7219060106767712  0.7645249595294188  1.0000
  H   H12       1.0  0.22937731202137113  0.6357013415847308  0.6391961181716939  1.0000
  Zn  Zn1       1.0  0.04692409456754266  0.5627538821332432  0.41129708351896443  1.0000
  Zn  Zn2       1.0  0.25836732485586333  0.5627497278757905  0.41129222559971423  1.0000
  C   C22       1.0  0.15187394481909644  0.5595427724001931  0.6745040274632497  1.0000
  C   C23       1.0  0.15341977060494114  0.565962658300458  0.1480854240977587  1.0000
  C   C24       1.0  0.15085146975017683  0.8260534869074256  0.4057037948220148  1.0000
  C   C25       1.0  0.15444218520292405  0.29945021211603273  0.4168857325764048  1.0000
  O   O1        1.0  0.23348055367039788  0.568400156320473  0.2017778686936078  1.0000
  O   O2        1.0  0.2322936898447081  0.557101029604363  0.6208074803407138  1.0000
  O   O3        1.0  0.23146694196765472  0.7723118165102818  0.4037493915647665  1.0000
  O   O4        1.0  0.23430722965930406  0.35318937869031  0.418835849421751  1.0000
  O   O5        1.0  0.07098411760891743  0.772314231321638  0.4037534596910062  1.0000
  O   O6        1.0  0.07181085380172214  0.5571051760958261  0.6208114726236205  1.0000
  O   O7        1.0  0.07299772339392473  0.5684042358764847  0.2017801282815801  1.0000
  O   O8        1.0  0.07382439911579364  0.35319344897348026  0.4188382170516056  1.0000
