data_image0
_chemical_formula_structural       NC8NC6H8C6H4C7OH4Zn2C4O8
_chemical_formula_sum              "N2 C31 H16 O9 Zn2"
_cell_length_a       17.457602349358154
_cell_length_b       10.681118228259551
_cell_length_c       9.274081674992354
_cell_angle_alpha    86.07103853506838
_cell_angle_beta     92.53340075860572
_cell_angle_gamma    91.68806569353352

_space_group_name_H-M_alt    "P 1"
_space_group_IT_number       1

loop_
  _space_group_symop_operation_xyz
  'x, y, z'

loop_
  _atom_site_type_symbol
  _atom_site_label
  _atom_site_symmetry_multiplicity
  _atom_site_fract_x
  _atom_site_fract_y
  _atom_site_fract_z
  _atom_site_occupancy
  N   N1        1.0  0.7270867522639997  0.3893218359422097  0.47602181831766854  1.0000
  C   C1        1.0  0.6660448524616496  0.3449470865199049  0.4642430002474283  1.0000
  C   C2        1.0  0.5901061136874314  0.2897504892528943  0.44960073797416666  1.0000
  C   C3        1.0  0.5313232701534912  0.32911159067962825  0.5327044340367809  1.0000
  C   C4        1.0  0.4568205285512464  0.27596279797976964  0.5187439296468555  1.0000
  C   C5        1.0  0.3944317803783171  0.3175243423853946  0.6067538956042363  1.0000
  C   C6        1.0  0.3200743849727661  0.3348613242929137  0.54488076954057  1.0000
  C   C7        1.0  0.2612911721939672  0.3740459827597035  0.6281042470019749  1.0000
  C   C8        1.0  0.1855031410239973  0.39194843461064877  0.5637729274576551  1.0000
  N   N2        1.0  0.12458247995823472  0.40633585533945005  0.5120507141406199  1.0000
  C   C9        1.0  0.2763714661279539  0.39613241904741336  0.7737650828585614  1.0000
  C   C10       1.0  0.34994284194486175  0.3791738099523707  0.8360682734790066  1.0000
  C   C11       1.0  0.4087128962268611  0.34016664752876213  0.7533526666624518  1.0000
  C   C12       1.0  0.4423941398743434  0.18278755597633278  0.42008981446864047  1.0000
  C   C13       1.0  0.5011639075831626  0.14369856538296522  0.3374299473078824  1.0000
  C   C14       1.0  0.5748800169160033  0.19696037296227176  0.35200065565579486  1.0000
  H   H1        1.0  0.5434411531921532  0.4021839940433727  0.6066354115166153  1.0000
  H   H2        1.0  0.308075669790282  0.3195625413875407  0.43167817998869024  1.0000
  H   H3        1.0  0.23131079596247003  0.4264099566162136  0.8390471519597358  1.0000
  H   H4        1.0  0.36142911293525487  0.3959714613041958  0.9488567070683859  1.0000
  H   H5        1.0  0.4650420194797407  0.3261003795079396  0.8045106794686359  1.0000
  H   H6        1.0  0.3859456406577108  0.13898110832585142  0.40827092247613517  1.0000
  H   H7        1.0  0.4895639015618393  0.07169260909863029  0.26216935701009225  1.0000
  H   H8        1.0  0.6199389961980535  0.16584852432264263  0.28728571183349394  1.0000
  C   C15       1.0  0.925838273078437  0.03007903160826951  0.4940427993050506  1.0000
  C   C16       1.0  0.959158910119922  0.9578797909294939  0.6115319672275739  1.0000
  C   C17       1.0  0.9591588985950007  0.8269975517492955  0.6115319002839876  1.0000
  C   C18       1.0  0.9258382600103132  0.7655694354889947  0.49404286042926415  1.0000
  C   C19       1.0  0.8925452064029983  0.8377591906959857  0.3766507868721296  1.0000
  C   C20       1.0  0.8925452179121418  0.9686514497411732  0.376650846415307  1.0000
  H   H9        1.0  0.9852772430453661  0.0024692550985452285  0.7036254813801146  1.0000
  H   H10       1.0  0.9852771488221962  0.7739652222723007  0.7036254473789438  1.0000
  H   H11       1.0  0.8664234680599425  0.7932150329542492  0.28454524858921504  1.0000
  H   H12       1.0  0.8664234479908998  0.021639471038228608  0.28454523504996354  1.0000
  C   C21       1.0  0.9271326885432226  0.3945968024250705  0.0708904266621726  1.0000
  C   C22       1.0  0.9894244903791324  0.45176480016027254  0.14506261791801278  1.0000
  C   C23       1.0  0.047372792557326654  0.5179855170317131  0.0698320873330851  1.0000
  C   C24       1.0  0.0430137350889921  0.5273771868355479  0.9183142827740244  1.0000
  C   C25       1.0  0.9823291763524306  0.46956394008860386  0.8430849442088912  1.0000
  C   C26       1.0  0.9245438396513435  0.40105162294342955  0.9171951889520629  1.0000
  C   C27       1.0  0.11145300507578562  0.5777230016596597  0.15108522995217435  1.0000
  O   O1        1.0  0.1642377261674839  0.6383276616228957  0.08652989967604552  1.0000
  H   H13       1.0  0.7454041752114096  0.30546846773223013  0.16578739278096816  1.0000
  H   H14       1.0  0.08692958374459071  0.5784412934871217  0.8576869429910877  1.0000
  H   H15       1.0  0.8034032470534798  0.3359506570054702  0.6311306848715142  1.0000
  H   H16       1.0  0.11368903627696875  0.569857348221972  0.2681950916606055  1.0000
  Zn  Zn1       1.0  0.8417954074776351  0.3942284195415197  0.4864272993995971  1.0000
  Zn  Zn2       1.0  0.00987377440650184  0.4014190941403721  0.5016570305048043  1.0000
  C   C28       1.0  0.9250314718191567  0.39484253502562416  0.7572253458141434  1.0000
  C   C29       1.0  0.926639545042831  0.4008066383604052  0.23085929183048792  1.0000
  C   C30       1.0  0.9258518723093973  0.6265021024716861  0.4883003165281574  1.0000
  C   C31       1.0  0.9258190869642308  0.16914556446338858  0.4997843927440531  1.0000
  O   O2        1.0  0.9902589058810783  0.40561407614925366  0.29032590789817836  1.0000
  O   O3        1.0  0.9889797036801626  0.39549170497665176  0.7093173284579374  1.0000
  O   O4        1.0  0.9896413230175252  0.5825597100664774  0.4921583867074602  1.0000
  O   O5        1.0  0.9895972295204597  0.218546076740147  0.5074847364085632  1.0000
  O   O6        1.0  0.8620718950068028  0.577101434489226  0.48059958829109917  1.0000
  O   O7        1.0  0.8614102759009252  0.39003493339783607  0.697758453209258  1.0000
  O   O8        1.0  0.8626894834524966  0.4001572477190891  0.2787653001834687  1.0000
  O   O9        1.0  0.8620278067582597  0.21308924017674433  0.495924236729207  1.0000
