data_image0
_chemical_formula_structural       NC12NC2H8C12SCH12C12ClH8Zn2C4O8
_chemical_formula_sum              "N2 C43 H28 S1 Cl1 Zn2 O8"
_cell_length_a       19.240039667572717
_cell_length_b       10.299776766347529
_cell_length_c       10.299771906710086
_cell_angle_alpha    85.54586025256013
_cell_angle_beta     90.00915032277288
_cell_angle_gamma    89.97991714870845

_space_group_name_H-M_alt    "P 1"
_space_group_IT_number       1

loop_
  _space_group_symop_operation_xyz
  'x, y, z'

loop_
  _atom_site_type_symbol
  _atom_site_label
  _atom_site_symmetry_multiplicity
  _atom_site_fract_x
  _atom_site_fract_y
  _atom_site_fract_z
  _atom_site_occupancy
  N   N1        1.0  0.6540878905355131  0.4216714267419608  0.5675316056784172  1.0000
  C   C1        1.0  0.5939395216954649  0.42167151074591946  0.5675315237462677  1.0000
  C   C2        1.0  0.5191214845205484  0.42167162806991865  0.5675313864482694  1.0000
  C   C3        1.0  0.48266871367458897  0.3571772057093512  0.6709396930242596  1.0000
  C   C4        1.0  0.4099979937830435  0.35706630067506745  0.6710262288472387  1.0000
  C   C5        1.0  0.3727892495463699  0.42167172069974423  0.5675311587718648  1.0000
  C   C6        1.0  0.4099561836784695  0.48627732765266457  0.4640362832481282  1.0000
  C   C7        1.0  0.4826269004053143  0.48616618708610404  0.4641229415579613  1.0000
  C   C8        1.0  0.295584159113339  0.4216716420669393  0.5675310633516533  1.0000
  C   C9        1.0  0.2584211835756821  0.30839998769387633  0.6093950090254826  1.0000
  C   C10       1.0  0.1857504673205036  0.30850691312997336  0.6093036899761901  1.0000
  C   C11       1.0  0.1492518722195899  0.42167151287786453  0.5675311242542025  1.0000
  C   C12       1.0  0.07443383510725297  0.4216713990644305  0.567531372908243  1.0000
  N   N2        1.0  0.014285518280644498  0.42167135818113816  0.5675315813251969  1.0000
  C   C13       1.0  0.1857007879565364  0.5348361884678308  0.525758505645997  1.0000
  C   C14       1.0  0.2583714562556659  0.5349432940698935  0.5256670240129022  1.0000
  H   H1        1.0  0.5103998521288426  0.30724402546370744  0.7516779864982462  1.0000
  H   H2        1.0  0.38292090520052713  0.30793087461187096  0.7528800774161303  1.0000
  H   H3        1.0  0.3828467414634315  0.5354127807826883  0.3821823838324192  1.0000
  H   H4        1.0  0.5103255334565502  0.5360992669906428  0.38338492387344836  1.0000
  H   H5        1.0  0.285533853164786  0.21923655196229722  0.6405572689774193  1.0000
  H   H6        1.0  0.1580549394103708  0.2202423493142891  0.6414989710271581  1.0000
  H   H7        1.0  0.1579664924247281  0.6231007277427174  0.4935632391439917  1.0000
  H   H8        1.0  0.2854452654650854  0.6241068089901762  0.4945047192941813  1.0000
  C   C15       1.0  0.8342555745543908  0.040306266740920416  0.5675299820774771  1.0000
  C   C16       1.0  0.8384438933623798  0.028705666140567358  0.7040431946407689  1.0000
  C   C17       1.0  0.8404992321448985  0.9056889269594322  0.7732208846094669  1.0000
  C   C18       1.0  0.8383109959792203  0.7934178854514206  0.7040583849161788  1.0000
  C   C19       1.0  0.8341245333519157  0.8030265387540368  0.5675444229742228  1.0000
  C   C20       1.0  0.8321198664100976  0.9269093603267943  0.50004438856928  1.0000
  C   C21       1.0  0.8449223414831118  0.8944807065834308  0.9176364605932907  1.0000
  C   C22       1.0  0.805151093283014  0.8009992209351516  0.9916787871275917  1.0000
  C   C23       1.0  0.8093346302452988  0.7906854307106754  0.12758741365879223  1.0000
  C   C24       1.0  0.8531162832295895  0.8735740438790117  0.19126037697340548  1.0000
  C   C25       1.0  0.8930535106710831  0.9664813521351188  0.11859110839080166  1.0000
  C   C26       1.0  0.8889718866604646  0.9771450340727709  0.9826720668917046  1.0000
  S   S1        1.0  0.8585609801513727  0.8598794943630281  0.365649843273425  1.0000
  C   C27       1.0  0.788721640577274  0.975935770134761  0.38517847188032117  1.0000
  H   H9        1.0  0.8326869783877635  0.3721801041213586  0.5155122512396952  1.0000
  H   H10       1.0  0.8391588972327696  0.11552168111299245  0.7570012616136329  1.0000
  H   H11       1.0  0.8408381940279082  0.6983891483382234  0.7568203162003415  1.0000
  H   H12       1.0  0.8288892317346238  0.9350902421501692  0.3947302495970881  1.0000
  H   H13       1.0  0.832494602284483  0.4792341006610741  0.515531357887097  1.0000
  H   H14       1.0  0.7701596718771866  0.7370485489843007  0.9445648997081875  1.0000
  H   H15       1.0  0.7782655307669688  0.7186073109119957  0.18330863746074  1.0000
  H   H16       1.0  0.9273053578637578  0.030487448051053752  0.16729392251820063  1.0000
  H   H17       1.0  0.9209183128578468  0.048853801305614564  0.9283638786034747  1.0000
  H   H18       1.0  0.8026308871362238  0.07227936932900735  0.3363010559277766  1.0000
  H   H19       1.0  0.7806772201919465  0.9865852350554326  0.49045722473996745  1.0000
  H   H20       1.0  0.739811363941096  0.9404152472509826  0.3430566018959913  1.0000
  C   C28       1.0  0.83415694389541  0.42177272253556847  0.18616792556606132  1.0000
  C   C29       1.0  0.897186017133524  0.49065510612441204  0.17984152600637593  1.0000
  C   C30       1.0  0.9291572723230888  0.5254502110746038  0.05950554895900306  1.0000
  C   C31       1.0  0.897253099115911  0.49043994566142235  0.9445717456536034  1.0000
  C   C32       1.0  0.8342231318192489  0.4215601219421201  0.9489064893011759  1.0000
  C   C33       1.0  0.8030283392443451  0.3876114070043951  0.07017260989924967  1.0000
  C   C34       1.0  0.9958372380023139  0.5983206333416053  0.053866493182460166  1.0000
  C   C35       1.0  0.006804195751420218  0.7013249329075026  0.1336705406795078  1.0000
  C   C36       1.0  0.0695962761783604  0.7698117010059495  0.12817555759523747  1.0000
  C   C37       1.0  0.12213386167510087  0.7363411531464756  0.04318684938792505  1.0000
  C   C38       1.0  0.11183027288426282  0.6341963134109041  0.9635116132032712  1.0000
  C   C39       1.0  0.04910052401020493  0.5655092250811418  0.9686309612590226  1.0000
  Cl  Cl1       1.0  0.20087432527988835  0.8223906904380183  0.036528858301128286  1.0000
  H   H21       1.0  0.9220483904095117  0.5158544131347873  0.2688228034078368  1.0000
  H   H22       1.0  0.9211994440526345  0.5185808074440286  0.8514627075624775  1.0000
  H   H23       1.0  0.7544038879688068  0.33447293872694694  0.07428493347517495  1.0000
  H   H24       1.0  0.810219068374076  0.3952678210100635  0.6231083492356748  1.0000
  H   H25       1.0  0.9665073147550906  0.7299778399078554  0.19904502642949626  1.0000
  H   H26       1.0  0.07726770943750139  0.8490850196769288  0.18981067273289873  1.0000
  H   H27       1.0  0.15244396117319847  0.6076905361367677  0.8977935928994832  1.0000
  H   H28       1.0  0.042582781862480434  0.48569563266900806  0.9072153707571226  1.0000
  Zn  Zn1       1.0  0.7580331556229514  0.4216679377014385  0.5675390870177985  1.0000
  Zn  Zn2       1.0  0.9103402747044909  0.4216642508918653  0.5675346986951366  1.0000
  C   C40       1.0  0.8342099659035199  0.41642665517334065  0.8047324444699846  1.0000
  C   C41       1.0  0.8341651273424158  0.42690717194749506  0.3303414686925752  1.0000
  C   C42       1.0  0.8341452577532829  0.6588576205437495  0.5623664988285144  1.0000
  C   C43       1.0  0.8342297837950037  0.1844746462719422  0.5727074835447401  1.0000
  O   O1        1.0  0.8919676326917876  0.4286232752636874  0.37872576135472813  1.0000
  O   O2        1.0  0.8920050399260989  0.41470677404542533  0.75634444730757  1.0000
  O   O3        1.0  0.8919520082252509  0.6104728441824527  0.5606322314707843  1.0000
  O   O4        1.0  0.8920206124104858  0.23285721444519325  0.5744378798184292  1.0000
  O   O5        1.0  0.7763527659420111  0.610474974150784  0.5606359058891717  1.0000
  O   O6        1.0  0.7764057973655626  0.4147104643215731  0.7563480525099288  1.0000
  O   O7        1.0  0.7763683900497407  0.4286269207195972  0.378727805154107  1.0000
  O   O8        1.0  0.7764213697756431  0.23286085058524297  0.5744400209855596  1.0000
