data_image0
_chemical_formula_structural       NC10NC3NCH9C7OC4NC3H8C6SCOC6H10Zn2C4O8
_chemical_formula_sum              "N4 C45 H27 O10 S1 Zn2"
_cell_length_a       19.437513618241372
_cell_length_b       10.299371701877257
_cell_length_c       10.302041481415108
_cell_angle_alpha    85.56120269447774
_cell_angle_beta     90.34339533155027
_cell_angle_gamma    89.53225479237402

_space_group_name_H-M_alt    "P 1"
_space_group_IT_number       1

loop_
  _space_group_symop_operation_xyz
  'x, y, z'

loop_
  _atom_site_type_symbol
  _atom_site_label
  _atom_site_symmetry_multiplicity
  _atom_site_fract_x
  _atom_site_fract_y
  _atom_site_fract_z
  _atom_site_occupancy
  N   N1        1.0  0.648026019807742  0.4109732983449625  0.5765526156575986  1.0000
  C   C1        1.0  0.5890942868993635  0.4279844410608926  0.5735846997772831  1.0000
  C   C2        1.0  0.5156558175984775  0.4492382965275812  0.5699007988065077  1.0000
  C   C3        1.0  0.47388367414264293  0.3480536758604551  0.5581996528765436  1.0000
  C   C4        1.0  0.3979946228931321  0.3581213171194109  0.5509842681284198  1.0000
  C   C5        1.0  0.3584285579714852  0.4389425680436451  0.6167481076882662  1.0000
  C   C6        1.0  0.2822454428558176  0.43033780633305563  0.6083020443142857  1.0000
  C   C7        1.0  0.249098066511475  0.3089919880263332  0.6128912263671145  1.0000
  C   C8        1.0  0.1773627107058457  0.30262320119479447  0.6057219137887775  1.0000
  C   C9        1.0  0.1378040634096767  0.41712740193380893  0.5943253658747458  1.0000
  C   C10       1.0  0.06395420031440541  0.4104205062144543  0.5869878497464238  1.0000
  N   N2        1.0  0.004584008476169104  0.4050287519295667  0.5810889453451293  1.0000
  C   C11       1.0  0.17023482201712511  0.5381623436043237  0.5904811637398244  1.0000
  C   C12       1.0  0.2419546077195258  0.54478509443798  0.5977125957830118  1.0000
  C   C13       1.0  0.38712241512725226  0.5311895599508618  0.7066892006574494  1.0000
  N   N3        1.0  0.444113489782368  0.5944101705402947  0.6863171018863163  1.0000
  C   C14       1.0  0.4879515786645617  0.5851963877597453  0.5732297829422672  1.0000
  H   H1        1.0  0.49625802596430224  0.2530031802726902  0.5460393755576658  1.0000
  H   H2        1.0  0.37327262189012017  0.2886340072538005  0.4926481868188585  1.0000
  H   H3        1.0  0.2785396113033672  0.21907617383054465  0.6238702832223584  1.0000
  H   H4        1.0  0.1527598168347035  0.2083959944428104  0.6095669361263001  1.0000
  H   H5        1.0  0.1401079651891158  0.6274222848530895  0.5818134707031872  1.0000
  H   H6        1.0  0.2660760207318316  0.6394251042918702  0.5938522979713758  1.0000
  H   H7        1.0  0.35712253854625314  0.551539599868745  0.7910466622255321  1.0000
  H   H8        1.0  0.5307112816301021  0.6555058994936875  0.579022773559352  1.0000
  H   H9        1.0  0.45828588019482175  0.6133429779160113  0.48261601211617866  1.0000
  C   C15       1.0  0.826272329310309  0.026631152915432166  0.5786934181685686  1.0000
  C   C16       1.0  0.8296198591220749  0.035963645345904016  0.4421033676109296  1.0000
  C   C17       1.0  0.8305270484230206  0.9235148297006376  0.3731388094869623  1.0000
  C   C18       1.0  0.8296283588672626  0.8006950777733937  0.4424207967168563  1.0000
  C   C19       1.0  0.8263442934993052  0.7893607190861837  0.5789594832054363  1.0000
  C   C20       1.0  0.82450426616094  0.9029333404918839  0.6462876523646588  1.0000
  C   C21       1.0  0.8347843626691991  0.9332134732619459  0.22897703028788485  1.0000
  O   O1        1.0  0.867899567208633  0.846933610918629  0.1744654427945287  1.0000
  C   C22       1.0  0.8014629587771862  0.04071070836706725  0.14666024040255343  1.0000
  C   C23       1.0  0.8309330758282343  0.08490528645007855  0.027093220882571597  1.0000
  C   C24       1.0  0.7994260871338755  0.18536112838819888  0.9479201822116998  1.0000
  C   C25       1.0  0.8302310051788196  0.23071826197635215  0.8261845117095548  1.0000
  N   N4        1.0  0.854996787288729  0.2671757846572307  0.7283267253249499  1.0000
  C   C26       1.0  0.7379353632111657  0.24155080624058117  0.9873002172188845  1.0000
  C   C27       1.0  0.7078845203551626  0.19715588675938456  0.10512070907395922  1.0000
  C   C28       1.0  0.739193969781991  0.09700081662333093  0.1842798395983436  1.0000
  H   H10       1.0  0.8322961641617256  0.13086110546201102  0.3892632743141713  1.0000
  H   H11       1.0  0.8308376486824476  0.7138557833591291  0.389436432426973  1.0000
  H   H12       1.0  0.8219239416913373  0.8949347727302491  0.7515888504550805  1.0000
  H   H13       1.0  0.825661777758072  0.4575364916434411  0.6314636740020665  1.0000
  H   H14       1.0  0.8786465641215243  0.042029604733301515  0.9961308251782494  1.0000
  H   H15       1.0  0.7131354220287988  0.31920140390105844  0.9267594235253073  1.0000
  H   H16       1.0  0.6600535950008825  0.2400501117055065  0.13492887660030228  1.0000
  H   H17       1.0  0.7143348381817207  0.0626741096875618  0.2740986216423835  1.0000
  C   C29       1.0  0.8263212219428182  0.40812500038920135  0.19753963204663916  1.0000
  C   C30       1.0  0.8578739286728253  0.5306976484735355  0.18707088707695152  1.0000
  C   C31       1.0  0.8738795593101921  0.5911570464683018  0.06491032082190418  1.0000
  C   C32       1.0  0.8579391872329334  0.5302926969921257  0.9519661650098743  1.0000
  C   C33       1.0  0.8262954196130963  0.4078668711321447  0.9601133047959469  1.0000
  C   C34       1.0  0.8107009995957497  0.3473620618216251  0.0834725158737386  1.0000
  S   S1        1.0  0.9148015313508621  0.7470080515444217  0.05296284085703396  1.0000
  C   C35       1.0  0.9995466594100614  0.6757942985727374  0.0565851709436056  1.0000
  O   O2        1.0  0.026469659388247416  0.652172623595002  0.9498593818574652  1.0000
  C   C36       1.0  0.03746565494449562  0.643819348586782  0.1805812141563421  1.0000
  C   C37       1.0  0.0984919280531058  0.5690783656763945  0.18152427419826855  1.0000
  C   C38       1.0  0.13434794613044798  0.5375837472128576  0.2979217914424075  1.0000
  C   C39       1.0  0.10990795400518928  0.5803388381194001  0.41456314312977877  1.0000
  C   C40       1.0  0.04962111825150961  0.6549086818063377  0.41500970228470546  1.0000
  C   C41       1.0  0.013559779369740399  0.6867808589607358  0.2989091088621294  1.0000
  H   H18       1.0  0.7667467943000894  0.17721182549189082  0.4245784763284089  1.0000
  H   H19       1.0  0.8702379131095295  0.579419405596941  0.2735595331181917  1.0000
  H   H20       1.0  0.8705947551219597  0.5786780617224728  0.8581727053688515  1.0000
  H   H21       1.0  0.7863777088428591  0.25286704065765586  0.09062263757861899  1.0000
  H   H22       1.0  0.8144523074860895  0.3611475756385811  0.6358870537711896  1.0000
  H   H23       1.0  0.11836220995382818  0.5342891025926667  0.0924464459065859  1.0000
  H   H24       1.0  0.1811099223749435  0.47981951102708376  0.29764990157310267  1.0000
  H   H25       1.0  0.13772676495164052  0.5558238053151106  0.5045707802399864  1.0000
  H   H26       1.0  0.030819030401436853  0.6882930946332695  0.5054546767140902  1.0000
  H   H27       1.0  0.9673200033699476  0.7454784480449799  0.30241522851795843  1.0000
  Zn  Zn1       1.0  0.7509209581861942  0.40925433889387475  0.5778692085360853  1.0000
  Zn  Zn2       1.0  0.9016890749395918  0.40673703819675033  0.5797830163203652  1.0000
  C   C42       1.0  0.8262982558658694  0.40274201458134784  0.8159687022290141  1.0000
  C   C43       1.0  0.826313423793349  0.4132509736006167  0.34168367153678547  1.0000
  C   C44       1.0  0.8263273228918027  0.6451904215265296  0.5737350921238296  1.0000
  C   C45       1.0  0.8262843051712395  0.1708010071848467  0.5839173496683516  1.0000
  O   O3        1.0  0.8835265207018673  0.4140103287868405  0.3907860060655486  1.0000
  O   O4        1.0  0.8835146709566484  0.4000711068141529  0.7683185294186956  1.0000
  O   O5        1.0  0.8835373716067737  0.5958512740219475  0.5727131660960922  1.0000
  O   O6        1.0  0.8835037686089696  0.21823017176122472  0.5863912713846329  1.0000
  O   O7        1.0  0.7691062130670578  0.5977612061898478  0.5712609528118995  1.0000
  O   O8        1.0  0.7690835125633503  0.40198259931308855  0.766866247448204  1.0000
  O   O9        1.0  0.7690953624029208  0.4159217765573189  0.38933216301527285  1.0000
  O   O10       1.0  0.7690726103030366  0.2201416102099718  0.5849375256779592  1.0000
