data_image0
_chemical_formula_structural       NC12NC2H8C7F3H5C6NCSNH7Zn2C4O8
_chemical_formula_sum              "N4 C32 H20 F3 S1 Zn2 O8"
_cell_length_a       17.80743265337812
_cell_length_b       10.29932413504667
_cell_length_c       9.275081717742442
_cell_angle_alpha    86.13765109704711
_cell_angle_beta     91.71745222805816
_cell_angle_gamma    89.41593348368521

_space_group_name_H-M_alt    "P 1"
_space_group_IT_number       1

loop_
  _space_group_symop_operation_xyz
  'x, y, z'

loop_
  _atom_site_type_symbol
  _atom_site_label
  _atom_site_symmetry_multiplicity
  _atom_site_fract_x
  _atom_site_fract_y
  _atom_site_fract_z
  _atom_site_occupancy
  N   N1        1.0  0.7046489547761435  0.39278705844510964  0.44804818783659955  1.0000
  C   C1        1.0  0.6537005979225202  0.42166200557059286  0.37181494488786626  1.0000
  C   C2        1.0  0.5903158430887002  0.4575803803270921  0.27699038735166726  1.0000
  C   C3        1.0  0.6018056910541503  0.5103406292880035  0.13648360160130402  1.0000
  C   C4        1.0  0.5403328649758206  0.5447792491150163  0.04431773708823972  1.0000
  C   C5        1.0  0.467214657061486  0.5267145148875503  0.09192637876707765  1.0000
  C   C6        1.0  0.4547488957632236  0.47384012576388446  0.23295266223471645  1.0000
  C   C7        1.0  0.5170790077860001  0.4394045953468255  0.32510020359434266  1.0000
  C   C8        1.0  0.37706781091357405  0.4546897410287199  0.28373531547928654  1.0000
  C   C9        1.0  0.358503990666825  0.4831435400900794  0.42472500782206746  1.0000
  C   C10       1.0  0.28535590123563537  0.465120784920288  0.47237866965682157  1.0000
  C   C11       1.0  0.22983021280627752  0.4183983048671016  0.3799725265969498  1.0000
  C   C12       1.0  0.1545481350585577  0.39983667285951197  0.42918076880711187  1.0000
  N   N2        1.0  0.0940266758922535  0.3849143684031572  0.4687408103415068  1.0000
  C   C13       1.0  0.24770354536567193  0.38978100108876657  0.23958536295880403  1.0000
  C   C14       1.0  0.3207983185325414  0.4078159910430521  0.19164773608487784  1.0000
  H   H1        1.0  0.6582067746966631  0.5248215428401297  0.09826975191409937  1.0000
  H   H2        1.0  0.5493475378466809  0.5859028275456593  0.9358148138706078  1.0000
  H   H3        1.0  0.42045200318070236  0.5556970594623591  0.019142148062198938  1.0000
  H   H4        1.0  0.5087627712273168  0.3968944223761961  0.43346482562431654  1.0000
  H   H5        1.0  0.40029044176383305  0.5209777949289824  0.4974992366262238  1.0000
  H   H6        1.0  0.2720837317248606  0.4879442111057113  0.581145859383366  1.0000
  H   H7        1.0  0.2052007023079469  0.35321818687439177  0.16726958724457663  1.0000
  H   H8        1.0  0.33354294312480354  0.383459991747773  0.0832169478700564  1.0000
  C   C15       1.0  0.8994152923675752  0.007469698300701651  0.45835637256303263  1.0000
  C   C16       1.0  0.974319610770247  0.007601590428344846  0.41478221435614304  1.0000
  C   C17       1.0  0.011645891053777774  0.8907046884496622  0.39026092852681904  1.0000
  C   C18       1.0  0.9741256886666677  0.7723496933008139  0.41489826620473713  1.0000
  C   C19       1.0  0.8992675652331337  0.7702216819085607  0.45844542570714997  1.0000
  C   C20       1.0  0.8622543015875432  0.8883590785529497  0.4793687914016418  1.0000
  C   C21       1.0  0.09291032737668427  0.8915790695714185  0.34854278760337887  1.0000
  F   F1        1.0  0.10900821660397453  0.005004765385934641  0.2672726119388513  1.0000
  F   F2        1.0  0.13831953842008882  0.883132970281933  0.47240823323714715  1.0000
  F   F3        1.0  0.1088015567517504  0.7873645934041771  0.26725266491891353  1.0000
  H   H9        1.0  0.758484476109921  0.2142999687403229  0.5430818413686151  1.0000
  H   H10       1.0  0.00378870132453946  0.0988015992293485  0.4001090610863771  1.0000
  H   H11       1.0  0.003461596349848549  0.681762627057266  0.4003086486203262  1.0000
  H   H12       1.0  0.8045214134661872  0.8874529470178687  0.512950288515559  1.0000
  H   H13       1.0  0.8708929705839606  0.44179374793271786  0.4776356480298782  1.0000
  C   C22       1.0  0.8986623991764988  0.38505460202439634  0.035175459702973866  1.0000
  C   C23       1.0  0.8314994746635155  0.414718067390192  0.10231297898045244  1.0000
  C   C24       1.0  0.7676327717578574  0.45612060853150616  0.020585015770021583  1.0000
  C   C25       1.0  0.7696298923763877  0.4703412064861012  0.8694419934321594  1.0000
  C   C26       1.0  0.8354220706531604  0.43663257511059145  0.8011235094723399  1.0000
  C   C27       1.0  0.9000204534030799  0.39263685321783304  0.8816263714747423  1.0000
  N   N3        1.0  0.7041242807699248  0.5111351713458339  0.7831800976244532  1.0000
  C   C28       1.0  0.648007379458518  0.5996715640312895  0.828072141306798  1.0000
  S   S1        1.0  0.5635059408929004  0.5990403166815983  0.7536140884726565  1.0000
  N   N4        1.0  0.6669788184550174  0.6980998735609936  0.9240859146819832  1.0000
  H   H14       1.0  0.003318674441120882  0.2680394339122152  0.33117768803705383  1.0000
  H   H15       1.0  0.7165662134901268  0.4767066749370464  0.07566212032842645  1.0000
  H   H16       1.0  0.8356194841689695  0.4429452879034006  0.6840239843408327  1.0000
  H   H17       1.0  0.023961939320575224  0.3805615457397536  0.6087381452819742  1.0000
  H   H18       1.0  0.697181126685524  0.47499900356735725  0.681020091119175  1.0000
  H   H19       1.0  0.7225718788531983  0.7119508601704438  0.9578924539936198  1.0000
  H   H20       1.0  0.6258216458928153  0.7619192955778066  0.9566383309041363  1.0000
  Zn  Zn1       1.0  0.8170149714092226  0.3905117771945059  0.4540279399499012  1.0000
  Zn  Zn2       1.0  0.9816606776780139  0.38717916116208534  0.46277281266547415  1.0000
  C   C29       1.0  0.8997630699249781  0.38602981085457966  0.7216283037247555  1.0000
  C   C30       1.0  0.8989143769978024  0.39166273104859645  0.19517268603199933  1.0000
  C   C31       1.0  0.8992823960712907  0.6259939886755825  0.4526852224589238  1.0000
  C   C32       1.0  0.8993949950949283  0.15169699470102496  0.4641158409694468  1.0000
  O   O1        1.0  0.9614811316246316  0.3926101031778604  0.2521878497405001  1.0000
  O   O2        1.0  0.962158596237989  0.382552076798307  0.6712498810735079  1.0000
  O   O3        1.0  0.9617696061367491  0.5763262156227518  0.45407639555467333  1.0000
  O   O4        1.0  0.961870065368271  0.1988359738131471  0.4693612242145204  1.0000
  O   O5        1.0  0.8368055275334543  0.5788549656820481  0.4474395254090784  1.0000
  O   O6        1.0  0.8371945172057443  0.3850823865227762  0.6646129342645206  1.0000
  O   O7        1.0  0.8365170498710681  0.39514035212235604  0.24554917015920652  1.0000
  O   O8        1.0  0.8369059837867967  0.2013662144365158  0.46272265268626467  1.0000
