data_image0
_chemical_formula_structural       NC8NH4C6BrH5C6SCH8Zn2C4O8
_chemical_formula_sum              "N2 C25 H17 Br1 S1 Zn2 O8"
_cell_length_a       13.859017124695912
_cell_length_b       9.276564384272257
_cell_length_c       10.302812801239595
_cell_angle_alpha    85.51203806162957
_cell_angle_beta     89.99985351461923
_cell_angle_gamma    90.58596084768166

_space_group_name_H-M_alt    "P 1"
_space_group_IT_number       1

loop_
  _space_group_symop_operation_xyz
  'x, y, z'

loop_
  _atom_site_type_symbol
  _atom_site_label
  _atom_site_symmetry_multiplicity
  _atom_site_fract_x
  _atom_site_fract_y
  _atom_site_fract_z
  _atom_site_occupancy
  N   N1        1.0  0.9193956077083273  0.5782301660090261  0.5667419343587827  1.0000
  C   C1        1.0  0.8468847228619072  0.555371852922554  0.5161716897229567  1.0000
  C   C2        1.0  0.756685500914522  0.5269394564448997  0.45326880440939177  1.0000
  C   C3        1.0  0.6692599360464432  0.5546581669232684  0.5145912029240287  1.0000
  C   C4        1.0  0.5814551894463584  0.5269406822261005  0.45326828168711336  1.0000
  C   C5        1.0  0.5812583653546928  0.47149698752095315  0.3306041378071316  1.0000
  C   C6        1.0  0.6685020987905004  0.44388481243692207  0.2695177857406077  1.0000
  C   C7        1.0  0.7561237081456286  0.4714946381443399  0.330605200964627  1.0000
  C   C8        1.0  0.49164489048671095  0.5553727794439656  0.5161712404416521  1.0000
  N   N2        1.0  0.41944673550520833  0.578230488607895  0.5667417395482082  1.0000
  H   H1        1.0  0.6695534913912362  0.5975737527312175  0.6095361884310475  1.0000
  H   H2        1.0  0.5138137002826589  0.44968134190337117  0.2823366957296529  1.0000
  H   H3        1.0  0.6682092091141736  0.4010568888173722  0.17476507929369234  1.0000
  H   H4        1.0  0.8232698864383513  0.4496768918713885  0.2823386605156102  1.0000
  C   C9        1.0  0.1665187099658585  0.15474937494417174  0.5670738407705831  1.0000
  C   C10       1.0  0.154153591927209  0.23824866044252443  0.4484142645440312  1.0000
  C   C11       1.0  0.15076826877464744  0.17325979462198204  0.3308630248261475  1.0000
  C   C12       1.0  0.15972662572478735  0.023852640458370763  0.3297393057657223  1.0000
  C   C13       1.0  0.17039191320784086  0.9386600247837955  0.4466045493796966  1.0000
  C   C14       1.0  0.172332792517361  0.0017001816135682178  0.5664210434625101  1.0000
  Br  Br1       1.0  0.15580482724758027  0.9354948711241002  0.16843846598924705  1.0000
  H   H5        1.0  0.13822430515561068  0.41730174537793974  0.7781441503834052  1.0000
  H   H6        1.0  0.1493919225291196  0.3549050497858379  0.44619163913308135  1.0000
  H   H7        1.0  0.1420975721228901  0.23948002561381077  0.2404298921284054  1.0000
  H   H8        1.0  0.174856335657124  0.8224200456672441  0.44380546765733625  1.0000
  H   H9        1.0  0.22556063265272686  0.7037675478852549  0.7686251363771879  1.0000
  C   C15       1.0  0.1694257780524986  0.5782248006606385  0.18549900357441707  1.0000
  C   C16       1.0  0.13787267437772344  0.722036086500826  0.17419089802165044  1.0000
  C   C17       1.0  0.12192263032536377  0.7933793426997318  0.05158892049823893  1.0000
  C   C18       1.0  0.13787258635173982  0.7220359351198434  0.9390397284491055  1.0000
  C   C19       1.0  0.16942571539987575  0.5782247909422409  0.947995907211468  1.0000
  C   C20       1.0  0.18501826556913237  0.5070093239145673  0.07176493820508312  1.0000
  S   S1        1.0  0.08180777399872685  0.9772263007144423  0.038635915710240276  1.0000
  C   C21       1.0  0.9545423568128424  0.9268415961241556  0.04218692955882419  1.0000
  H   H10       1.0  0.1812806362064847  0.5240108105532744  0.5170748601629589  1.0000
  H   H11       1.0  0.12533846686894545  0.7791583395737838  0.2602659289001683  1.0000
  H   H12       1.0  0.12533827226363511  0.7791581318391978  0.8449156160782453  1.0000
  H   H13       1.0  0.20933901043653935  0.3960717446767863  0.07958096971204953  1.0000
  H   H14       1.0  0.1812788344704688  0.5240100618604875  0.6240592752265779  1.0000
  H   H15       1.0  0.9369921844140938  0.8626881451259706  0.9585900573758463  1.0000
  H   H16       1.0  0.9369926076734966  0.8626896025335907  0.13482474828594793  1.0000
  H   H17       1.0  0.9105686026312548  0.02637891747683385  0.03517372622662873  1.0000
  Zn  Zn1       1.0  0.06369953806936057  0.5782264088976701  0.5667493823943919  1.0000
  Zn  Zn2       1.0  0.27514271675297275  0.5782224819722449  0.5667449488922689  1.0000
  C   C22       1.0  0.16938413946974196  0.5724798132328999  0.8038721065000398  1.0000
  C   C23       1.0  0.16946043679629375  0.5839708971556283  0.32962235076204305  1.0000
  C   C24       1.0  0.17122883755686513  0.8416084733021186  0.5613709341168032  1.0000
  C   C25       1.0  0.16761565466460196  0.31484050449128187  0.5721235936988842  1.0000
  O   O1        1.0  0.24971360976387705  0.5858915580111121  0.37798978501912184  1.0000
  O   O2        1.0  0.24961143919275644  0.5705550840251161  0.7555009344279386  1.0000
  O   O3        1.0  0.2510999745324589  0.7878798806475156  0.559679520859474  1.0000
  O   O4        1.0  0.2482250023437651  0.3685667717061354  0.5738111012372364  1.0000
  O   O5        1.0  0.09061718032339927  0.78788211916669  0.559683230044107  1.0000
  O   O6        1.0  0.08912865687309668  0.5705590551423279  0.7555045730536503  1.0000
  O   O7        1.0  0.0892308271635347  0.5858954788750754  0.37799186277604213  1.0000
  O   O8        1.0  0.08774221966866347  0.3685706822555863  0.5738132763391897  1.0000
