data_image0
_chemical_formula_structural       NC8NC6H8C7NC2NH6C9H8Zn2C4O8
_chemical_formula_sum              "N4 C36 H22 Zn2 O8"
_cell_length_a       17.457602349358154
_cell_length_b       9.273995741505848
_cell_length_c       9.272679976505533
_cell_angle_alpha    86.1595600704732
_cell_angle_beta     93.25957942520282
_cell_angle_gamma    92.2639659462817

_space_group_name_H-M_alt    "P 1"
_space_group_IT_number       1

loop_
  _space_group_symop_operation_xyz
  'x, y, z'

loop_
  _atom_site_type_symbol
  _atom_site_label
  _atom_site_symmetry_multiplicity
  _atom_site_fract_x
  _atom_site_fract_y
  _atom_site_fract_z
  _atom_site_occupancy
  N   N1        1.0  0.7255141044210426  0.6012031839113274  0.47955002745682807  1.0000
  C   C1        1.0  0.6641153857314346  0.5500945080232935  0.46760842504319977  1.0000
  C   C2        1.0  0.5877328705130896  0.4865217496269556  0.45276368710004844  1.0000
  C   C3        1.0  0.52975573268312  0.5318156468822655  0.5360719794526618  1.0000
  C   C4        1.0  0.45482661155339815  0.4706013734285805  0.5219166260662564  1.0000
  C   C5        1.0  0.3932903648433859  0.5184272362058008  0.6101428418711994  1.0000
  C   C6        1.0  0.3186247902209609  0.5384320023659825  0.5482782321973012  1.0000
  C   C7        1.0  0.2606469862151725  0.5835225887865401  0.6317057967470585  1.0000
  C   C8        1.0  0.1845377607723674  0.6041800825463712  0.5673829066782388  1.0000
  N   N2        1.0  0.1233588221753957  0.6207816226158698  0.5156674495884739  1.0000
  C   C9        1.0  0.2768461603531213  0.6088831230467611  0.7775634941881492  1.0000
  C   C10       1.0  0.35073097734002456  0.589313965420633  0.839859829579503  1.0000
  C   C11       1.0  0.4087001524412062  0.5444275547138924  0.7569411685932088  1.0000
  C   C12       1.0  0.4391532715649429  0.3633276714061444  0.4228594537454645  1.0000
  C   C13       1.0  0.4971220236602795  0.31834697202945694  0.3399962964215233  1.0000
  C   C14       1.0  0.5712693278867401  0.379691088672134  0.35476274911986266  1.0000
  H   H1        1.0  0.5428283835156491  0.6159466323407321  0.61031620430796  1.0000
  H   H2        1.0  0.3057681896361034  0.5208721512564018  0.4349290835283733  1.0000
  H   H3        1.0  0.23241439350569132  0.6437235620867592  0.8430040679813451  1.0000
  H   H4        1.0  0.36308171876605355  0.6086005906649942  0.9527996478828792  1.0000
  H   H5        1.0  0.4652857627999134  0.5281962629533246  0.8080930651434519  1.0000
  H   H6        1.0  0.3823512376768949  0.3128736437373478  0.41087970396458834  1.0000
  H   H7        1.0  0.48456496669771026  0.23544516297264906  0.2644250345946293  1.0000
  H   H8        1.0  0.6156980047847054  0.34388929332415574  0.2898868934560075  1.0000
  C   C15       1.0  0.922140334376004  0.18738192025929185  0.49634710961419076  1.0000
  C   C16       1.0  0.9351353188518428  0.27020708990285014  0.36714662242665375  1.0000
  C   C17       1.0  0.9550195360854594  0.20506420157444794  0.243979098560025  1.0000
  C   C18       1.0  0.962744316412311  0.05501308149939964  0.24651814945879427  1.0000
  C   C19       1.0  0.9481328953300204  0.9708211451083643  0.374377586723208  1.0000
  C   C20       1.0  0.9267399153110579  0.03459216439536572  0.49888344357698317  1.0000
  C   C21       1.0  0.9847482197928996  0.9880190525010853  0.11454266224597776  1.0000
  N   N3        1.0  0.9870586851237766  0.06136171501392896  0.9837487782608121  1.0000
  C   C22       1.0  0.009748794805327646  0.9638602224915207  0.8951358091121211  1.0000
  C   C23       1.0  0.02098647510279462  0.834115496531145  0.9726916413830402  1.0000
  N   N4        1.0  0.005296562505766612  0.8494654214554906  0.11066216660421936  1.0000
  H   H9        1.0  0.8606550693577939  0.4506297686489156  0.698256592185849  1.0000
  H   H10       1.0  0.9654908171619963  0.27299029666034236  0.14699255208474038  1.0000
  H   H11       1.0  0.9286337833167717  0.7385864333107746  0.7388049272890918  1.0000
  H   H12       1.0  0.017815728868102006  0.9863526489102896  0.7809239066111036  1.0000
  H   H13       1.0  0.03968207986354312  0.7355796641004595  0.9316503691436466  1.0000
  H   H14       1.0  0.009781351200145004  0.7698244265331188  0.1953418770763789  1.0000
  C   C24       1.0  0.9228652187260307  0.6075041413438271  0.07410112602010899  1.0000
  C   C25       1.0  0.9745494040885088  0.5208404484577664  0.15883621492229  1.0000
  C   C26       1.0  0.030077381626651745  0.4460523615618779  0.09508225666177153  1.0000
  C   C27       1.0  0.03579926598274996  0.45547099854997053  0.9447623112764885  1.0000
  C   C28       1.0  0.9831830177629941  0.5401315599382135  0.8585534342219324  1.0000
  C   C29       1.0  0.9260150190192921  0.6144700170344222  0.9211295063145664  1.0000
  C   C30       1.0  0.0984350420066402  0.37167974092942835  0.8840829890511333  1.0000
  C   C31       1.0  0.0797977901816278  0.30476382148900644  0.7401260768899731  1.0000
  C   C32       1.0  0.1344933168043572  0.43658543641196385  0.7475960470138467  1.0000
  H   H15       1.0  0.8078095045060776  0.6993485223812357  0.3368508717659127  1.0000
  H   H16       1.0  0.06945558534855058  0.3813432486958108  0.1641227939027745  1.0000
  H   H17       1.0  0.7524715997918325  0.7416008565100976  0.7910114416383831  1.0000
  H   H18       1.0  0.13820412408295418  0.30876174941845513  0.9597173142869746  1.0000
  H   H19       1.0  0.022911133299323053  0.32657446465204276  0.685341715202024  1.0000
  H   H20       1.0  0.10905107379403826  0.20238145857710194  0.7282280482838932  1.0000
  H   H21       1.0  0.11086773755738863  0.5384062289368079  0.697235738813164  1.0000
  H   H22       1.0  0.19572265639972766  0.41123802373063617  0.7400608455521538  1.0000
  Zn  Zn1       1.0  0.8403235060418758  0.6068492984261533  0.4899810508510892  1.0000
  Zn  Zn2       1.0  0.008549386001875934  0.6151237779943953  0.505248198318974  1.0000
  C   C33       1.0  0.925386734847846  0.6074064822932628  0.7610056038731641  1.0000
  C   C34       1.0  0.9234880046252577  0.6145685057673766  0.2342239590155386  1.0000
  C   C35       1.0  0.9258451728684342  0.874403979169895  0.49265660453066773  1.0000
  C   C36       1.0  0.923029500077562  0.34756927357233325  0.5025730248500431  1.0000
  O   O1        1.0  0.9875378278236572  0.6200731995759263  0.2937564285668415  1.0000
  O   O2        1.0  0.9890164546051987  0.6081808353643088  0.7130601275743593  1.0000
  O   O3        1.0  0.9893857940759888  0.8237846607386732  0.49636633837768646  1.0000
  O   O4        1.0  0.9871684306026745  0.4044693808079893  0.5104501044491789  1.0000
  O   O5        1.0  0.8617044040338208  0.8175036927903936  0.4847791395033749  1.0000
  O   O6        1.0  0.861335073682882  0.6019015999122739  0.7014728569905309  1.0000
  O   O7        1.0  0.8598564402315055  0.6137938995979235  0.2821674238853767  1.0000
  O   O8        1.0  0.8594870433534596  0.39819007140139345  0.49886120786454075  1.0000
