data_image0
_chemical_formula_structural       NC9NC4H8C7NC2NH8C8H6Zn2C4O8
_chemical_formula_sum              "N4 C34 H22 Zn2 O8"
_cell_length_a       16.32274767691083
_cell_length_b       9.273995741505848
_cell_length_c       9.275144076552241
_cell_angle_alpha    86.09759500334717
_cell_angle_beta     89.93057160658579
_cell_angle_gamma    90.10890436374608

_space_group_name_H-M_alt    "P 1"
_space_group_IT_number       1

loop_
  _space_group_symop_operation_xyz
  'x, y, z'

loop_
  _atom_site_type_symbol
  _atom_site_label
  _atom_site_symmetry_multiplicity
  _atom_site_fract_x
  _atom_site_fract_y
  _atom_site_fract_z
  _atom_site_occupancy
  N   N1        1.0  0.7732025268025597  0.556776926218105  0.40212488098110444  1.0000
  C   C1        1.0  0.7202932199262896  0.5036840109839336  0.3417406449878482  1.0000
  C   C2        1.0  0.6545269679466658  0.43774219682478743  0.2667429410604014  1.0000
  C   C3        1.0  0.6651049676756258  0.3475455293888963  0.1641546645171681  1.0000
  C   C4        1.0  0.5852636879836857  0.3035291046116164  0.11409498751155112  1.0000
  C   C5        1.0  0.527026832628247  0.3679461851173654  0.18736448991431898  1.0000
  C   C6        1.0  0.4369053729443031  0.3509213568540842  0.16800393500479527  1.0000
  C   C7        1.0  0.38212084712804023  0.42600356760991587  0.25339606639342294  1.0000
  C   C8        1.0  0.2972550979940743  0.41145332916203625  0.23684930989267694  1.0000
  C   C9        1.0  0.24208358662867574  0.4888436992653345  0.3248657005558939  1.0000
  N   N2        1.0  0.1977444933582496  0.5510528190176169  0.3956159722616648  1.0000
  C   C10       1.0  0.2661195272875998  0.32169945377208187  0.13477301279801202  1.0000
  C   C11       1.0  0.3195832112114462  0.2467166975129547  0.04949436830413401  1.0000
  C   C12       1.0  0.40428592833268123  0.26087501858631046  0.06559525785548193  1.0000
  C   C13       1.0  0.5657959211069793  0.4618733543049183  0.2941928973699881  1.0000
  H   H1        1.0  0.7236334613931142  0.312472281353913  0.12426041556540944  1.0000
  H   H2        1.0  0.576171805090894  0.22981147931164306  0.030249511929049795  1.0000
  H   H3        1.0  0.40499039702275574  0.49607159909905896  0.33308394295302945  1.0000
  H   H4        1.0  0.20059825786741803  0.3097130733220743  0.12114216684226431  1.0000
  H   H5        1.0  0.2953244778505175  0.17728370845413413  0.9705290042102956  1.0000
  H   H6        1.0  0.4434190593695398  0.20089364323278813  0.9973782693023652  1.0000
  H   H7        1.0  0.5493147924658317  0.4240741426355663  0.40675171815599565  1.0000
  H   H8        1.0  0.5495728104218913  0.5772529917824281  0.2698728959757557  1.0000
  C   C14       1.0  0.983022648740352  0.13045155491447358  0.39785502000036543  1.0000
  C   C15       1.0  0.996807712668723  0.212591275796961  0.2672875818275171  1.0000
  C   C16       1.0  0.017947708306043534  0.1463189410234449  0.14201392075484165  1.0000
  C   C17       1.0  0.02619201314834707  0.995774544296719  0.14372495694067755  1.0000
  C   C18       1.0  0.010681291402706568  0.9123721523134497  0.2731247676684161  1.0000
  C   C19       1.0  0.9879322150788105  0.9773669782675511  0.39989812818651194  1.0000
  C   C20       1.0  0.04958827907102248  0.9275259936677033  0.009417974223541846  1.0000
  N   N3        1.0  0.051971450040462  0.0008634072812323503  0.8784020333083279  1.0000
  C   C21       1.0  0.07612718474244805  0.9020169171787  0.7873756200704984  1.0000
  C   C22       1.0  0.08816707045189931  0.7714747035642606  0.8637125182220458  1.0000
  N   N4        1.0  0.07151190178100991  0.7876717218305563  0.003336983165503683  1.0000
  H   H9        1.0  0.9175418414920083  0.39738538521496725  0.6063118476365685  1.0000
  H   H10       1.0  0.9932219507858152  0.3294510238691901  0.26269352247959454  1.0000
  H   H11       1.0  0.029060107246526412  0.2136850018976566  0.04392450728015107  1.0000
  H   H12       1.0  0.013464362933706127  0.7957864802291514  0.27507966344551127  1.0000
  H   H13       1.0  0.9901038564648835  0.6809814839185496  0.6395700412827605  1.0000
  H   H14       1.0  0.08466320438293251  0.9241206186320701  0.672321769423124  1.0000
  H   H15       1.0  0.10809037735578061  0.6717960742322718  0.8206764575155567  1.0000
  H   H16       1.0  0.0763506075489997  0.7076543486105398  0.08751977978621528  1.0000
  C   C23       1.0  0.9835307475917122  0.5509844497853176  0.9756135526528853  1.0000
  C   C24       1.0  0.9306642850783594  0.645748979984375  0.04263304077437579  1.0000
  C   C25       1.0  0.8844124996385783  0.7475696831878311  0.9606600963431674  1.0000
  C   C26       1.0  0.8901919844391618  0.7567074796080033  0.8101640581970972  1.0000
  C   C27       1.0  0.9413571613049282  0.6618601300311577  0.7414145562439947  1.0000
  C   C28       1.0  0.9874241159890231  0.5568341747723391  0.8221396687736631  1.0000
  C   C29       1.0  0.842773372716983  0.862508270738536  0.725849003951565  1.0000
  C   C30       1.0  0.8030746466507749  0.9510883741252626  0.655241357295798  1.0000
  H   H17       1.0  0.15273292163149677  0.3593899195501933  0.0911499531959219  1.0000
  H   H18       1.0  0.9265526062220601  0.6433801257726981  0.15936013949034278  1.0000
  H   H19       1.0  0.8446951216808112  0.8202128504985533  0.01488776704818106  1.0000
  H   H20       1.0  0.9437404509974237  0.6678205538254645  0.6243083937762148  1.0000
  H   H21       1.0  0.09954558894031429  0.4232791781799268  0.550276252635681  1.0000
  H   H22       1.0  0.7682274030223936  0.02884281092129148  0.5932610238686378  1.0000
  Zn  Zn1       1.0  0.8957161897937532  0.5551212597421733  0.40025486506521357  1.0000
  Zn  Zn2       1.0  0.0752308222495055  0.5526967338330511  0.3974977675452074  1.0000
  C   C31       1.0  0.9866530543182064  0.5499837109285872  0.6621142391214663  1.0000
  C   C32       1.0  0.9842959292174543  0.5578360766340057  0.13563850923983334  1.0000
  C   C33       1.0  0.9869735685683063  0.8172423449780505  0.39376835058553894  1.0000
  C   C34       1.0  0.9839753440215491  0.29057571141874394  0.4039844713815759  1.0000
  O   O1        1.0  0.0526775621601312  0.5592091591387316  0.1882980271993837  1.0000
  O   O2        1.0  0.05451886550898544  0.5467693786300452  0.6073617304009671  1.0000
  O   O3        1.0  0.05477677335656716  0.7625841283315573  0.39067054453863714  1.0000
  O   O4        1.0  0.052419592619119326  0.34339441983339647  0.40498910595594473  1.0000
  O   O5        1.0  0.9185273581645795  0.7644235745707162  0.39276352758776056  1.0000
  O   O6        1.0  0.9182694600032433  0.5486105568638917  0.6094546407775598  1.0000
  O   O7        1.0  0.9164281484474537  0.5610502751457647  0.1903892045303075  1.0000
  O   O8        1.0  0.916170179340312  0.34523552627314147  0.4070803913259222  1.0000
