data_image0
_chemical_formula_structural       NC8NC6H8C7OH6C7F3H5Zn2C4O8
_chemical_formula_sum              "N2 C32 H19 O9 F3 Zn2"
_cell_length_a       17.457602349358154
_cell_length_b       9.274078303013077
_cell_length_c       9.272291681409872
_cell_angle_alpha    86.24016049207208
_cell_angle_beta     93.27365386630078
_cell_angle_gamma    91.09880916489897

_space_group_name_H-M_alt    "P 1"
_space_group_IT_number       1

loop_
  _space_group_symop_operation_xyz
  'x, y, z'

loop_
  _atom_site_type_symbol
  _atom_site_label
  _atom_site_symmetry_multiplicity
  _atom_site_fract_x
  _atom_site_fract_y
  _atom_site_fract_z
  _atom_site_occupancy
  N   N1        1.0  0.7079870110016715  0.5992013927265554  0.47886823010685103  1.0000
  C   C1        1.0  0.6471394839423735  0.5481138626017716  0.4669477907265978  1.0000
  C   C2        1.0  0.5714425829627375  0.4845674133142102  0.4521293770228991  1.0000
  C   C3        1.0  0.5129868908159105  0.5298939814481453  0.5354196347281985  1.0000
  C   C4        1.0  0.4387179672575585  0.4687051390830521  0.5212896303525538  1.0000
  C   C5        1.0  0.3766764502717425  0.5165656835182197  0.6094968059441821  1.0000
  C   C6        1.0  0.30178604804662845  0.5365151354535118  0.547623253407703  1.0000
  C   C7        1.0  0.24333190513410105  0.5816385947677019  0.6310328691494302  1.0000
  C   C8        1.0  0.166990456257277  0.6022386586275599  0.5667007400678397  1.0000
  N   N2        1.0  0.10562488667395949  0.6187940292626126  0.5149778577633765  1.0000
  C   C9        1.0  0.2592766736906267  0.6070875568893106  0.776881451859302  1.0000
  C   C10       1.0  0.33338166540983083  0.5875737665030971  0.839186553006161  1.0000
  C   C11       1.0  0.391825040395785  0.5426547244557005  0.7562857608528396  1.0000
  C   C12       1.0  0.42419144208659587  0.3614235139544646  0.42227614466300906  1.0000
  C   C13       1.0  0.4826354215246171  0.316410277058623  0.33943089598326526  1.0000
  C   C14       1.0  0.55612120713147  0.3777293194417785  0.35417195166004134  1.0000
  H   H1        1.0  0.5251596652566703  0.6140287469245442  0.6096295635839334  1.0000
  H   H2        1.0  0.28910391352200443  0.5188853214370512  0.43428029342546953  1.0000
  H   H3        1.0  0.2144769844366156  0.6419540874449479  0.8423081667204542  1.0000
  H   H4        1.0  0.345539207095563  0.6069290656387636  0.9521194595481388  1.0000
  H   H5        1.0  0.4485931999930803  0.5264689893968657  0.8074449228644089  1.0000
  H   H6        1.0  0.367933513560359  0.3109902260972599  0.41031728494577235  1.0000
  H   H7        1.0  0.4709647643216808  0.23350303829108143  0.26389340518485055  1.0000
  H   H8        1.0  0.6009282821148061  0.34190238832951514  0.2893103608270392  1.0000
  C   C15       1.0  0.9090916687339863  0.18563156989172994  0.49583779149057094  1.0000
  C   C16       1.0  0.8937657910763066  0.26720280283448883  0.3643000355249626  1.0000
  C   C17       1.0  0.8718291512295449  0.19992485201825794  0.23708652059373805  1.0000
  C   C18       1.0  0.8650142067438715  0.04898777458218184  0.2413123318698789  1.0000
  C   C19       1.0  0.881193394730804  0.9663765273778606  0.37024438894348144  1.0000
  C   C20       1.0  0.9045276818794046  0.03235317824741024  0.4980214460796904  1.0000
  C   C21       1.0  0.8555166329535718  0.28886562101226027  0.10142720252407145  1.0000
  O   O1        1.0  0.8353671046895507  0.23157767691488715  0.9854434723607862  1.0000
  H   H9        1.0  0.9080689967824102  0.26531261641114884  0.8507129793160197  1.0000
  H   H10       1.0  0.8971860129119178  0.3842097503100017  0.3615010730801349  1.0000
  H   H11       1.0  0.8478719396903134  0.9944593959890519  0.14457726575010255  1.0000
  H   H12       1.0  0.8771910685710193  0.8497354326954835  0.36910970905690643  1.0000
  H   H13       1.0  0.9071958347813077  0.7356790255240343  0.7366964988581073  1.0000
  H   H14       1.0  0.8608076326324732  0.4054276599509934  0.1003927388876138  1.0000
  C   C22       1.0  0.9052146284614834  0.6052120833746419  0.07341268754682395  1.0000
  C   C23       1.0  0.9573059901091938  0.5170206564137998  0.1580840897830565  1.0000
  C   C24       1.0  0.013496999192964102  0.4419532649850044  0.09415102668721698  1.0000
  C   C25       1.0  0.01983081305026335  0.4548378239641566  0.9438724296228039  1.0000
  C   C26       1.0  0.9662363797250381  0.5381776718911686  0.857879680088065  1.0000
  C   C27       1.0  0.9084046960589436  0.6127727232310884  0.9204464699448024  1.0000
  C   C28       1.0  0.07920695309990024  0.370426932102222  0.8744111546381427  1.0000
  F   F1        1.0  0.14358271294612357  0.34924949936902827  0.9671015889337787  1.0000
  F   F2        1.0  0.10178310620407617  0.44370668694757814  0.7486102537815962  1.0000
  F   F3        1.0  0.048303309906189834  0.2374931565931857  0.8412426141371299  1.0000
  H   H15       1.0  0.7955966233697885  0.8912180426505658  0.14444278971662894  1.0000
  H   H16       1.0  0.9555815145047095  0.5083260470946942  0.27494776635361595  1.0000
  H   H17       1.0  0.052521582463141536  0.3746434784397701  0.16269582739079413  1.0000
  H   H18       1.0  0.9684032062689135  0.5421310279406153  0.7411004568835504  1.0000
  H   H19       1.0  0.7337800073840145  0.7423154132488596  0.7916701978052473  1.0000
  Zn  Zn1       1.0  0.822736764703493  0.6048516125071324  0.4892970058486469  1.0000
  Zn  Zn2       1.0  0.9908752269060515  0.6131320944880276  0.5045608591473367  1.0000
  C   C29       1.0  0.9078309603250178  0.605600065914236  0.7603240123431023  1.0000
  C   C30       1.0  0.905782858079273  0.6123855518361141  0.23353416557863227  1.0000
  C   C31       1.0  0.9053647673770794  0.8722532936674787  0.4918611778114628  1.0000
  C   C32       1.0  0.9082490032794074  0.3457305898160643  0.5019970673255154  1.0000
  O   O2        1.0  0.9697812651773429  0.6179291434707439  0.2930649328920314  1.0000
  O   O3        1.0  0.9714457598783756  0.6063400771877054  0.7123777385344174  1.0000
  O   O4        1.0  0.9694534233735768  0.8216659019133108  0.49559202600944446  1.0000
  O   O5        1.0  0.9717735438450226  0.4026033252676376  0.5098505320987943  1.0000
  O   O6        1.0  0.8418383903870794  0.8153803789033021  0.4840073276808024  1.0000
  O   O7        1.0  0.8438307172622393  0.6000562856202833  0.7007929677741465  1.0000
  O   O8        1.0  0.842166216352626  0.6116452861888448  0.2814784280438094  1.0000
  O   O9        1.0  0.8441584954799829  0.3963194586390193  0.4982641353523965  1.0000
