data_image0
_chemical_formula_structural       NC5NC4H6C6NCH9C6NH7Zn2C4O8
_chemical_formula_sum              "N4 C26 H22 Zn2 O8"
_cell_length_a       13.854160002989762
_cell_length_b       9.273386996610926
_cell_length_c       9.274774538082514
_cell_angle_alpha    84.97283399596293
_cell_angle_beta     90.34967120186236
_cell_angle_gamma    89.39858485477477

_space_group_name_H-M_alt    "P 1"
_space_group_IT_number       1

loop_
  _space_group_symop_operation_xyz
  'x, y, z'

loop_
  _atom_site_type_symbol
  _atom_site_label
  _atom_site_symmetry_multiplicity
  _atom_site_fract_x
  _atom_site_fract_y
  _atom_site_fract_z
  _atom_site_occupancy
  N   N1        1.0  0.891203423792763  0.5927570928422551  0.40542290816365145  1.0000
  C   C1        1.0  0.818448233718907  0.6184924272601604  0.3462656385683791  1.0000
  C   C2        1.0  0.7279397448384365  0.650507887046952  0.2726717305423334  1.0000
  C   C3        1.0  0.6408737184867931  0.6203892297696696  0.34452776090136106  1.0000
  C   C4        1.0  0.5527973322701732  0.6505079015833195  0.2726717073189382  1.0000
  C   C5        1.0  0.46334009377130325  0.6184922790916381  0.34626573054023746  1.0000
  N   N2        1.0  0.3914298536412797  0.5927570293243882  0.4054229081812872  1.0000
  C   C6        1.0  0.5518154196667864  0.7113516618452935  0.12897764349329455  1.0000
  C   C7        1.0  0.638833157666615  0.7436220799465441  0.057014517011645616  1.0000
  C   C8        1.0  0.6377692024143206  0.8048072337974213  0.9018175490547838  1.0000
  C   C9        1.0  0.7268925083369727  0.7113516613066633  0.12897755311109438  1.0000
  H   H1        1.0  0.6416597880089133  0.573186007947757  0.45574451068886535  1.0000
  H   H2        1.0  0.48355814398911  0.7336307873072636  0.07322681050067037  1.0000
  H   H3        1.0  0.7020452051238365  0.8731985415191517  0.877890878886241  1.0000
  H   H4        1.0  0.5723367277221697  0.8731985428291655  0.8778909440445193  1.0000
  H   H5        1.0  0.6381090150769818  0.7148758443659722  0.8303280814397827  1.0000
  H   H6        1.0  0.7943811019251211  0.7336309005741026  0.07322672478893932  1.0000
  C   C10       1.0  0.14429237697105646  0.16909689283044083  0.4061321428269454  1.0000
  C   C11       1.0  0.16069911778482024  0.2537086351169764  0.275636161453811  1.0000
  C   C12       1.0  0.16801765833439686  0.19034196039236884  0.1451321127095746  1.0000
  C   C13       1.0  0.159034515299004  0.04007041778107333  0.14178735997144723  1.0000
  C   C14       1.0  0.14432688149479822  0.9544997075748317  0.2718300276645027  1.0000
  C   C15       1.0  0.1383502534983141  0.016405990512052823  0.40472623722517986  1.0000
  N   N3        1.0  0.16552591657402518  0.971690776818238  0.008588925981908076  1.0000
  C   C16       1.0  0.18102120983974257  0.05081347656346469  0.8677488189657354  1.0000
  H   H7        1.0  0.1649951366547934  0.4291786414997784  0.643081616338895  1.0000
  H   H8        1.0  0.1656149100211101  0.3703699438527752  0.273865489687102  1.0000
  H   H9        1.0  0.17978344777492428  0.2597976058508875  0.04709706144707071  1.0000
  H   H10       1.0  0.13976150233861206  0.8381184614042098  0.2695532183729308  1.0000
  H   H11       1.0  0.17534750958630593  0.8819835420180113  0.7562498651316465  1.0000
  H   H12       1.0  0.15871430728017724  0.85929759864485  0.011581747606374433  1.0000
  H   H13       1.0  0.12108003569404889  0.12960536987589122  0.8426725865295879  1.0000
  H   H14       1.0  0.250885473257916  0.10836318690993152  0.8679817174693665  1.0000
  H   H15       1.0  0.18310001445357238  0.9741207737733537  0.7823065341012976  1.0000
  C   C17       1.0  0.13956320321422533  0.5964413866353917  0.9816067383620727  1.0000
  C   C18       1.0  0.20736039978796272  0.6815782128193941  0.04820198327929237  1.0000
  C   C19       1.0  0.2795712470654283  0.7548308690455786  0.9673155214822691  1.0000
  C   C20       1.0  0.28457157198807503  0.7432789262781573  0.8183572746099839  1.0000
  C   C21       1.0  0.21706176179381975  0.6613202374687569  0.7500541936755996  1.0000
  C   C22       1.0  0.1430794387235563  0.5890614761474786  0.8292516103564984  1.0000
  N   N4        1.0  0.3484779406417897  0.8397669831734702  0.036916344636468  1.0000
  H   H16       1.0  0.997262918050955  0.3144176597055772  0.10799500718971804  1.0000
  H   H17       1.0  0.20557495604396547  0.688420575122831  0.16421075904573026  1.0000
  H   H18       1.0  0.34032949455010647  0.7990193117784261  0.7547340164585941  1.0000
  H   H19       1.0  0.22139404820385278  0.6573071796331625  0.6338878031828021  1.0000
  H   H20       1.0  0.04423999450477534  0.4035005949162847  0.5634777249908882  1.0000
  H   H21       1.0  0.3456115736602947  0.8488141438374206  0.14827125547433528  1.0000
  H   H22       1.0  0.4028506437963162  0.894372850938396  0.9775836535686788  1.0000
  Zn  Zn1       1.0  0.03555803321316174  0.592753139327661  0.40543125805075864  1.0000
  Zn  Zn2       1.0  0.247075377358548  0.5927490738106342  0.4054264309512769  1.0000
  C   C23       1.0  0.142452952990195  0.5847090644239552  0.6690381177766791  1.0000
  C   C24       1.0  0.1401827551661387  0.6007949677678595  0.1418197098080416  1.0000
  C   C25       1.0  0.1394446314630677  0.8562966217347079  0.39924069456527  1.0000
  C   C26       1.0  0.14319101699205805  0.32920567645917925  0.41161721284338976  1.0000
  O   O1        1.0  0.2206604563716445  0.6022482324907007  0.19558682517342654  1.0000
  O   O2        1.0  0.2225120277220258  0.5832516293179243  0.615266925098279  1.0000
  O   O3        1.0  0.22008169419439527  0.8025620034949879  0.39740359452912316  1.0000
  O   O4        1.0  0.2230907172014571  0.3829378695776174  0.4134500475128084  1.0000
  O   O5        1.0  0.05954262118972184  0.802564343563702  0.3974076414832804  1.0000
  O   O6        1.0  0.061972942238029294  0.5832557033875903  0.6152708922225506  1.0000
  O   O7        1.0  0.06012136410631163  0.6022522713931622  0.1955890571672108  1.0000
  O   O8        1.0  0.06255162545341109  0.38294189721912286  0.41345238773042015  1.0000
