data_image0
_chemical_formula_structural       NC12NC2H8C7OC3OC4H12C7OC3OC4H12Zn2C4O8
_chemical_formula_sum              "N2 C46 H32 O12 Zn2"
_cell_length_a       17.80743265337812
_cell_length_b       10.299371110280156
_cell_length_c       10.299374482448636
_cell_angle_alpha    85.56563777426874
_cell_angle_beta     91.51588487774274
_cell_angle_gamma    89.44795274300792

_space_group_name_H-M_alt    "P 1"
_space_group_IT_number       1

loop_
  _space_group_symop_operation_xyz
  'x, y, z'

loop_
  _atom_site_type_symbol
  _atom_site_label
  _atom_site_symmetry_multiplicity
  _atom_site_fract_x
  _atom_site_fract_y
  _atom_site_fract_z
  _atom_site_occupancy
  N   N1        1.0  0.7078536373188798  0.4069665427135346  0.6018019788243982  1.0000
  C   C1        1.0  0.6570497817261696  0.43653906430437356  0.5331126815915725  1.0000
  C   C2        1.0  0.593844768784876  0.47332513383850844  0.447671843191128  1.0000
  C   C3        1.0  0.605600799335241  0.5273711065412672  0.3210693323082525  1.0000
  C   C4        1.0  0.5443025211450305  0.5626531054402468  0.23802398348497558  1.0000
  C   C5        1.0  0.4710940598939378  0.544152727839645  0.2809213270087578  1.0000
  C   C6        1.0  0.4583611582859391  0.48998785906838394  0.4079919446916085  1.0000
  C   C7        1.0  0.5205167558945388  0.45470911734968594  0.4910207827623818  1.0000
  C   C8        1.0  0.3805838417909526  0.47037278393478044  0.4537492288785796  1.0000
  C   C9        1.0  0.361779511588  0.4975342465929002  0.5808045135185935  1.0000
  C   C10       1.0  0.28854110276603173  0.47907543450073725  0.6237424348642628  1.0000
  C   C11       1.0  0.23316387700517913  0.4332007221020937  0.5404629615812789  1.0000
  C   C12       1.0  0.15778854945317172  0.41418880659369894  0.584801634821059  1.0000
  N   N2        1.0  0.0971921238496407  0.39890450518002013  0.6204468778911589  1.0000
  C   C13       1.0  0.2512765985576653  0.40587023952667156  0.41395059420093455  1.0000
  C   C14       1.0  0.3244621982384688  0.4243438874026688  0.37075678796320943  1.0000
  H   H1        1.0  0.6620743200657827  0.5422016968373808  0.2866370784948027  1.0000
  H   H2        1.0  0.5535228713727952  0.6047695422709174  0.14025837850117973  1.0000
  H   H3        1.0  0.4244698314913397  0.5738012484851505  0.21534003880463204  1.0000
  H   H4        1.0  0.5119946340942927  0.41120739029135683  0.5886614605554579  1.0000
  H   H5        1.0  0.4034493803637181  0.5347008161395168  0.6463912813334407  1.0000
  H   H6        1.0  0.275083675702145  0.5009018579104357  0.7217600466864106  1.0000
  H   H7        1.0  0.20888994084905846  0.3699708765684506  0.34877722497535735  1.0000
  H   H8        1.0  0.3373909837418883  0.4009818505031894  0.2730419830050783  1.0000
  C   C15       1.0  0.902475848613314  0.021565137071526626  0.6110073501453115  1.0000
  C   C16       1.0  0.8938449031368462  0.03106516669297642  0.4746060345189554  1.0000
  C   C17       1.0  0.8886430648489485  0.9186873304687785  0.40593653837060617  1.0000
  C   C18       1.0  0.8938821356619945  0.7957964373763319  0.4749189101078038  1.0000
  C   C19       1.0  0.9025771076179223  0.7842958012568312  0.6112530566601693  1.0000
  C   C20       1.0  0.9066269543142901  0.8977825847811917  0.6785366543495748  1.0000
  C   C21       1.0  0.8803128794755749  0.928574482868474  0.2617875455755354  1.0000
  O   O1        1.0  0.9111201494232117  0.8429137939945642  0.1992385603427016  1.0000
  C   C22       1.0  0.8370250392459776  0.035557725271001095  0.18860220745852677  1.0000
  C   C23       1.0  0.8580470917540846  0.08031424298420142  0.0624636699007406  1.0000
  C   C24       1.0  0.8174251068648118  0.18018602757138977  0.9911360712187746  1.0000
  O   O2        1.0  0.8414334719508058  0.22152780375549352  0.8661852765829607  1.0000
  C   C25       1.0  0.8056383516428288  0.32177447524579383  0.7830343842725834  1.0000
  C   C26       1.0  0.7543947892508586  0.23533536812078035  0.046606970639513585  1.0000
  C   C27       1.0  0.7326017315414342  0.19030535671012763  0.17119149473731968  1.0000
  C   C28       1.0  0.7733571726323106  0.09071229748227562  0.24177329088165592  1.0000
  H   H9        1.0  0.919909801915074  0.21095335580180016  0.8682406396859591  1.0000
  H   H10       1.0  0.8919944358917726  0.1260511952579666  0.4214865766631404  1.0000
  H   H11       1.0  0.8904377188993351  0.7090206118301124  0.4220303951393307  1.0000
  H   H12       1.0  0.9132812643996072  0.8896549467918629  0.7836920974165911  1.0000
  H   H13       1.0  0.9065422339596934  0.452417567848959  0.6635309114547991  1.0000
  H   H14       1.0  0.9066287273394265  0.038423592798078506  0.019416369501568782  1.0000
  H   H15       1.0  0.8363013852838184  0.33425420862620897  0.6906299156359982  1.0000
  H   H16       1.0  0.8067365262235675  0.4151966572852057  0.8301070311494723  1.0000
  H   H17       1.0  0.7467674126476854  0.2947651334026895  0.7604505017638754  1.0000
  H   H18       1.0  0.7217723442645042  0.31252285373646327  0.994155180667114  1.0000
  H   H19       1.0  0.6837363896705431  0.23236359223081005  0.21300345074533492  1.0000
  H   H20       1.0  0.7545987989258532  0.05592833762283567  0.3372557010040742  1.0000
  C   C29       1.0  0.9025960801449087  0.40301651324864607  0.2297510190073591  1.0000
  C   C30       1.0  0.981068966293062  0.41605597931305627  0.23114222883653418  1.0000
  C   C31       1.0  0.020553815427596822  0.4241060813799428  0.11455205828048554  1.0000
  C   C32       1.0  0.9808893869515917  0.41599582673576657  0.9958947581235538  1.0000
  C   C33       1.0  0.9024568582372275  0.40284440211679295  0.9925093240267457  1.0000
  C   C34       1.0  0.8637428204364288  0.39677231345192077  0.109964512011169  1.0000
  C   C35       1.0  0.10350375182925942  0.4365145119251867  0.11598985843306588  1.0000
  O   O3        1.0  0.14035382297613008  0.3822091557444777  0.031890517483528225  1.0000
  C   C36       1.0  0.14464596259310603  0.5105443402062892  0.21275156690046318  1.0000
  C   C37       1.0  0.21793632662322815  0.4723086954608733  0.2544140246321063  1.0000
  C   C38       1.0  0.25807322361757823  0.541741989019199  0.34456164790390464  1.0000
  O   O4        1.0  0.33075274770311275  0.4983446110094967  0.38332217493540527  1.0000
  C   C39       1.0  0.37783032607974887  0.5592407767730703  0.4739885149306202  1.0000
  C   C40       1.0  0.22450453150735372  0.6518242447367639  0.39290328706843086  1.0000
  C   C41       1.0  0.1520914725806395  0.6913749426432776  0.3507727089139552  1.0000
  C   C42       1.0  0.11238814601239122  0.6216996608020064  0.26088680767877537  1.0000
  H   H21       1.0  0.7546362485200768  0.3764192452922577  0.43460707082999545  1.0000
  H   H22       1.0  0.011666722146395306  0.41851439307944144  0.32319976782875687  1.0000
  H   H23       1.0  0.011314208960515824  0.4212214292988918  0.9059599956097739  1.0000
  H   H24       1.0  0.8032459584268477  0.3867189863653542  0.10808827516224273  1.0000
  H   H25       1.0  0.872397279685282  0.3967072478203757  0.6638389003509308  1.0000
  H   H26       1.0  0.2439785329895583  0.3874569427536135  0.2177560165123138  1.0000
  H   H27       1.0  0.4319000151023631  0.5047636999513827  0.4865196721751193  1.0000
  H   H28       1.0  0.3507022512201517  0.5580015707214308  0.5699235268268525  1.0000
  H   H29       1.0  0.38939366443722134  0.661007568429274  0.4369129350835322  1.0000
  H   H30       1.0  0.25395133651086765  0.7076524887008933  0.4625222238550877  1.0000
  H   H31       1.0  0.12675488578088337  0.7767011361837727  0.3874935935787607  1.0000
  H   H32       1.0  0.05683912429556259  0.6555768460754478  0.2280128095030325  1.0000
  Zn  Zn1       1.0  0.8202083158693714  0.40463654384880793  0.6071899799600188  1.0000
  Zn  Zn2       1.0  0.9848374394655586  0.4012239081564466  0.6150694666792368  1.0000
  C   C43       1.0  0.902480818441752  0.3977032817053891  0.8483299614248122  1.0000
  C   C44       1.0  0.9025667348323492  0.4081587716308419  0.373929699255902  1.0000
  C   C45       1.0  0.9025550388523469  0.6401247088953759  0.6060311018594937  1.0000
  C   C46       1.0  0.9024924580255753  0.16573578528140653  0.6162286248703939  1.0000
  O   O5        1.0  0.9650327799581255  0.4085838172966016  0.4253076037564399  1.0000
  O   O6        1.0  0.9649644688050376  0.3946871448703869  0.8029320308535699  1.0000
  O   O7        1.0  0.9650235602738318  0.5904455303172604  0.6072739475746818  1.0000
  O   O8        1.0  0.964973632331569  0.21282544232645684  0.6209655869722972  1.0000
  O   O9        1.0  0.8400720668235225  0.5930350108447786  0.6012938569712447  1.0000
  O   O10       1.0  0.8400129755710682  0.3972781857233345  0.7969518715052457  1.0000
  O   O11       1.0  0.8400812870530944  0.4111748132446853  0.4193258829532358  1.0000
  O   O12       1.0  0.8400221394044612  0.21541642896379232  0.6149839635364103  1.0000
