data_image0
_chemical_formula_structural       NC12NC2H8C7OC4NC3H8C7OC2NC3H11Zn2C4O8
_chemical_formula_sum              "N4 C44 H27 O10 Zn2"
_cell_length_a       19.240039667572717
_cell_length_b       10.299371701877257
_cell_length_c       10.298749378158432
_cell_angle_alpha    85.57636868446646
_cell_angle_beta     90.00886307587598
_cell_angle_gamma    90.00851160782973

_space_group_name_H-M_alt    "P 1"
_space_group_IT_number       1

loop_
  _space_group_symop_operation_xyz
  'x, y, z'

loop_
  _atom_site_type_symbol
  _atom_site_label
  _atom_site_symmetry_multiplicity
  _atom_site_fract_x
  _atom_site_fract_y
  _atom_site_fract_z
  _atom_site_occupancy
  N   N1        1.0  0.6544715715393937  0.42139698194491376  0.567879604599806  1.0000
  C   C1        1.0  0.594323202722009  0.4213970659332118  0.567879522688445  1.0000
  C   C2        1.0  0.519505165578807  0.4213971832306439  0.5678793854175739  1.0000
  C   C3        1.0  0.48303488641711734  0.35692310138992034  0.6712751104972832  1.0000
  C   C4        1.0  0.41036413666178106  0.3568122125880554  0.6713616170694767  1.0000
  C   C5        1.0  0.37317293062998597  0.4213972758150011  0.5678791577526359  1.0000
  C   C6        1.0  0.4103574030163905  0.48598252601273234  0.4643968930651324  1.0000
  C   C7        1.0  0.48302808981618517  0.4858714017004779  0.4644835220569451  1.0000
  C   C8        1.0  0.29596784017619954  0.4213971971615118  0.5678790622986059  1.0000
  C   C9        1.0  0.25877448772843265  0.3081325691568273  0.609709252172216  1.0000
  C   C10       1.0  0.18610380028649717  0.3082394773231154  0.6096179606660128  1.0000
  C   C11       1.0  0.1496355532477699  0.4213970679831527  0.5678791231637534  1.0000
  C   C12       1.0  0.0748175161043593  0.421396954219201  0.5678793718011115  1.0000
  N   N2        1.0  0.014669199266271003  0.42139691337813934  0.5678795802220087  1.0000
  C   C13       1.0  0.18611481706730817  0.5345547344754555  0.5261402327958038  1.0000
  C   C14       1.0  0.2587855142282534  0.5346618227768208  0.5260487787514806  1.0000
  H   H1        1.0  0.5107524676925638  0.30700580830290214  0.7520037195457226  1.0000
  H   H2        1.0  0.3832737010761082  0.3076929138187028  0.7532061366125359  1.0000
  H   H3        1.0  0.38326130781187645  0.5351018518388464  0.3825523226799141  1.0000
  H   H4        1.0  0.5107402800186821  0.5357885945016324  0.38375518878799136  1.0000
  H   H5        1.0  0.28586325047076927  0.21897429644280808  0.6408447912919726  1.0000
  H   H6        1.0  0.1583846029432785  0.2199803011138741  0.6417869026506944  1.0000
  H   H7        1.0  0.1584041909619898  0.6228138861465463  0.4939713053532287  1.0000
  H   H8        1.0  0.28588323030571827  0.6238201746714489  0.4949131948872456  1.0000
  C   C15       1.0  0.8345373581682074  0.04002653478627848  0.5677525725089991  1.0000
  C   C16       1.0  0.8379028987959164  0.049378549366124506  0.43107905838614236  1.0000
  C   C17       1.0  0.8388111904657749  0.9369265391762052  0.36208232411434227  1.0000
  C   C18       1.0  0.8379115228346845  0.8141102077785931  0.4313964742775736  1.0000
  C   C19       1.0  0.8346100883089211  0.8027573711684576  0.5680178012772947  1.0000
  C   C20       1.0  0.8327592442963239  0.9163172033393312  0.6353895289456437  1.0000
  C   C21       1.0  0.8430949054744581  0.946657858823997  0.21782323778352014  1.0000
  O   O1        1.0  0.8765416443830764  0.8609155053971241  0.16287389820775158  1.0000
  C   C22       1.0  0.8094236796425964  0.053577807910809794  0.1359058921201366  1.0000
  C   C23       1.0  0.8391804341624073  0.0982318581645778  0.01592804892862732  1.0000
  C   C24       1.0  0.8073425136978928  0.19814149292447625  0.9371323035371644  1.0000
  C   C25       1.0  0.8384474360137141  0.24397977207798147  0.8149681730937375  1.0000
  N   N3        1.0  0.863454409647033  0.28082411762298737  0.7167659276700111  1.0000
  C   C26       1.0  0.745228858505818  0.25331666080143966  0.9773066888033699  1.0000
  C   C27       1.0  0.7148852445899356  0.2084521253626046  0.09554487254089651  1.0000
  C   C28       1.0  0.7465236080095535  0.10883996599319579  0.17432921963464354  1.0000
  H   H9        1.0  0.8406002693002714  0.14430658622289783  0.3781890976770806  1.0000
  H   H10       1.0  0.8391268883474461  0.7272769985891532  0.3783808695783899  1.0000
  H   H11       1.0  0.8301650386749597  0.9083035917676189  0.7407550666304294  1.0000
  H   H12       1.0  0.8339268164593291  0.47093571159790143  0.6205463847804678  1.0000
  H   H13       1.0  0.8873772355810112  0.056143273795679065  0.984349158889399  1.0000
  H   H14       1.0  0.720168642948606  0.33053779738337713  0.9170634040889265  1.0000
  H   H15       1.0  0.6665696710063679  0.25055698889108147  0.1259706836939951  1.0000
  H   H16       1.0  0.721421381344784  0.07412274511461  0.2644912438815557  1.0000
  C   C29       1.0  0.8345416697516251  0.42141996720516944  0.18648414234316446  1.0000
  C   C30       1.0  0.8725171305273289  0.538285033325256  0.17650509261709324  1.0000
  C   C31       1.0  0.8910225338213927  0.5981809892202464  0.05422059134338131  1.0000
  C   C32       1.0  0.8725198974168215  0.5383338948822702  0.9412610801873798  1.0000
  C   C33       1.0  0.8346057548120711  0.4213639347071032  0.9492862325971149  1.0000
  C   C34       1.0  0.8156975959433959  0.3638298144293084  0.07232027111174899  1.0000
  C   C35       1.0  0.9316878932834016  0.7209492701957458  0.04358314273565922  1.0000
  O   O2        1.0  0.9751178255404954  0.7392921135172432  0.9522426008366618  1.0000
  C   C36       1.0  0.9230858296913943  0.8229003587095646  0.1365082839172325  1.0000
  C   C37       1.0  0.8503010030056087  0.9429767282803765  0.27995459417319957  1.0000
  N   N4        1.0  0.7841316071682923  0.9648284279355073  0.3376343569835834  1.0000
  C   C38       1.0  0.9076592962207555  0.019228034933016485  0.30937877571800826  1.0000
  C   C39       1.0  0.9721314870327922  0.9986046134973984  0.25220799167881136  1.0000
  C   C40       1.0  0.9798565938862703  0.901413993231623  0.1658507227879531  1.0000
  H   H17       1.0  0.7637077635868941  0.19958883946613162  0.4127796978292704  1.0000
  H   H18       1.0  0.8883939421898592  0.5821309566691586  0.2640664880401416  1.0000
  H   H19       1.0  0.8871820565358376  0.5838559772452416  0.846870595336032  1.0000
  H   H20       1.0  0.7864286770632363  0.27374554369818527  0.07926052673779506  1.0000
  H   H21       1.0  0.7632186773783275  0.20011179714158264  0.757165375535227  1.0000
  H   H22       1.0  0.8132160100778452  0.7884670656161492  0.16915759799303756  1.0000
  H   H23       1.0  0.741028479053207  0.9085562353420945  0.3163867914477787  1.0000
  H   H24       1.0  0.7777704481433788  0.03734700515059241  0.40214729935880916  1.0000
  H   H25       1.0  0.9023259332530551  0.09484257896842949  0.376138136569812  1.0000
  H   H26       1.0  0.016239349767540823  0.05807180727811545  0.2748650174584786  1.0000
  H   H27       1.0  0.030347079921509312  0.8867692529223297  0.1228451596245832  1.0000
  Zn  Zn1       1.0  0.7584168356746247  0.4213934943922948  0.5678870854159834  1.0000
  Zn  Zn2       1.0  0.9107239537827929  0.421389806630482  0.567882695514851  1.0000
  C   C41       1.0  0.8345916125070295  0.41620084618032144  0.8050985072952626  1.0000
  C   C42       1.0  0.8345508403063414  0.4265840934188725  0.3306714016346435  1.0000
  C   C43       1.0  0.8345923265929434  0.6585854031935211  0.56279206330255  1.0000
  C   C44       1.0  0.8345500741056943  0.1841979760931114  0.5729779143307334  1.0000
  O   O3        1.0  0.8923536750548682  0.4283101561009077  0.3790602951049198  1.0000
  O   O4        1.0  0.8923863561309422  0.41447100487348376  0.7567059077733769  1.0000
  O   O5        1.0  0.8923861537094634  0.6101995999524479  0.5610417403830047  1.0000
  O   O6        1.0  0.892353825496947  0.23258157032061128  0.5747243651171487  1.0000
  O   O7        1.0  0.7767869119855259  0.6102017307048383  0.5610454158083525  1.0000
  O   O8        1.0  0.7767871145467933  0.4144746959411076  0.7567095144900143  1.0000
  O   O9        1.0  0.7767544333814006  0.4283138020270422  0.3790623402735776  1.0000
  O   O10       1.0  0.7767545838279347  0.23258520695075077  0.5747265076586174  1.0000
