data_image0
_chemical_formula_structural       NC12NC2H8C9H6C9H8Zn2C4O8
_chemical_formula_sum              "N2 C36 H22 Zn2 O8"
_cell_length_a       19.240039667572717
_cell_length_b       9.275152443626249
_cell_length_c       9.275155815604963
_cell_angle_alpha    85.85171904572837
_cell_angle_beta     90.35749810205114
_cell_angle_gamma    90.57354334366605

_space_group_name_H-M_alt    "P 1"
_space_group_IT_number       1

loop_
  _space_group_symop_operation_xyz
  'x, y, z'

loop_
  _atom_site_type_symbol
  _atom_site_label
  _atom_site_symmetry_multiplicity
  _atom_site_fract_x
  _atom_site_fract_y
  _atom_site_fract_z
  _atom_site_occupancy
  N   N1        1.0  0.6572313751449211  0.5650500324514303  0.4048502978315218  1.0000
  C   C1        1.0  0.5970830064995581  0.5650501249541151  0.4048502065841857  1.0000
  C   C2        1.0  0.522264969521083  0.5650502539221265  0.40485005376680827  1.0000
  C   C3        1.0  0.4857963973985774  0.4944307077708028  0.5198548366910325  1.0000
  C   C4        1.0  0.4131253490822124  0.49430836886872154  0.5199512967917863  1.0000
  C   C5        1.0  0.37593273430837365  0.565050354567793  0.4048498007488839  1.0000
  C   C6        1.0  0.4131157995802378  0.6357925498267494  0.28974851988435946  1.0000
  C   C7        1.0  0.48578618698250775  0.6356699505049515  0.28984511682268743  1.0000
  C   C8        1.0  0.2987276431251119  0.565050266280763  0.40484969516163294  1.0000
  C   C9        1.0  0.2610757185071474  0.43964157998644926  0.4517450634399424  1.0000
  C   C10       1.0  0.18840529285942606  0.4397594511448575  0.4516433106057074  1.0000
  C   C11       1.0  0.1523953557171197  0.565050123378966  0.40484976324626243  1.0000
  C   C12       1.0  0.0775773187952636  0.5650499994096574  0.4048500396255983  1.0000
  N   N2        1.0  0.017429002430111598  0.5650499560538254  0.40485027107077887  1.0000
  C   C13       1.0  0.18933292965802678  0.6903408793362626  0.3580561569042495  1.0000
  C   C14       1.0  0.2620038890255205  0.6904589490178163  0.35795422294938684  1.0000
  H   H1        1.0  0.5135175363499725  0.4397619876100789  0.6096457012299044  1.0000
  H   H2        1.0  0.3860463590452879  0.4405368038200268  0.6109770484891326  1.0000
  H   H3        1.0  0.3860082588016577  0.6895641444393201  0.19872271165604616  1.0000
  H   H4        1.0  0.5134948198912199  0.6903385619292504  0.2000545587242073  1.0000
  H   H5        1.0  0.2877975923667429  0.3409066183556002  0.4866712876068944  1.0000
  H   H6        1.0  0.1603273547141894  0.3420331513160446  0.48771244059829183  1.0000
  H   H7        1.0  0.1619810442734706  0.7880671520488188  0.3219870431519316  1.0000
  H   H8        1.0  0.2894684942551247  0.7891939981694274  0.32302794879734686  1.0000
  C   C15       1.0  0.8352877061982307  0.14143039255392043  0.40632164592580544  1.0000
  C   C16       1.0  0.8098414943920137  0.22311489259206563  0.2838824446729451  1.0000
  C   C17       1.0  0.7908489124502863  0.15659889555889062  0.1591508748617272  1.0000
  C   C18       1.0  0.7970027639089261  0.00721592733520082  0.15438885801982494  1.0000
  C   C19       1.0  0.8210866967141155  0.923834365347847  0.27579328960557037  1.0000
  C   C20       1.0  0.8393793347943833  0.9886586640438642  0.40339134966059476  1.0000
  C   C21       1.0  0.777778319433829  0.938953549422251  0.025221472834758844  1.0000
  C   C22       1.0  0.7616823091930804  0.8817663418695524  0.9170640397519247  1.0000
  C   C23       1.0  0.7421529750277119  0.8123677795521917  0.7858339633810485  1.0000
  H   H9        1.0  0.9360357258485688  0.22556168949428138  0.6941512291141747  1.0000
  H   H10       1.0  0.8061789035970205  0.33962847318365874  0.2834291041308876  1.0000
  H   H11       1.0  0.77198150982291  0.2220344608372662  0.06580978896704659  1.0000
  H   H12       1.0  0.8240007448393903  0.8074896956022533  0.2717728023534183  1.0000
  H   H13       1.0  0.9049913004371675  0.6950553984635572  0.6002571215270518  1.0000
  H   H14       1.0  0.771220055711706  0.8639125609259003  0.6925454950260499  1.0000
  C   C24       1.0  0.8360424484100809  0.5613981836635619  0.9816378927781444  1.0000
  C   C25       1.0  0.7820101514606432  0.631688980894334  0.049209662131223686  1.0000
  C   C26       1.0  0.7326795032784749  0.711567081614618  0.9676486312844785  1.0000
  C   C27       1.0  0.7364672390302017  0.7228270451089855  0.8170278888949749  1.0000
  C   C28       1.0  0.789097148075192  0.6517611865240887  0.7477504356691753  1.0000
  C   C29       1.0  0.8386245726584937  0.5686907945950228  0.8280750952895368  1.0000
  C   C30       1.0  0.6857479379121967  0.8060753773454767  0.733142583464987  1.0000
  C   C31       1.0  0.643279677713674  0.8757844869306135  0.6628734461373176  1.0000
  C   C32       1.0  0.5917520841434921  0.9603647049464963  0.5776022525720004  1.0000
  H   H15       1.0  0.9968040037315342  0.4450100339174192  0.0949982578112527  1.0000
  H   H16       1.0  0.77886827617136  0.6276901736420797  0.16601503125986716  1.0000
  H   H17       1.0  0.6919263175730994  0.7657872547492499  0.02227414023660112  1.0000
  H   H18       1.0  0.7904140905405028  0.6585445629205742  0.6305806782394492  1.0000
  H   H19       1.0  0.9458625655290989  0.4851509366119861  0.5547816238327408  1.0000
  H   H20       1.0  0.6058957054046734  0.9645094509798653  0.46158892694164694  1.0000
  H   H21       1.0  0.5397393547917401  0.9089952705914914  0.5928062115084671  1.0000
  H   H22       1.0  0.5905310521665466  0.07175391518805707  0.6137217238363077  1.0000
  Zn  Zn1       1.0  0.7611766456052432  0.5650462306793691  0.40485861360129793  1.0000
  Zn  Zn2       1.0  0.9134837297936069  0.5650420920626953  0.4048537579745948  1.0000
  C   C33       1.0  0.8381072020592757  0.5615655152491063  0.668100251069282  1.0000
  C   C34       1.0  0.8365548457500264  0.5685246288239514  0.14161225561235824  1.0000
  C   C35       1.0  0.8385848281912471  0.8284649777689066  0.39820219562511294  1.0000
  C   C36       1.0  0.8360771595105092  0.3016234338036199  0.4115103938891451  1.0000
  O   O1        1.0  0.8945265252789195  0.5709084649048399  0.19529929224507914  1.0000
  O   O2        1.0  0.8957330687620307  0.559177446216427  0.614409118021942  1.0000
  O   O3        1.0  0.896117983307318  0.774702150537933  0.39646452351427763  1.0000
  O   O4        1.0  0.8941415584817307  0.35538376997319054  0.41324377865858364  1.0000
  O   O5        1.0  0.7805187649421709  0.7747045527717913  0.39646859291138004  1.0000
  O   O6        1.0  0.7801338585294812  0.5591815809537337  0.6144131045804972  1.0000
  O   O7        1.0  0.7789273095639253  0.5709125344436092  0.19530154623572815  1.0000
  O   O8        1.0  0.7785423430436897  0.35538783012502084  0.4132461407374637  1.0000
