data_image0
_chemical_formula_structural       NC12NC2H8C7OC3NC3H11C7OC3NC3H11Zn2C4O8
_chemical_formula_sum              "N4 C44 H30 O10 Zn2"
_cell_length_a       17.80743265337812
_cell_length_b       10.298746005989749
_cell_length_c       10.298749378158433
_cell_angle_alpha    85.5599185525692
_cell_angle_beta     91.54305523849355
_cell_angle_gamma    89.44452832379845

_space_group_name_H-M_alt    "P 1"
_space_group_IT_number       1

loop_
  _space_group_symop_operation_xyz
  'x, y, z'

loop_
  _atom_site_type_symbol
  _atom_site_label
  _atom_site_symmetry_multiplicity
  _atom_site_fract_x
  _atom_site_fract_y
  _atom_site_fract_z
  _atom_site_occupancy
  N   N1        1.0  0.7074169975700595  0.4068707036657726  0.6013529353743978  1.0000
  C   C1        1.0  0.6565932215731061  0.43643530274027104  0.5326517764454113  1.0000
  C   C2        1.0  0.5933634300957595  0.4732115177895072  0.44719618318191157  1.0000
  C   C3        1.0  0.6050827627704797  0.5272428509951208  0.32057192833159315  1.0000
  C   C4        1.0  0.5437604190483192  0.5625152332784125  0.23751236022556335  1.0000
  C   C5        1.0  0.4705643995809165  0.5440198007929014  0.2804171197719476  1.0000
  C   C6        1.0  0.4578683284051622  0.4898696322257435  0.40750954094777275  1.0000
  C   C7        1.0  0.520047986906502  0.4546005049054081  0.4905525964432418  1.0000
  C   C8        1.0  0.3801042785863804  0.47025984154345335  0.4532747049659793  1.0000
  C   C9        1.0  0.3613336274726121  0.4974426119043891  0.5803308198273021  1.0000
  C   C10       1.0  0.28810766991766457  0.47898875440559957  0.623276148978857  1.0000
  C   C11       1.0  0.23270945521553674  0.4330977941776304  0.5400033705611269  1.0000
  C   C12       1.0  0.1573469832257498  0.4140909988833692  0.584349680614634  1.0000
  N   N2        1.0  0.09676089261099587  0.3988108137672395  0.6200010631651476  1.0000
  C   C13       1.0  0.25078865262433553  0.40574607177874644  0.4134902500238975  1.0000
  C   C14       1.0  0.3239617305186428  0.42421472780011094  0.3702890163758781  1.0000
  H   H1        1.0  0.6615462976368285  0.5420694704663055  0.286133726836449  1.0000
  H   H2        1.0  0.5529524155286814  0.6046203960746289  0.13972986581120564  1.0000
  H   H3        1.0  0.4239210973979652  0.573660872324228  0.21482414192162969  1.0000
  H   H4        1.0  0.5115542383129009  0.41110992051172773  0.5882105132003228  1.0000
  H   H5        1.0  0.40301998592811566  0.5346220617904269  0.6459120474396337  1.0000
  H   H6        1.0  0.2746761910371266  0.5008316866945943  0.7212941762712552  1.0000
  H   H7        1.0  0.20838556919906623  0.3698339936194037  0.34832211970659643  1.0000
  H   H8        1.0  0.3368647100349521  0.4008361027350267  0.2725742106213773  1.0000
  C   C15       1.0  0.9020566393195854  0.021439358333988016  0.6106582611260908  1.0000
  C   C16       1.0  0.9371893120450826  0.029229125346017064  0.48982738633159506  1.0000
  C   C17       1.0  0.9541640341630723  0.9160610535259118  0.42800255795438275  1.0000
  C   C18       1.0  0.9371898708539936  0.7939925176782642  0.4897782722548857  1.0000
  C   C19       1.0  0.902128431035681  0.7842320604186676  0.610707257754085  1.0000
  C   C20       1.0  0.8846034413514121  0.8985204303738056  0.6702167741292837  1.0000
  C   C21       1.0  0.9919024110744801  0.924082204872711  0.3009847430523489  1.0000
  O   O1        1.0  0.03777016871274964  0.8351569518264805  0.2779674583523968  1.0000
  C   C22       1.0  0.9776083042160865  0.03292464119976457  0.20008678097450308  1.0000
  C   C23       1.0  0.9064702665742156  0.09379044287656302  0.18457117023901273  1.0000
  C   C24       1.0  0.8932970444245092  0.19574266612787516  0.08802612008831479  1.0000
  N   N3        1.0  0.8209564777196233  0.25747547624071965  0.07335635776990612  1.0000
  C   C25       1.0  0.9513082070830626  0.23643581464030344  0.005663991080003374  1.0000
  C   C26       1.0  0.021760323560130027  0.1754196122810403  0.01929053624971  1.0000
  C   C27       1.0  0.0348750821723367  0.07389310028874996  0.11552855518206152  1.0000
  H   H9        1.0  0.8367150871061833  0.2139940648037311  0.8398818956014686  1.0000
  H   H10       1.0  0.9521249739601096  0.12344082432678193  0.4443174403645596  1.0000
  H   H11       1.0  0.9507347079883185  0.7065247618297038  0.44272551686164735  1.0000
  H   H12       1.0  0.8575261972624576  0.8917637729389486  0.7633575687774168  1.0000
  H   H13       1.0  0.8361625148197741  0.5584657584755327  0.8394124247683068  1.0000
  H   H14       1.0  0.8609806098536364  0.06132238118534873  0.24635985983290087  1.0000
  H   H15       1.0  0.777312056164415  0.22791935104336836  0.13422188874593033  1.0000
  H   H16       1.0  0.810527898245446  0.3333130161631692  0.001613075801521589  1.0000
  H   H17       1.0  0.9418337430672528  0.314990082910908  0.9307174182064544  1.0000
  H   H18       1.0  0.06632928576453434  0.20687133266643665  0.955125262267507  1.0000
  H   H19       1.0  0.08997439024191278  0.02810997238919599  0.1246956501851584  1.0000
  C   C28       1.0  0.9020578942466002  0.40286442294041996  0.22928005248596797  1.0000
  C   C29       1.0  0.9431051859015135  0.5188894682346985  0.22123336137214156  1.0000
  C   C30       1.0  0.9631074629283275  0.578376328063981  0.09988964629344733  1.0000
  C   C31       1.0  0.9431081762441308  0.5189382719443587  0.9859894780971061  1.0000
  C   C32       1.0  0.9021271654018858  0.4028069518067203  0.992085476711477  1.0000
  C   C33       1.0  0.8816895217895158  0.3456911361811943  0.11415719637461288  1.0000
  C   C34       1.0  0.007062260084423671  0.7002448898480353  0.09132211507772503  1.0000
  O   O2        1.0  0.05400626442958291  0.7176174662984836  0.0022247364248810767  1.0000
  C   C35       1.0  0.9977632297927408  0.8023969405191584  0.18377250558605224  1.0000
  C   C36       1.0  0.9274821090513928  0.8264277841622754  0.23711192450765142  1.0000
  C   C37       1.0  0.9190877742074312  0.924111940529983  0.32341596856939564  1.0000
  N   N4        1.0  0.8475639298005955  0.9474460715819861  0.37766370808889804  1.0000
  C   C38       1.0  0.9810866687642784  0.9990861352954412  0.3557877102326852  1.0000
  C   C39       1.0  0.050775963812176084  0.977018361487477  0.30196072755462633  1.0000
  C   C40       1.0  0.0591270338257246  0.8796467979729098  0.21603143453123064  1.0000
  H   H20       1.0  0.825494275499539  0.18259982786114978  0.4519723768622139  1.0000
  H   H21       1.0  0.9602663158904873  0.5623837779370291  0.30960408474870016  1.0000
  H   H22       1.0  0.9589563522341757  0.5641360593038605  0.8923449527902174  1.0000
  H   H23       1.0  0.8500530433665227  0.25625429568996694  0.11960812419320567  1.0000
  H   H24       1.0  0.8249656090519317  0.18313377288783705  0.7963325827737471  1.0000
  H   H25       1.0  0.8790033408524675  0.7704192417794454  0.21074357253719844  1.0000
  H   H26       1.0  0.8009735124077125  0.8921336778582681  0.3542008382080848  1.0000
  H   H27       1.0  0.8406873949876257  0.020113019699979695  0.44182640480353325  1.0000
  H   H28       1.0  0.9753210689173263  0.07482630971646742  0.4222491435231521  1.0000
  H   H29       1.0  0.09845238777836673  0.03550354014522351  0.3268841532786686  1.0000
  H   H30       1.0  0.11370320794058197  0.8638710587971643  0.1756440877777532  1.0000
  Zn  Zn1       1.0  0.8197732390802798  0.40454132540553683  0.6067418696062025  1.0000
  Zn  Zn2       1.0  0.9844046485719471  0.40112959686997063  0.6146227222424994  1.0000
  C   C41       1.0  0.9021119248409741  0.39764375020497483  0.8478985083751502  1.0000
  C   C42       1.0  0.902067760746963  0.40802877356383416  0.37346629711525914  1.0000
  C   C43       1.0  0.9021105324085569  0.6400484555569586  0.6055221926712133  1.0000
  C   C44       1.0  0.902069096861592  0.1656225089356094  0.6158426792745166  1.0000
  O   O3        1.0  0.9645478334195356  0.4084615773880785  0.4248472601104572  1.0000
  O   O4        1.0  0.9645832825348724  0.39462054358663573  0.8024985562382618  1.0000
  O   O5        1.0  0.9645813160341291  0.5903654261361879  0.6067779262242341  1.0000
  O   O6        1.0  0.964549743734759  0.21271670530106415  0.6205677900525827  1.0000
  O   O7        1.0  0.839628087736847  0.5929542181401133  0.600796799099939  1.0000
  O   O8        1.0  0.8396300543747576  0.3972108960324723  0.7965173599624664  1.0000
  O   O9        1.0  0.8395946051632782  0.41105188469066833  0.4188645022950779  1.0000
  O   O10       1.0  0.8395965154834005  0.2153070033067868  0.6145851296129254  1.0000
