data_image0
_chemical_formula_structural       NC12NC2H8C7F3H5C9NC2H9Zn2C4O8
_chemical_formula_sum              "N3 C36 H22 F3 Zn2 O8"
_cell_length_a       17.80743265337812
_cell_length_b       10.29932413504667
_cell_length_c       9.273598843048156
_cell_angle_alpha    85.12248062777354
_cell_angle_beta     91.13569736745053
_cell_angle_gamma    89.41593348368521

_space_group_name_H-M_alt    "P 1"
_space_group_IT_number       1

loop_
  _space_group_symop_operation_xyz
  'x, y, z'

loop_
  _atom_site_type_symbol
  _atom_site_label
  _atom_site_symmetry_multiplicity
  _atom_site_fract_x
  _atom_site_fract_y
  _atom_site_fract_z
  _atom_site_occupancy
  N   N1        1.0  0.7126908039839569  0.41746649312278256  0.4460959112389484  1.0000
  C   C1        1.0  0.6621374698621036  0.4475537158646057  0.3697667707404291  1.0000
  C   C2        1.0  0.599244073578805  0.48498000887939896  0.27482292872444836  1.0000
  C   C3        1.0  0.6114619946550459  0.5399746236328038  0.13413939257018703  1.0000
  C   C4        1.0  0.5504667504054257  0.5758788826729249  0.041857588078198824  1.0000
  C   C5        1.0  0.47710184570941927  0.5570570667157317  0.08952611901150154  1.0000
  C   C6        1.0  0.4639053193854025  0.5019400506474685  0.23072980638479687  1.0000
  C   C7        1.0  0.5257579445257405  0.4660391723955934  0.32299326467374834  1.0000
  C   C8        1.0  0.3859610907728057  0.48198211044332256  0.2815763416292585  1.0000
  C   C9        1.0  0.36666669510690364  0.5081938644391537  0.4227433918479173  1.0000
  C   C10       1.0  0.29327167561018513  0.4894133116205013  0.47045699957020654  1.0000
  C   C11       1.0  0.2382248140764428  0.4441602917358516  0.3779346142731981  1.0000
  C   C12       1.0  0.16268775079339004  0.4248161408448077  0.4272047579540921  1.0000
  N   N2        1.0  0.1019613007980013  0.4092647450382951  0.4668145640125427  1.0000
  C   C13       1.0  0.2568255998929823  0.4177754514962919  0.2373708507096983  1.0000
  C   C14       1.0  0.3301687745654135  0.43657275476582696  0.18937292073463194  1.0000
  H   H1        1.0  0.6680610934771705  0.5550632211347448  0.09587747179993245  1.0000
  H   H2        1.0  0.5600436599000548  0.6187278953502371  0.9332181736911157  1.0000
  H   H3        1.0  0.4307163425903075  0.5871970400542221  0.016650329439158007  1.0000
  H   H4        1.0  0.5168801879875085  0.4218057644702451  0.43149420389730064  1.0000
  H   H5        1.0  0.4080760472697366  0.5448708495665142  0.4956091669376561  1.0000
  H   H6        1.0  0.2794359001087584  0.510507101142665  0.5793610129000564  1.0000
  H   H7        1.0  0.2146974801733675  0.38236261658469983  0.16496410542060258  1.0000
  H   H8        1.0  0.3434752619948294  0.4139410426125989  0.08080573209253084  1.0000
  C   C15       1.0  0.9074037269870447  0.03198521025241897  0.4564170631384907  1.0000
  C   C16       1.0  0.9825338364271126  0.032810026981633836  0.41278809085254037  1.0000
  C   C17       1.0  0.019987180245397033  0.9163030671822728  0.3882359584904225  1.0000
  C   C18       1.0  0.9823393129701541  0.7975562843754005  0.4129042886884691  1.0000
  C   C19       1.0  0.9072555384001596  0.7947357777201405  0.4565062283069432  1.0000
  C   C20       1.0  0.8701338547955753  0.9125404469996412  0.4774559145333406  1.0000
  C   C21       1.0  0.10146779016074858  0.9178408581636165  0.3464653382634476  1.0000
  F   F1        1.0  0.11798680232024861  0.032558927862319065  0.2650929288434687  1.0000
  F   F2        1.0  0.14623515960311972  0.9074250268564349  0.4704866003400156  1.0000
  F   F3        1.0  0.11778024582878953  0.8149190730818894  0.26507295673119247  1.0000
  H   H9        1.0  0.7660338832809505  0.2374681600751663  0.5412491122828937  1.0000
  H   H10       1.0  0.012078959809920242  0.12424337107359085  0.3980964795008179  1.0000
  H   H11       1.0  0.011750820619580441  0.7072012250223528  0.398296318105753  1.0000
  H   H12       1.0  0.8122269552559225  0.9111002960717504  0.5110796554659232  1.0000
  H   H13       1.0  0.8787815045332386  0.46600267715693827  0.4757205909551958  1.0000
  C   C22       1.0  0.908843657736875  0.41629961782662916  0.032703810172074466  1.0000
  C   C23       1.0  0.858623640646615  0.4993669113692087  0.09644306521105261  1.0000
  C   C24       1.0  0.8047010117538098  0.5722999097167156  0.012816209934824345  1.0000
  C   C25       1.0  0.7995268859686945  0.5642399150606614  0.8628193787829832  1.0000
  C   C26       1.0  0.8503138002606407  0.48310929722212426  0.7977011471134325  1.0000
  C   C27       1.0  0.9058155655015988  0.4104214106831768  0.8802194629244621  1.0000
  C   C28       1.0  0.7416941109089545  0.6413987589522914  0.7741523419036177  1.0000
  C   C29       1.0  0.7593538896940831  0.7038145393852606  0.6385398056561078  1.0000
  C   C30       1.0  0.7040700202233543  0.7759206029881635  0.5570904686172309  1.0000
  N   N3        1.0  0.6335215845964507  0.7856590039881772  0.6086597356896952  1.0000
  C   C31       1.0  0.6146504630502243  0.7265252302589748  0.7392990547416286  1.0000
  C   C32       1.0  0.6682046621489917  0.6535487277836955  0.8243621895003717  1.0000
  H   H14       1.0  0.02094121323273424  0.32230083643308616  0.32697522871961965  1.0000
  H   H15       1.0  0.8599540539850243  0.5059433039834931  0.21243684406278374  1.0000
  H   H16       1.0  0.7670956188844056  0.6355955351412528  0.06572393859937108  1.0000
  H   H17       1.0  0.8470997078960405  0.47731620657688323  0.6816178710851641  1.0000
  H   H18       1.0  0.07463355409278916  0.27788837062301885  0.7960964247446811  1.0000
  H   H19       1.0  0.8155437434121365  0.6984475637682024  0.5967596038884534  1.0000
  H   H20       1.0  0.7173630237551609  0.8245050547216062  0.45283730611896317  1.0000
  H   H21       1.0  0.5579309048190281  0.7358914774977311  0.7771272041278848  1.0000
  H   H22       1.0  0.6520575291294165  0.6057501715961662  0.9274306923409273  1.0000
  Zn  Zn1       1.0  0.8250258349482683  0.41509612070986757  0.45208318557685667  1.0000
  Zn  Zn2       1.0  0.9896262273438007  0.4116244420382231  0.4608390588983886  1.0000
  C   C33       1.0  0.9063872913295403  0.4063587221807835  0.7200201770250874  1.0000
  C   C34       1.0  0.9082665675692613  0.42036344034282486  0.19290230488984927  1.0000
  C   C35       1.0  0.9073002172565122  0.6505996843414104  0.45073877901543635  1.0000
  C   C36       1.0  0.9073535855039792  0.1761209184840893  0.4621837766637912  1.0000
  O   O1        1.0  0.9705378830300618  0.4204041464291403  0.24998919078002269  1.0000
  O   O2        1.0  0.9690438667776555  0.4036821154412491  0.6695783808755149  1.0000
  O   O3        1.0  0.9697802185902497  0.600909788587815  0.4521317021363204  1.0000
  O   O4        1.0  0.9698014754352757  0.22317648450816163  0.4674357583347144  1.0000
  O   O5        1.0  0.8448505306867846  0.6035440794261089  0.44548648314499095  1.0000
  O   O6        1.0  0.8441141788424926  0.40631796716383156  0.6629330851243544  1.0000
  O   O7        1.0  0.8456082013523986  0.42303996492662604  0.24334216007681642  1.0000
  O   O8        1.0  0.8448717933697959  0.22581229296624072  0.46078883582047186  1.0000
