data_image0
_chemical_formula_structural       NC6NCNCH5C7NH5C6NCOH5Zn2C4O8
_chemical_formula_sum              "N5 C26 H15 O9 Zn2"
_cell_length_a       14.933214217465613
_cell_length_b       9.275154477615127
_cell_length_c       9.27373355559583
_cell_angle_alpha    86.40037001266045
_cell_angle_beta     89.97675588165802
_cell_angle_gamma    89.46799387830556

_space_group_name_H-M_alt    "P 1"
_space_group_IT_number       1

loop_
  _space_group_symop_operation_xyz
  'x, y, z'

loop_
  _atom_site_type_symbol
  _atom_site_label
  _atom_site_symmetry_multiplicity
  _atom_site_fract_x
  _atom_site_fract_y
  _atom_site_fract_z
  _atom_site_occupancy
  N   N1        1.0  0.8334554277915587  0.5617481934801645  0.41559332420511375  1.0000
  C   C1        1.0  0.7559589950875135  0.5627340917761623  0.4146068962078423  1.0000
  C   C2        1.0  0.65955285857941  0.5639632537067143  0.41337694188551866  1.0000
  C   C3        1.0  0.612321550878673  0.46923659429848574  0.5081739839545796  1.0000
  C   C4        1.0  0.5187814195682978  0.47030774899279937  0.5071020632230339  1.0000
  C   C5        1.0  0.47157058180576356  0.5660512895338448  0.41128742150168957  1.0000
  C   C6        1.0  0.3750081142400274  0.563965387823647  0.4133748798630277  1.0000
  N   N2        1.0  0.2975333673768347  0.5622252809571573  0.4151159081662213  1.0000
  C   C7        1.0  0.5188931663908215  0.6619740897194533  0.3152934792967317  1.0000
  N   N3        1.0  0.472958427823359  0.7614884113904901  0.21570549200745173  1.0000
  C   C8        1.0  0.6129196392534757  0.6599472593482536  0.31732193313901624  1.0000
  H   H1        1.0  0.6477867454703792  0.39455099348495826  0.5829150333826218  1.0000
  H   H2        1.0  0.4831616747275923  0.3962504137163109  0.5812142512058709  1.0000
  H   H3        1.0  0.5088739390883199  0.8317749858234846  0.14536665292149986  1.0000
  H   H4        1.0  0.403183799807764  0.7667834226283731  0.21040661869056843  1.0000
  H   H5        1.0  0.6496684858247356  0.7332594542391662  0.24395527319121801  1.0000
  C   C9        1.0  0.06808988055218412  0.13858218996198501  0.4136841370923612  1.0000
  C   C10       1.0  0.04350315433899879  0.22037206069852555  0.2866319215789441  1.0000
  C   C11       1.0  0.01163307897970567  0.15300918467174895  0.16631868315927512  1.0000
  C   C12       1.0  0.0038250058181021926  0.0029376709539596937  0.17164086465540596  1.0000
  C   C13       1.0  0.029241523715987344  0.9199098882553312  0.29579559602381966  1.0000
  C   C14       1.0  0.06290754758487549  0.9853803165961152  0.4170375848068877  1.0000
  C   C15       1.0  0.9858549184837241  0.23836320394303567  0.03773607789188095  1.0000
  N   N4        1.0  0.9651364277074945  0.30697229032794837  0.9343885988321144  1.0000
  H   H6        1.0  0.08547242214768169  0.21906830383795306  0.7674480848341723  1.0000
  H   H7        1.0  0.04715997053026458  0.3372893202920253  0.28235170310953733  1.0000
  H   H8        1.0  0.9788537051610336  0.9497926809092103  0.07917307547974661  1.0000
  H   H9        1.0  0.02453930153870743  0.8034360971088388  0.29567359254415426  1.0000
  H   H10       1.0  0.07841163372754867  0.6891702326232219  0.6540655246517639  1.0000
  C   C16       1.0  0.06547527241808099  0.5574384810466849  0.9921158972634045  1.0000
  C   C17       1.0  0.9832225272862981  0.5490782915597812  0.06611925479877567  1.0000
  C   C18       1.0  0.9017126408074816  0.5524035327432458  0.9912670992498094  1.0000
  C   C19       1.0  0.9024029478481971  0.5687756799441581  0.8399833831958499  1.0000
  C   C20       1.0  0.9833223772902019  0.5749829771093893  0.7647688981038288  1.0000
  C   C21       1.0  0.06552214769473408  0.5665239818579572  0.8386058033652577  1.0000
  N   N5        1.0  0.819174796610263  0.5472616556819665  0.07134649903261447  1.0000
  C   C22       1.0  0.7389041551184066  0.4807835723866443  0.02438413960040897  1.0000
  O   O1        1.0  0.7389002417713806  0.40448012520502197  0.9167316257010674  1.0000
  H   H11       1.0  0.2758798998692251  0.6577722025032517  0.08860873822207993  1.0000
  H   H12       1.0  0.8405000713814175  0.5783119237286167  0.7794704069039362  1.0000
  H   H13       1.0  0.20797662543363737  0.6280070606052941  0.5535955298059921  1.0000
  H   H14       1.0  0.8186194786438097  0.5855983755244278  0.17491764540443766  1.0000
  H   H15       1.0  0.6776250574257212  0.4928126497524654  0.08491582851899082  1.0000
  Zn  Zn1       1.0  0.9673783212648976  0.5618820912604205  0.4154638687469636  1.0000
  Zn  Zn2       1.0  0.16361053228576927  0.5620796817789386  0.4152571527274614  1.0000
  C   C23       1.0  0.06554644328613501  0.5590627036806988  0.6785783224502246  1.0000
  C   C24       1.0  0.0654445419884433  0.5649008922680605  0.15214284543405324  1.0000
  C   C25       1.0  0.0638821876408966  0.8252557758096322  0.4106602520819871  1.0000
  C   C26       1.0  0.06710874127904098  0.2987060886124302  0.4200609858541571  1.0000
  O   O2        1.0  0.13990336848094634  0.567474039978741  0.20577087854229692  1.0000
  O   O3        1.0  0.1400233310879142  0.5566384304379008  0.6247929774628052  1.0000
  O   O4        1.0  0.1386784198108877  0.7715927177274142  0.40844724707014657  1.0000
  O   O5        1.0  0.14124821272810484  0.352519761776123  0.42211650097949316  1.0000
  O   O6        1.0  0.9897405738581296  0.7714420111972964  0.40860452055789886  1.0000
  O   O7        1.0  0.9910854745253638  0.5564894553685391  0.624950180961658  1.0000
  O   O8        1.0  0.9909655121894787  0.5673249960662502  0.20592634899259066  1.0000
  O   O9        1.0  0.992310356502072  0.3523707087107968  0.42227207944821643  1.0000
