data_image0
_chemical_formula_structural       NC8NC6H8C12ClH7C13F3H9Zn2C4O8
_chemical_formula_sum              "N2 C43 H24 Cl1 F3 Zn2 O8"
_cell_length_a       17.457602349358154
_cell_length_b       10.299768534541528
_cell_length_c       10.2985328690268
_cell_angle_alpha    85.58012551441328
_cell_angle_beta     92.88104695485512
_cell_angle_gamma    91.7063886151948

_space_group_name_H-M_alt    "P 1"
_space_group_IT_number       1

loop_
  _space_group_symop_operation_xyz
  'x, y, z'

loop_
  _atom_site_type_symbol
  _atom_site_label
  _atom_site_symmetry_multiplicity
  _atom_site_fract_x
  _atom_site_fract_y
  _atom_site_fract_z
  _atom_site_occupancy
  N   N1        1.0  0.7226210929470093  0.4523826242036495  0.6264470354940133  1.0000
  C   C1        1.0  0.6615338320689462  0.406454328205356  0.6158288117519866  1.0000
  C   C2        1.0  0.5855386981402024  0.3493252453787099  0.602629284351061  1.0000
  C   C3        1.0  0.5270220260382377  0.38951079880394857  0.6775344421109972  1.0000
  C   C4        1.0  0.4524654123266405  0.3345001606906795  0.664949478122103  1.0000
  C   C5        1.0  0.39035852551927647  0.3769302629428899  0.7442768765068096  1.0000
  C   C6        1.0  0.315812136804536  0.39538068486743105  0.6885095289165508  1.0000
  C   C7        1.0  0.2572954332152562  0.4353823486576311  0.7635226424869652  1.0000
  C   C8        1.0  0.18131087584158914  0.4544379101931624  0.7055396768794928  1.0000
  N   N2        1.0  0.1202322070188145  0.4697522020633178  0.6589215233628116  1.0000
  C   C9        1.0  0.27283303121296926  0.4571768931045526  0.8948116709694282  1.0000
  C   C10       1.0  0.34659481216162  0.43911557924347955  0.9509666618614081  1.0000
  C   C11       1.0  0.4050999714962248  0.3992941150496012  0.8764113129694235  1.0000
  C   C12       1.0  0.4377139050556878  0.23862609570564253  0.5760262968456556  1.0000
  C   C13       1.0  0.4962189350456803  0.1987193483892149  0.5015211846432939  1.0000
  C   C14       1.0  0.5699908362634248  0.25384253737836593  0.514656146817305  1.0000
  H   H1        1.0  0.5393841906311659  0.4647259419542331  0.744173219072449  1.0000
  H   H2        1.0  0.3034583878689129  0.38037785346494585  0.5864762826470117  1.0000
  H   H3        1.0  0.2279813254367321  0.48807828331506625  0.9536533583891693  1.0000
  H   H4        1.0  0.3584351239881091  0.45567594081732277  0.05262667322184433  1.0000
  H   H5        1.0  0.4615854112290017  0.3843171675250288  0.9225209485831072  1.0000
  H   H6        1.0  0.381220031986505  0.19328745221244345  0.5653719743984107  1.0000
  H   H7        1.0  0.4843707226827345  0.12462027549484157  0.43368402973079156  1.0000
  H   H8        1.0  0.6148424505405133  0.2220716188440488  0.4563255944700251  1.0000
  C   C15       1.0  0.9213579552956438  0.0796990017426218  0.6426765472257491  1.0000
  C   C16       1.0  0.9264031452440014  0.0894426600605105  0.5066097798634372  1.0000
  C   C17       1.0  0.9290333411528389  0.9772437064069652  0.43767708021311374  1.0000
  C   C18       1.0  0.9265496778524082  0.8541613486673751  0.5066372388448155  1.0000
  C   C19       1.0  0.92150268303533  0.8424260824474127  0.6427037967421025  1.0000
  C   C20       1.0  0.9189356502148649  0.9557530449246436  0.7099615234520386  1.0000
  C   C21       1.0  0.934371751631068  0.9886053970076181  0.2937298667395698  1.0000
  C   C22       1.0  0.8907204968570003  0.08021542482988653  0.21569548876378208  1.0000
  C   C23       1.0  0.895813519637333  0.09071656562222152  0.08022184914669461  1.0000
  C   C24       1.0  0.9444836101583386  0.010126046414474564  0.021084547774842918  1.0000
  C   C25       1.0  0.9881222052307688  0.9188272400410666  0.09760656161416303  1.0000
  C   C26       1.0  0.9831654293789075  0.9079398044755169  0.23310597338637873  1.0000
  Cl  Cl1       1.0  0.9507880785812074  0.023543596271282226  0.8511020912446406  1.0000
  H   H9        1.0  0.9293580461824914  0.18456771439230768  0.4541147027131309  1.0000
  H   H10       1.0  0.9275023689899325  0.7673527150476741  0.4537650624713387  1.0000
  H   H11       1.0  0.9150427414111404  0.9474680384008928  0.8149307074734363  1.0000
  H   H12       1.0  0.8519317983833116  0.14251140594528744  0.25927431950029134  1.0000
  H   H13       1.0  0.8617463782150074  0.16132482024677164  0.02132361934685156  1.0000
  H   H14       1.0  0.026055183264146693  0.8564467365194806  0.05226824022893006  1.0000
  H   H15       1.0  0.018206044454508456  0.8376669201909954  0.2905892970786225  1.0000
  C   C27       1.0  0.9214082412939859  0.4609396549604352  0.2612909066262745  1.0000
  C   C28       1.0  0.9983316676844964  0.4234090695837811  0.2697858315352455  1.0000
  C   C29       1.0  0.03730936658273933  0.40451070714948495  0.15691942247718305  1.0000
  C   C30       1.0  0.9983770094069034  0.42366666461784974  0.03448886343985946  1.0000
  C   C31       1.0  0.9214523852905803  0.4611854929526336  0.024089491246357397  1.0000
  C   C32       1.0  0.8834592539033896  0.4795772205196649  0.13802800000936077  1.0000
  C   C33       1.0  0.11863574858541594  0.364844114263432  0.16683501953835322  1.0000
  C   C34       1.0  0.1716216367257355  0.421758715390788  0.07962203362802799  1.0000
  C   C35       1.0  0.24816068462191512  0.38452925408954064  0.0889754296429701  1.0000
  C   C36       1.0  0.2731063735631165  0.28822386938086053  0.18448237449769422  1.0000
  C   C37       1.0  0.2205649348987893  0.2331477113335585  0.2733090242030274  1.0000
  C   C38       1.0  0.1440308874510394  0.27041044572769857  0.264066958246054  1.0000
  C   C39       1.0  0.35628069058570344  0.2515711647057677  0.19755826295920695  1.0000
  F   F1        1.0  0.39564159013084094  0.3326044286147165  0.2802593162976341  1.0000
  F   F2        1.0  0.3889564820150882  0.2641716577285558  0.07737004290517846  1.0000
  F   F3        1.0  0.36336153125560144  0.12376062669123011  0.24802007423366512  1.0000
  H   H16       1.0  0.7761979614142742  0.532683416664911  0.452512559096387  1.0000
  H   H17       1.0  0.028373923390429  0.41056205342952984  0.3643182196817782  1.0000
  H   H18       1.0  0.02783850683243695  0.4075723306765162  0.9472640708803453  1.0000
  H   H19       1.0  0.8241725968170779  0.5084975246666552  0.13074764863514865  1.0000
  H   H20       1.0  0.7759520176556123  0.5313330621840571  0.7971581732655338  1.0000
  H   H21       1.0  0.15415286667505299  0.496759112495555  0.005467539806963237  1.0000
  H   H22       1.0  0.2879451424700617  0.4314930761659494  0.02174041943181871  1.0000
  H   H23       1.0  0.23864762776571768  0.161065640601324  0.34995659630710474  1.0000
  H   H24       1.0  0.1045229438243851  0.22441272052543737  0.3323442488591166  1.0000
  Zn  Zn1       1.0  0.8373630714008293  0.45739162888786183  0.6358259701464903  1.0000
  Zn  Zn2       1.0  0.005490212910174373  0.46473255299598004  0.649553221703556  1.0000
  C   C40       1.0  0.9214413498904294  0.4559652592517929  0.8799038927463856  1.0000
  C   C41       1.0  0.9214137706820211  0.46616064145382213  0.4054755765400623  1.0000
  C   C42       1.0  0.9214710714100608  0.6982526232448589  0.6375227761022724  1.0000
  C   C43       1.0  0.9213839915003034  0.22387171467702527  0.6478567576883323  1.0000
  O   O1        1.0  0.9852189993209745  0.47069302892073833  0.45907468912933846  1.0000
  O   O2        1.0  0.9852407312522928  0.45700348348345887  0.8367230725510744  1.0000
  O   O3        1.0  0.9852638717334363  0.6526535569305023  0.640998535796167  1.0000
  O   O4        1.0  0.9851958014655531  0.27504296222756586  0.6547991238179744  1.0000
  O   O5        1.0  0.8576574254719084  0.6470812171525904  0.6305800633408029  1.0000
  O   O6        1.0  0.8576342852793089  0.4514327039855919  0.8263045309002853  1.0000
  O   O7        1.0  0.8576125533000558  0.46512220366596346  0.4486545859560562  1.0000
  O   O8        1.0  0.85758935544537  0.26947212771523454  0.6443791180196956  1.0000
