data_image0
_chemical_formula_structural       NC12NC2H8C6NO2H5C6OCH8Zn2C4O8
_chemical_formula_sum              "N3 C31 H21 O11 Zn2"
_cell_length_a       17.80743265337812
_cell_length_b       10.299485455225872
_cell_length_c       10.300312196595936
_cell_angle_alpha    85.55844871649364
_cell_angle_beta     91.53959400843588
_cell_angle_gamma    89.43492946244332

_space_group_name_H-M_alt    "P 1"
_space_group_IT_number       1

loop_
  _space_group_symop_operation_xyz
  'x, y, z'

loop_
  _atom_site_type_symbol
  _atom_site_label
  _atom_site_symmetry_multiplicity
  _atom_site_fract_x
  _atom_site_fract_y
  _atom_site_fract_z
  _atom_site_occupancy
  N   N1        1.0  0.7073284204431983  0.4067276630304597  0.6014777122782791  1.0000
  C   C1        1.0  0.6565041669414114  0.43628780538185263  0.5327853164184804  1.0000
  C   C2        1.0  0.5932737813538231  0.4730584767261994  0.4473406232049537  1.0000
  C   C3        1.0  0.6049922789609413  0.5270816255411321  0.320732550335987  1.0000
  C   C4        1.0  0.5436694040911684  0.5623486502714602  0.23768360815085932  1.0000
  C   C5        1.0  0.47047368596240463  0.5438560031437399  0.28058289717656804  1.0000
  C   C6        1.0  0.45777844501345744  0.48971404396811336  0.4076590711500298  1.0000
  C   C7        1.0  0.5199586349248834  0.45445027337979255  0.4906915030873793  1.0000
  C   C8        1.0  0.3800147049945381  0.4701072166259772  0.45341839202710643  1.0000
  C   C9        1.0  0.36123691802829844  0.49729290991781894  0.5804528472172528  1.0000
  C   C10       1.0  0.28801125631105257  0.47884183657253904  0.6233926967407124  1.0000
  C   C11       1.0  0.23262046871124087  0.43295078502264106  0.5401359843944795  1.0000
  C   C12       1.0  0.1572582974030327  0.4139468615189847  0.5844766327921096  1.0000
  N   N2        1.0  0.09667244851844771  0.39866898512684074  0.6201234637627306  1.0000
  C   C13       1.0  0.25070679940680113  0.4055961707120501  0.41364444995631877  1.0000
  C   C14       1.0  0.32387958902291164  0.42406203217352423  0.3704487349282386  1.0000
  H   H1        1.0  0.6614555738180516  0.5419060105369005  0.286298741111392  1.0000
  H   H2        1.0  0.5528607184095355  0.6044474681277046  0.13991358451064606  1.0000
  H   H3        1.0  0.423829789359304  0.5734927276973678  0.2149981917377222  1.0000
  H   H4        1.0  0.5114657085946629  0.41096611935476063  0.5883370608243323  1.0000
  H   H5        1.0  0.4029173255935138  0.5344723642630846  0.646021352884026  1.0000
  H   H6        1.0  0.27457418695869856  0.500686967063613  0.7213939564459153  1.0000
  H   H7        1.0  0.2083095281771877  0.3696840209843298  0.34848889262181926  1.0000
  H   H8        1.0  0.3367882987722054  0.40068131988878397  0.27275075169428864  1.0000
  C   C15       1.0  0.902005491369856  0.021321706965961033  0.610807260547263  1.0000
  C   C16       1.0  0.9772215376861695  0.015576600400189818  0.6557182140922615  1.0000
  C   C17       1.0  0.015362779078905264  0.8955904791943179  0.6784919326612802  1.0000
  C   C18       1.0  0.9772142998656488  0.7803072749158357  0.6557137236293149  1.0000
  C   C19       1.0  0.9020025943111354  0.7840648342087805  0.6108054743313243  1.0000
  C   C20       1.0  0.8648254177197826  0.905045997475996  0.5886073739013555  1.0000
  N   N3        1.0  0.09250257821427499  0.8911145682162014  0.7245513758923674  1.0000
  O   O1        1.0  0.12981526519737296  0.0039900316118426414  0.7468306276379966  1.0000
  O   O2        1.0  0.12681692360597951  0.7848837860743472  0.7450401825356119  1.0000
  H   H9        1.0  0.8732775622986424  0.35098028607150655  0.5936540169583215  1.0000
  H   H10       1.0  0.00624163874913286  0.10471325152079446  0.6730458643889152  1.0000
  H   H11       1.0  0.006259744676713194  0.6874968405355799  0.6730565988452517  1.0000
  H   H12       1.0  0.8068101541756261  0.9087185313005984  0.5539668582937427  1.0000
  H   H13       1.0  0.8732874673166808  0.45804033312307246  0.593659807912112  1.0000
  C   C21       1.0  0.9019828084688906  0.4027079104191961  0.22946322189824375  1.0000
  C   C22       1.0  0.8283878772599041  0.4536388285883943  0.22104657937471694  1.0000
  C   C23       1.0  0.7913565745543077  0.4792662066471599  0.09923216609038565  1.0000
  C   C24       1.0  0.8284747098881508  0.45357882759151824  0.9859090653675304  1.0000
  C   C25       1.0  0.9020252627128956  0.40267862685024663  0.9921495039505195  1.0000
  C   C26       1.0  0.9383966205247174  0.3775079077744088  0.11445357731092409  1.0000
  O   O3        1.0  0.717896319411043  0.5301041481492956  0.08652915206543677  1.0000
  C   C27       1.0  0.6732691090114694  0.5609884494173061  0.19284334439380868  1.0000
  H   H14       1.0  0.9300246843929018  0.383302684787631  0.560099834888893  1.0000
  H   H15       1.0  0.8001345398808068  0.4731913599176365  0.30921667759698424  1.0000
  H   H16       1.0  0.7993765994980289  0.4737161323258223  0.8927270938509052  1.0000
  H   H17       1.0  0.9951458817119198  0.33823497581735795  0.1201400510315791  1.0000
  H   H18       1.0  0.9298600445886637  0.3834161805870328  0.6671021090909486  1.0000
  H   H19       1.0  0.6641469874778753  0.4721974856715662  0.25851082643743406  1.0000
  H   H20       1.0  0.6179012924006256  0.599305415865514  0.15460985504384883  1.0000
  H   H21       1.0  0.7010987176332826  0.6368332443861501  0.24747807719790685  1.0000
  Zn  Zn1       1.0  0.8196847004203914  0.4043986350274786  0.6068659598207682  1.0000
  Zn  Zn2       1.0  0.9843161666773861  0.40098741905177504  0.6147458085803155  1.0000
  C   C28       1.0  0.9020155719019652  0.397510408489697  0.8479853843367221  1.0000
  C   C29       1.0  0.9019870929671193  0.40787724698667577  0.37362659756600736  1.0000
  C   C30       1.0  0.9019989664590965  0.6398904166027997  0.6056307846921793  1.0000
  C   C31       1.0  0.9020036422426067  0.16549567970110843  0.6159812637593634  1.0000
  O   O4        1.0  0.9644653143660044  0.40831191902127695  0.42499950494033434  1.0000
  O   O5        1.0  0.9644888240622641  0.39448572273194316  0.8025927260251675  1.0000
  O   O6        1.0  0.9644745728153618  0.5902106619959873  0.6068896317979036  1.0000
  O   O7        1.0  0.9644795094298853  0.2125869902153974  0.6207024991106325  1.0000
  O   O8        1.0  0.839521301487252  0.5927990650293511  0.6009092665946145  1.0000
  O   O9        1.0  0.8395355527208958  0.3970756861032658  0.7966122915772293  1.0000
  O   O10       1.0  0.8395120429878894  0.41090183719465506  0.419017509199765  1.0000
  O   O11       1.0  0.8395262380541518  0.21517689909610582  0.6147206007311927  1.0000
