data_image0
_chemical_formula_structural       NC8NC6H8C6NCOH6C9H8Zn2C4O8
_chemical_formula_sum              "N3 C34 H22 O9 Zn2"
_cell_length_a       17.457602349358154
_cell_length_b       10.299619329790078
_cell_length_c       9.275155815604963
_cell_angle_alpha    86.05855117654025
_cell_angle_beta     93.22066324705655
_cell_angle_gamma    91.71362633690529

_space_group_name_H-M_alt    "P 1"
_space_group_IT_number       1

loop_
  _space_group_symop_operation_xyz
  'x, y, z'

loop_
  _atom_site_type_symbol
  _atom_site_label
  _atom_site_symmetry_multiplicity
  _atom_site_fract_x
  _atom_site_fract_y
  _atom_site_fract_z
  _atom_site_occupancy
  N   N1        1.0  0.7177458459818129  0.4407962949140365  0.47547900618897704  1.0000
  C   C1        1.0  0.6566164722288332  0.3947777304908899  0.4636880559282304  1.0000
  C   C2        1.0  0.5805689849789111  0.3375364344349776  0.44903070717614746  1.0000
  C   C3        1.0  0.5223274218182398  0.3783552985386498  0.5321805819085523  1.0000
  C   C4        1.0  0.44772085041167115  0.32323766515167107  0.5182056182784507  1.0000
  C   C5        1.0  0.3859053044869579  0.3663384658250608  0.6062644714341954  1.0000
  C   C6        1.0  0.3111578400838603  0.38431797691802144  0.5443636809885528  1.0000
  C   C7        1.0  0.25291662321197134  0.4249538611713903  0.6276333700996177  1.0000
  C   C8        1.0  0.1767229915793823  0.44351980117843937  0.5632732693194882  1.0000
  N   N2        1.0  0.11547622710624533  0.4584404385357678  0.5115279150848173  1.0000
  C   C9        1.0  0.2689326491763587  0.44785783640335297  0.7733683914160527  1.0000
  C   C10       1.0  0.3428969435592565  0.43027071305384584  0.8356995105500682  1.0000
  C   C11       1.0  0.4011282923760207  0.38981889791979496  0.7529379652150399  1.0000
  C   C12       1.0  0.43263902025606393  0.22661117904864847  0.4194899943431729  1.0000
  C   C13       1.0  0.4908704155467817  0.1860745041593086  0.3367842040510822  1.0000
  C   C14       1.0  0.5646942803429382  0.241309336328533  0.3513696853684929  1.0000
  H   H1        1.0  0.5349373901290402  0.45413434518918033  0.6061581214308767  1.0000
  H   H2        1.0  0.2984324234597022  0.3684529583861864  0.431103705777808  1.0000
  H   H3        1.0  0.2242970034248816  0.47925671514922424  0.8386866436147462  1.0000
  H   H4        1.0  0.3551076883527178  0.44769012766206906  0.9485453437632492  1.0000
  H   H5        1.0  0.45778000732999846  0.3752313129520246  0.8041188901591814  1.0000
  H   H6        1.0  0.3761029488787612  0.18118196938654355  0.40765903246663426  1.0000
  H   H7        1.0  0.47877013428328735  0.1114014172371549  0.26147655714808216  1.0000
  H   H8        1.0  0.6093316233275451  0.20904523680263437  0.2866187147541126  1.0000
  C   C15       1.0  0.9165127891372891  0.06824521572570053  0.49345703722545053  1.0000
  C   C16       1.0  0.8790480131779069  0.07362843337147251  0.3551729102504042  1.0000
  C   C17       1.0  0.8613119578193866  0.959655466860799  0.28460123792520653  1.0000
  C   C18       1.0  0.8792769350064829  0.8384809920923468  0.35530460797912267  1.0000
  C   C19       1.0  0.9167166287536731  0.830981950520221  0.49356304353892705  1.0000
  C   C20       1.0  0.9353937791997883  0.9464791795549803  0.5616098325921381  1.0000
  N   N3        1.0  0.8219125303212504  0.9689233044820115  0.1440091112880002  1.0000
  C   C21       1.0  0.833602487976771  0.8838839270502344  0.03166762453935524  1.0000
  O   O1        1.0  0.8875013602843261  0.8045975799848875  0.042611725490756314  1.0000
  H   H9        1.0  0.9864559964938182  0.2652658422488099  0.7549492917358476  1.0000
  H   H10       1.0  0.8640002550138717  0.16665333785831837  0.3009855459379831  1.0000
  H   H11       1.0  0.8627004637949905  0.7499655365689816  0.30394820585806137  1.0000
  H   H12       1.0  0.9642839531418971  0.9414541216743648  0.6682042479359585  1.0000
  H   H13       1.0  0.7863115819929299  0.047764454889573926  0.11744042877936667  1.0000
  H   H14       1.0  0.7968551719515062  0.8903901448272797  0.9336942920098842  1.0000
  C   C22       1.0  0.9152076908328786  0.44626849716222217  0.0701508861639144  1.0000
  C   C23       1.0  0.8551872874339606  0.5068860216716211  0.13253297365610783  1.0000
  C   C24       1.0  0.8003096274930437  0.576362777224011  0.04628253152631668  1.0000
  C   C25       1.0  0.804434710659751  0.5866826954871962  0.8960757802126208  1.0000
  C   C26       1.0  0.8629105434736023  0.5252988920338038  0.8318452533394165  1.0000
  C   C27       1.0  0.9180217392000701  0.45295859712887204  0.9168691204712002  1.0000
  C   C28       1.0  0.7480065383715048  0.6591247594869698  0.8073725346533691  1.0000
  C   C29       1.0  0.7007581103582057  0.7197852043054591  0.7330692534112018  1.0000
  C   C30       1.0  0.6434306392712266  0.7933864200958598  0.6429033543005436  1.0000
  H   H15       1.0  0.09331330730626204  0.3493897723181014  0.19923959355537724  1.0000
  H   H16       1.0  0.851738389653573  0.5031330457903846  0.24901150259161572  1.0000
  H   H17       1.0  0.7550338553277754  0.6231666273404621  0.09699752124542282  1.0000
  H   H18       1.0  0.8643301707070301  0.5314686878721395  0.7148283281040793  1.0000
  H   H19       1.0  0.03685935511923157  0.3830226980972906  0.6540491376030086  1.0000
  H   H20       1.0  0.6590269256733998  0.7978096629550999  0.5283183880657782  1.0000
  H   H21       1.0  0.5862597396041382  0.744604232148217  0.6527425569495344  1.0000
  H   H22       1.0  0.6415151791097389  0.8935809551827298  0.6792459740687216  1.0000
  Zn  Zn1       1.0  0.8325222692916568  0.4458845966565699  0.4858902661926685  1.0000
  Zn  Zn2       1.0  0.0006998259283639266  0.4533415821099205  0.5011284568124221  1.0000
  C   C31       1.0  0.9174867404775626  0.4465202429351913  0.7568204060461541  1.0000
  C   C32       1.0  0.9157371921444072  0.4527076570179944  0.23019862508819422  1.0000
  C   C33       1.0  0.9166550776834614  0.6867628782087773  0.48779764610102627  1.0000
  C   C34       1.0  0.916568797389665  0.21246345948647047  0.49922145647887284  1.0000
  O   O2        1.0  0.9797374023861574  0.4576929191979792  0.28969492146380316  1.0000
  O   O3        1.0  0.9811294027181573  0.44719367715843816  0.708889128619119  1.0000
  O   O4        1.0  0.9804569691183256  0.6411926171209141  0.49165126881416765  1.0000
  O   O5        1.0  0.9804097782416079  0.26369398512717496  0.5069326679742798  1.0000
  O   O6        1.0  0.8528122595876417  0.6355321910959661  0.48008604982318154  1.0000
  O   O7        1.0  0.8534846933455463  0.4415348108480787  0.6973238329749527  1.0000
  O   O8        1.0  0.8520926872918213  0.4520339939380058  0.2781278925009001  1.0000
  O   O9        1.0  0.8527650635008823  0.25803505143218075  0.49536574709822223  1.0000
