data_image0
_chemical_formula_structural       NC6NC3H6C9H6C9H9Zn2C4O8
_chemical_formula_sum              "N2 C31 H21 Zn2 O8"
_cell_length_a       14.934028789175542
_cell_length_b       9.275152443626249
_cell_length_c       10.297187173949778
_cell_angle_alpha    85.37052444745348
_cell_angle_beta     89.94921482241688
_cell_angle_gamma    90.53595971611534

_space_group_name_H-M_alt    "P 1"
_space_group_IT_number       1

loop_
  _space_group_symop_operation_xyz
  'x, y, z'

loop_
  _atom_site_type_symbol
  _atom_site_label
  _atom_site_symmetry_multiplicity
  _atom_site_fract_x
  _atom_site_fract_y
  _atom_site_fract_z
  _atom_site_occupancy
  N   N1        1.0  0.8534437748622938  0.5777379510608167  0.5617940836414652  1.0000
  C   C1        1.0  0.7759510624576413  0.5766393596445023  0.5611857793779587  1.0000
  C   C2        1.0  0.6795461922206041  0.5752676608015692  0.5604264256265561  1.0000
  C   C3        1.0  0.6324326509098209  0.6820964700977792  0.6194689773150641  1.0000
  C   C4        1.0  0.5389142345257882  0.6809950919670869  0.6188601465505131  1.0000
  C   C5        1.0  0.49159714156455986  0.5731194222607021  0.5592390758500199  1.0000
  C   C6        1.0  0.39496543561612757  0.575434003841109  0.5605194726736937  1.0000
  N   N2        1.0  0.31749647584208107  0.5772709161787579  0.5615359248641081  1.0000
  C   C7        1.0  0.5386961332341625  0.4648126596877631  0.4993791833248057  1.0000
  C   C8        1.0  0.4896673503968464  0.3475293831141524  0.4345597953780933  1.0000
  C   C9        1.0  0.6328524455479266  0.4670378895337094  0.500609079009358  1.0000
  H   H1        1.0  0.6679882953676599  0.7662676624820308  0.6659895623958646  1.0000
  H   H2        1.0  0.5033859955476551  0.7645180440661319  0.6650223297891077  1.0000
  H   H3        1.0  0.4472477100413216  0.39660456357877716  0.3545605762390327  1.0000
  H   H4        1.0  0.44650933168992296  0.28467311255168837  0.5069484382403725  1.0000
  H   H5        1.0  0.5366646702924404  0.27156331468411166  0.39256876163652565  1.0000
  H   H6        1.0  0.6698804947121506  0.3846260417086982  0.4550612475208202  1.0000
  C   C10       1.0  0.08283254740483897  0.15387496598753492  0.562992639938706  1.0000
  C   C11       1.0  0.0505648389809743  0.23663175333411468  0.45265438676315006  1.0000
  C   C12       1.0  0.026621171759702467  0.17119913447631727  0.3402453590562367  1.0000
  C   C13       1.0  0.03456939505324882  0.021848608802362605  0.33594886428552906  1.0000
  C   C14       1.0  0.06508639668814586  0.937405309138081  0.44535543855754  1.0000
  C   C15       1.0  0.08811624122901568  0.0011228056526564232  0.5603485831561447  1.0000
  C   C16       1.0  0.01034568365872923  0.9547075620245217  0.21954192858265498  1.0000
  C   C17       1.0  0.9900639886518557  0.8984592916080665  0.12206937020706832  1.0000
  C   C18       1.0  0.9654561614102734  0.8301999643790052  0.003803515125918592  1.0000
  H   H7        1.0  0.21141754081378172  0.23543246818894903  0.8223460333056042  1.0000
  H   H8        1.0  0.0027066505805448636  0.2374514651268893  0.2561290067063176  1.0000
  H   H9        1.0  0.17181734735678045  0.7057634246385645  0.737739959298234  1.0000
  H   H10       1.0  0.9818217792345535  0.7134633230456233  0.015929841324722645  1.0000
  H   H11       1.0  0.8925817545057797  0.8428534439793498  0.9860608820056804  1.0000
  H   H12       1.0  0.003296758125075792  0.8824989158312235  0.9197002382480444  1.0000
  C   C19       1.0  0.08559244332735938  0.5774466035131518  0.18021757148692324  1.0000
  C   C20       1.0  0.9950956944938909  0.6171616567922067  0.17666249242068321  1.0000
  C   C21       1.0  0.9487315412427456  0.637508607229343  0.058224717615096955  1.0000
  C   C22       1.0  0.9947448811734255  0.6173150584726002  0.9414394854253301  1.0000
  C   C23       1.0  0.08535634706189915  0.5775511618667255  0.9431236873381281  1.0000
  C   C24       1.0  0.13018839290915696  0.5578751860148214  0.06290123109956358  1.0000
  C   C25       1.0  0.8508527828660589  0.6804629807462466  0.06381181646132905  1.0000
  C   C26       1.0  0.78780251450463  0.6225022113745162  0.9637559247467952  1.0000
  C   C27       1.0  0.8154216842085432  0.7816268379700457  0.9521449435245448  1.0000
  H   H13       1.0  0.9601590554417685  0.6324942076958973  0.2667123938946745  1.0000
  H   H14       1.0  0.9607776672217397  0.6322184487918272  0.8488049321917013  1.0000
  H   H15       1.0  0.20000835530112426  0.5272334707002886  0.06491670437281562  1.0000
  H   H16       1.0  0.25649238031651145  0.5024299017324723  0.7390895814316695  1.0000
  H   H17       1.0  0.8193930937492274  0.6942704623226028  0.1598636589750646  1.0000
  H   H18       1.0  0.8177208799800538  0.5573593756403015  0.889417268910286  1.0000
  H   H19       1.0  0.7180871368262303  0.6030526887519616  0.9989741371340216  1.0000
  H   H20       1.0  0.8621176230850858  0.8131433310140135  0.8707541802041453  1.0000
  H   H21       1.0  0.7618476991686042  0.8551790887473312  0.980574630614314  1.0000
  Zn  Zn1       1.0  0.9873593473608229  0.5775993101790964  0.5617270921648008  1.0000
  Zn  Zn2       1.0  0.18358085642815025  0.5773977415443015  0.5616135732755325  1.0000
  C   C28       1.0  0.08536312822917907  0.5717843889578957  0.7989360287139544  1.0000
  C   C29       1.0  0.08557922960441444  0.5832144807813471  0.32440475730099516  1.0000
  C   C30       1.0  0.08711449780386714  0.8409741963566919  0.5556720816869565  1.0000
  C   C31       1.0  0.08382778224283727  0.3140229402568464  0.5676687790294814  1.0000
  O   O1        1.0  0.16003979578374394  0.5850674452586266  0.37275223384003864  1.0000
  O   O2        1.0  0.15983014050412914  0.5697773502113219  0.7505020234323317  1.0000
  O   O3        1.0  0.1612433893424125  0.7871515252718517  0.5540646609749338  1.0000
  O   O4        1.0  0.1586264800828503  0.36769328057323136  0.5691894989078162  1.0000
  O   O5        1.0  0.012313656745364334  0.7873037712205218  0.5541511665644181  1.0000
  O   O6        1.0  0.010900418733210456  0.5699313293560511  0.7505884543522283  1.0000
  O   O7        1.0  0.011110074242206336  0.5852213739184091  0.37283710317160357  1.0000
  O   O8        1.0  0.009696758443163752  0.3678471989282343  0.5692744656609027  1.0000
