data_image0
_chemical_formula_structural       NC8NH4C10H6C8H10Zn2C4O8
_chemical_formula_sum              "N2 C30 H20 Zn2 O8"
_cell_length_a       13.859017981522156
_cell_length_b       9.275150299802176
_cell_length_c       9.275657083861812
_cell_angle_alpha    85.52524859498646
_cell_angle_beta     89.50283111100838
_cell_angle_gamma    89.4839203727508

_space_group_name_H-M_alt    "P 1"
_space_group_IT_number       1

loop_
  _space_group_symop_operation_xyz
  'x, y, z'

loop_
  _atom_site_type_symbol
  _atom_site_label
  _atom_site_symmetry_multiplicity
  _atom_site_fract_x
  _atom_site_fract_y
  _atom_site_fract_z
  _atom_site_occupancy
  N   N1        1.0  0.9084064572304361  0.5708512544609394  0.40100604753021063  1.0000
  C   C1        1.0  0.8364520328176678  0.5635021892646023  0.33973050259439963  1.0000
  C   C2        1.0  0.7469449493028906  0.5543612861393181  0.2635116957970175  1.0000
  C   C3        1.0  0.7477331101130689  0.536535639422073  0.11488128586051924  1.0000
  C   C4        1.0  0.6607838371819802  0.527659496587539  0.040863024173358735  1.0000
  C   C5        1.0  0.5728678252793169  0.5365373613651556  0.11488102778468544  1.0000
  C   C6        1.0  0.5717147076478742  0.5543622589521552  0.2635115064812792  1.0000
  C   C7        1.0  0.6588446547359827  0.5632730790523734  0.33781557528898704  1.0000
  C   C8        1.0  0.4812122120328168  0.5635030922393319  0.33973025703635074  1.0000
  N   N2        1.0  0.40845754023081005  0.5708515676210084  0.40100595214558615  1.0000
  H   H1        1.0  0.8154105208421076  0.5295211136953868  0.05639678923295799  1.0000
  H   H2        1.0  0.661533563708089  0.5138902105331498  0.9260524263766697  1.0000
  H   H3        1.0  0.5059542349842157  0.529524210833453  0.056396351695426  1.0000
  H   H4        1.0  0.658093397392673  0.5770701335367072  0.45285959191858466  1.0000
  C   C9        1.0  0.16096842726704153  0.14715827641648827  0.40341927191252  1.0000
  C   C10       1.0  0.21234732732581385  0.2286507640605684  0.2943605690750163  1.0000
  C   C11       1.0  0.2554836151118576  0.16191318521031461  0.17975964753021545  1.0000
  C   C12       1.0  0.24768054728919964  0.01270965371254285  0.17274131679971844  1.0000
  C   C13       1.0  0.19841197431356394  0.9297700024597717  0.28115215512048986  1.0000
  C   C14       1.0  0.15590477499196442  0.9945335045205674  0.3986052529669938  1.0000
  C   C15       1.0  0.30688878933122943  0.24713501513287506  0.06820742869375063  1.0000
  C   C16       1.0  0.34992788253318086  0.31851079289694395  0.9748149709292034  1.0000
  C   C17       1.0  0.40032466497706953  0.4020967912799027  0.8654564759329721  1.0000
  C   C18       1.0  0.44335546029621464  0.4734671787523879  0.7720819208461344  1.0000
  H   H5        1.0  0.11387851228184664  0.41065663203918845  0.6323292965481521  1.0000
  H   H6        1.0  0.21697034871584675  0.3451105586188841  0.2965875072621027  1.0000
  H   H7        1.0  0.2805428477378553  0.9601095006337211  0.08406428200149407  1.0000
  H   H8        1.0  0.19549744228378652  0.8137380054958216  0.2749285862235804  1.0000
  H   H9        1.0  0.09120782207984737  0.8658200803680742  0.7411040414602328  1.0000
  H   H10       1.0  0.4811400876949106  0.5361364388052761  0.6900913492331057  1.0000
  C   C19       1.0  0.1609074187414217  0.568670897980746  0.9777047363991648  1.0000
  C   C20       1.0  0.2102324408327385  0.678655866949933  0.042020269020531575  1.0000
  C   C21       1.0  0.25100063743951906  0.794816084758086  0.9576217548268837  1.0000
  C   C22       1.0  0.2438817410335137  0.8000069970139025  0.8069533796314259  1.0000
  C   C23       1.0  0.19663688737735083  0.6906680138896327  0.7411815728156558  1.0000
  C   C24       1.0  0.1559658090323326  0.5730208942416853  0.8243198111095  1.0000
  C   C25       1.0  0.3047524837209039  0.910516766249468  0.028164332944553557  1.0000
  C   C26       1.0  0.4109830273673544  0.8693459632090339  0.04624282034095861  1.0000
  H   H11       1.0  0.11897164116138281  0.3384985052213527  0.2768394342275333  1.0000
  H   H12       1.0  0.21523731519270056  0.6759809418030247  0.1587604904407267  1.0000
  H   H13       1.0  0.2758839755356097  0.8881910235184399  0.7400661577055136  1.0000
  H   H14       1.0  0.19412027661344444  0.6962907341975799  0.6241753097056199  1.0000
  H   H15       1.0  0.0430340869208592  0.40673567872603766  0.5574301259222108  1.0000
  H   H16       1.0  0.2988423213714449  0.01526052588539484  0.9617289639538011  1.0000
  H   H17       1.0  0.2725622714681699  0.9268573213394193  0.1359480018290229  1.0000
  H   H18       1.0  0.4184653180143762  0.7667062825205737  0.11557411210003066  1.0000
  H   H19       1.0  0.44501806318797676  0.8560671070111616  0.939143438899595  1.0000
  H   H20       1.0  0.4492682449422605  0.9559563285888493  0.09831737692487995  1.0000
  Zn  Zn1       1.0  0.0527103785358567  0.570847534755978  0.40101436243843924  1.0000
  Zn  Zn2       1.0  0.26415362313183777  0.5708435758852168  0.4010094984607659  1.0000
  C   C27       1.0  0.1569320759112116  0.5664508119327496  0.6643240650402327  1.0000
  C   C28       1.0  0.1599342230057923  0.5752421198654851  0.13769992694732466  1.0000
  C   C29       1.0  0.15689049964274404  0.834332055909427  0.3937709226863066  1.0000
  C   C30       1.0  0.15997573703346513  0.3073591428203397  0.40825315600360446  1.0000
  O   O1        1.0  0.23984925661901357  0.577439685063587  0.19139396437505127  1.0000
  O   O2        1.0  0.2374975814089717  0.5642491514592991  0.6106259271922392  1.0000
  O   O3        1.0  0.23746291760229488  0.7805666515128651  0.3921523420350692  1.0000
  O   O4        1.0  0.23988384884362637  0.3611221947772787  0.40986744139242104  1.0000
  O   O5        1.0  0.07698008066890072  0.7805689158667992  0.3921564195008533  1.0000
  O   O6        1.0  0.07701473456120535  0.5642531488845846  0.610629917949739  1.0000
  O   O7        1.0  0.07936642025182805  0.5774436233054965  0.19139622231244074  1.0000
  O   O8        1.0  0.07940101190333773  0.3611261232548131  0.4098698074636802  1.0000
