data_image0
_chemical_formula_structural       NC14NH8C6ClH5C7NH4Zn2C4O8
_chemical_formula_sum              "N3 C31 H17 Cl1 Zn2 O8"
_cell_length_a       14.909852193252176
_cell_length_b       9.276545438789551
_cell_length_c       9.275157849593905
_cell_angle_alpha    86.141431454383
_cell_angle_beta     91.33358622712525
_cell_angle_gamma    92.20368056368942

_space_group_name_H-M_alt    "P 1"
_space_group_IT_number       1

loop_
  _space_group_symop_operation_xyz
  'x, y, z'

loop_
  _atom_site_type_symbol
  _atom_site_label
  _atom_site_symmetry_multiplicity
  _atom_site_fract_x
  _atom_site_fract_y
  _atom_site_fract_z
  _atom_site_occupancy
  N   N1        1.0  0.8397551987392688  0.6263153660142302  0.4445275433504614  1.0000
  C   C1        1.0  0.7684085134948616  0.5863467520632597  0.4787227257785365  1.0000
  C   C2        1.0  0.6796581975919979  0.5366511278264954  0.5212668454078331  1.0000
  C   C3        1.0  0.613794112603218  0.6366422055122645  0.5417040398720796  1.0000
  C   C4        1.0  0.5270823171015168  0.5887984460819518  0.583981144907759  1.0000
  C   C5        1.0  0.5067830997375599  0.4396222748757741  0.6024318814465466  1.0000
  C   C6        1.0  0.5725843138831971  0.3400697987850778  0.5819043861096301  1.0000
  C   C7        1.0  0.6589272690381971  0.38830259245783294  0.5417020723149657  1.0000
  C   C8        1.0  0.45666905392215  0.693639226975062  0.6036389300319065  1.0000
  C   C9        1.0  0.46887641417997455  0.8021415911942892  0.6922956382619787  1.0000
  C   C10       1.0  0.4051699789059557  0.913329534347875  0.7180081154351268  1.0000
  C   C11       1.0  0.4416242062762369  0.9972311730503817  0.8152892290070364  1.0000
  C   C12       1.0  0.5301742353549893  0.9452234971169645  0.8587094315191772  1.0000
  C   C13       1.0  0.5464924388851388  0.83050269129615  0.7871423937988278  1.0000
  C   C14       1.0  0.3724366994267431  0.6758567527067387  0.5255342132434073  1.0000
  N   N2        1.0  0.3049791172654548  0.6615262642803715  0.46294176997942055  1.0000
  H   H1        1.0  0.6297075513629393  0.7513880823741713  0.5238055942877418  1.0000
  H   H2        1.0  0.4402150886361522  0.40043565842246553  0.6337837535535074  1.0000
  H   H3        1.0  0.5566016246682514  0.22532808115038774  0.5971302652331272  1.0000
  H   H4        1.0  0.7093479377754901  0.31008012233408744  0.526086963240572  1.0000
  H   H5        1.0  0.3395704833573383  0.9266872729444726  0.6675241022764948  1.0000
  H   H6        1.0  0.4101669891687136  0.0890146770395921  0.8560696392127958  1.0000
  H   H7        1.0  0.5752486579958543  0.9914461008901252  0.9377590013332752  1.0000
  H   H8        1.0  0.6066222437769767  0.7689130689563157  0.8005281819263721  1.0000
  C   C15       1.0  0.07508141755676756  0.22068878900397662  0.4536045257539481  1.0000
  C   C16       1.0  0.07579537251318746  0.3031132261174718  0.32061635838285896  1.0000
  C   C17       1.0  0.06833412820081053  0.23621593936419027  0.19019973107617583  1.0000
  C   C18       1.0  0.059979211976881164  0.08600105097620639  0.19076227340547658  1.0000
  C   C19       1.0  0.060657097524333264  0.0021200270994954354  0.3213640136357043  1.0000
  C   C20       1.0  0.06966155733935801  0.0671425062180857  0.45387760043735553  1.0000
  Cl  Cl1       1.0  0.06810138898559305  0.34123519631204924  0.02566418178285402  1.0000
  H   H9        1.0  0.12035553191139672  0.48925653422566034  0.6819711670777002  1.0000
  H   H10       1.0  0.08000971471809626  0.4201252782163383  0.3179299145426344  1.0000
  H   H11       1.0  0.05381415829458347  0.03384330616530696  0.08984864388576796  1.0000
  H   H12       1.0  0.05627585258207812  0.8855024415229769  0.3185405849809453  1.0000
  H   H13       1.0  0.03891340759168127  0.76832407707487  0.6856956011799057  1.0000
  C   C21       1.0  0.073588711300697  0.6399319084185949  0.030589119168503487  1.0000
  C   C22       1.0  0.15066120796880567  0.6927723661990222  0.10336285572615746  1.0000
  C   C23       1.0  0.22305624986317074  0.7565973081256159  0.026383782793617968  1.0000
  C   C24       1.0  0.21922117647764672  0.7685731240621161  0.8755801002663591  1.0000
  C   C25       1.0  0.14400175174465443  0.7147052768875497  0.8015374968137731  1.0000
  C   C26       1.0  0.07115426709813512  0.647899309128509  0.8768930243125524  1.0000
  C   C27       1.0  0.30099573203139607  0.811511479849939  0.10250058419158581  1.0000
  N   N3        1.0  0.36363912334541926  0.8556477472424734  0.16368537969316677  1.0000
  H   H14       1.0  0.8554825423774756  0.5748064251645499  0.12976578170773623  1.0000
  H   H15       1.0  0.27482827049984837  0.8183926202337412  0.8149845728704044  1.0000
  H   H16       1.0  0.14375464456331155  0.7222675171023802  0.6844676409776578  1.0000
  H   H17       1.0  0.9252840894809636  0.5980709879738075  0.5936904394448574  1.0000
  Zn  Zn1       1.0  0.9740087798578564  0.6364726778502205  0.44984981062712803  1.0000
  Zn  Zn2       1.0  0.17072558464913587  0.6513572250566511  0.4576312986315921  1.0000
  C   C28       1.0  0.0716491686121199  0.6406515752928269  0.7169215074773649  1.0000
  C   C29       1.0  0.07308733198552542  0.6471803099777478  0.19055982877335342  1.0000
  C   C30       1.0  0.07069790605212979  0.9070902925739734  0.44808362243849076  1.0000
  C   C31       1.0  0.07403853828620943  0.38073985676136846  0.4593977874228119  1.0000
  O   O1        1.0  0.1475721069875393  0.6552552601706277  0.2472004923829825  1.0000
  O   O2        1.0  0.1464679048847164  0.6438725608513416  0.6661863980561566  1.0000
  O   O3        1.0  0.14569873766891006  0.8590251325932633  0.44909786448917194  1.0000
  O   O4        1.0  0.1483412073220052  0.44010269264248253  0.46428891525489985  1.0000
  O   O5        1.0  0.9963930900552074  0.8477272051865214  0.443192191340801  1.0000
  O   O6        1.0  0.9971622464005402  0.6325763643019648  0.6602806486341832  1.0000
  O   O7        1.0  0.9982664538682546  0.6439589970918456  0.24129301047842547  1.0000
  O   O8        1.0  0.9990355539542812  0.4288064202720563  0.45838154138239173  1.0000
