data_image0
_chemical_formula_structural       NC5NC3H4C7NH5C9H8Zn2C4O8
_chemical_formula_sum              "N3 C28 H17 Zn2 O8"
_cell_length_a       13.859018345313864
_cell_length_b       9.275154477615127
_cell_length_c       9.273585224739813
_cell_angle_alpha    86.3668502262391
_cell_angle_beta     90.10207003139627
_cell_angle_gamma    89.43370600770291

_space_group_name_H-M_alt    "P 1"
_space_group_IT_number       1

loop_
  _space_group_symop_operation_xyz
  'x, y, z'

loop_
  _atom_site_type_symbol
  _atom_site_label
  _atom_site_symmetry_multiplicity
  _atom_site_fract_x
  _atom_site_fract_y
  _atom_site_fract_z
  _atom_site_occupancy
  N   N1        1.0  0.8963714293135263  0.5618446616469099  0.41636264745988344  1.0000
  C   C1        1.0  0.8243358780112162  0.5228295752987155  0.46745627792598304  1.0000
  C   C2        1.0  0.734727858053002  0.4743000341164898  0.5310099580779395  1.0000
  C   C3        1.0  0.6467259002663731  0.5216106564428108  0.46905290406120753  1.0000
  C   C4        1.0  0.5594975553608713  0.474299742456219  0.5310098313846723  1.0000
  C   C5        1.0  0.46909599902146537  0.5228294616478584  0.46745618017381446  1.0000
  N   N2        1.0  0.396422526902395  0.5618446270558626  0.4163625783040594  1.0000
  C   C6        1.0  0.5604537624576054  0.3796642158587291  0.6549423506654455  1.0000
  C   C7        1.0  0.6482716901122839  0.332535714307441  0.7166609793002197  1.0000
  C   C8        1.0  0.7353191042892694  0.37966451302611676  0.6549425554780395  1.0000
  H   H1        1.0  0.6461269765703169  0.5948611356314448  0.37312580078575075  1.0000
  H   H2        1.0  0.4934627387776583  0.34242591176798676  0.7037083529910841  1.0000
  H   H3        1.0  0.6488693353136769  0.25943394878231013  0.8123935247566019  1.0000
  H   H4        1.0  0.8029189974207345  0.34242644593064464  0.7037087803672233  1.0000
  C   C9        1.0  0.14919186745769908  0.13843843036541115  0.4146947118113382  1.0000
  C   C10       1.0  0.12256370830328778  0.22033008477502028  0.28761014735405466  1.0000
  C   C11       1.0  0.08809481099561034  0.15307242794547032  0.1672574422977513  1.0000
  C   C12       1.0  0.07968716245468088  0.003005742521184459  0.1725718876392779  1.0000
  C   C13       1.0  0.10720634431092722  0.9198770669105979  0.2967596605648999  1.0000
  C   C14       1.0  0.14361139655156374  0.9852398693512898  0.4180430149849754  1.0000
  C   C15       1.0  0.06018122899532652  0.23853037791688173  0.03864117750076201  1.0000
  N   N3        1.0  0.037746448732895115  0.3072229974004519  0.9352666453639077  1.0000
  H   H5        1.0  0.16829928882220788  0.21869368246392568  0.7684961916797863  1.0000
  H   H6        1.0  0.1264994210215311  0.3372461593246754  0.2833334527156428  1.0000
  H   H7        1.0  0.052681517774914026  0.9499421106002446  0.08007327508394346  1.0000
  H   H8        1.0  0.10213949254121357  0.8034081865654117  0.29663281335130387  1.0000
  H   H9        1.0  0.16057020018427523  0.6888711356733495  0.65510007001501  1.0000
  C   C16       1.0  0.1459247932719785  0.5575512117381517  0.9931003644252768  1.0000
  C   C17       1.0  0.23224585752468013  0.5254383797740942  0.06893016053776835  1.0000
  C   C18       1.0  0.31978724019005655  0.506302660228009  0.9965941211905657  1.0000
  C   C19       1.0  0.3202175556536086  0.5200904203927725  0.8445894122986082  1.0000
  C   C20       1.0  0.23494553110286232  0.549492357556663  0.767745177848986  1.0000
  C   C21       1.0  0.14687846987651992  0.5661270574658641  0.8396373139942481  1.0000
  C   C22       1.0  0.4094382944385888  0.4732376061090651  0.08797858474726762  1.0000
  C   C23       1.0  0.4855396146879476  0.3743087806421084  0.02734947472873639  1.0000
  C   C24       1.0  0.5044820285815048  0.5355228315088385  0.03189079797876593  1.0000
  H   H10       1.0  0.23183211258106828  0.5184800505769903  0.18607215596978421  1.0000
  H   H11       1.0  0.3857466523080486  0.5070626938784071  0.7836035714601889  1.0000
  H   H12       1.0  0.0026720499737198362  0.6685744375095015  0.5513722781725732  1.0000
  H   H13       1.0  0.40315778876558284  0.46393868819597595  0.20770366598808865  1.0000
  H   H14       1.0  0.4728061356744335  0.33720632340553414  0.9176249357772499  1.0000
  H   H15       1.0  0.5260296493281207  0.30680162991205906  0.11060384435690218  1.0000
  H   H16       1.0  0.5032119405692552  0.5961715999466111  0.9249114543067027  1.0000
  H   H17       1.0  0.5560339061757988  0.5622643235769879  0.11780402301252835  1.0000
  Zn  Zn1       1.0  0.04067540769365152  0.5618408659141951  0.4163709450454123  1.0000
  Zn  Zn2       1.0  0.25211861631067656  0.5618367095264423  0.41636607246689183  1.0000
  C   C25       1.0  0.14673390011677112  0.5587620839680849  0.6796009956730724  1.0000
  C   C26       1.0  0.14606242101128264  0.5649173121008253  0.15313617045002315  1.0000
  C   C27       1.0  0.1446547829374505  0.8251181653197646  0.4116663305672865  1.0000
  C   C28       1.0  0.14814147754229468  0.29855949923825  0.4210709055535973  1.0000
  O   O1        1.0  0.22635024731568884  0.5673815750833929  0.2068437749071712  1.0000
  O   O2        1.0  0.22692658339055574  0.556293574465199  0.625889273821651  1.0000
  O   O3        1.0  0.22524658996755592  0.7713794938933671  0.40953014201930404  1.0000
  O   O4        1.0  0.22803016839772283  0.35229566487606956  0.4232027986791085  1.0000
  O   O5        1.0  0.06476378345139677  0.7713819105674795  0.4095342188272828  1.0000
  O   O6        1.0  0.06644376536749673  0.5562977226531185  0.6258932806259292  1.0000
  O   O7        1.0  0.06586742773565456  0.5673856554712673  0.20684604856689903  1.0000
  O   O8        1.0  0.06754734900344594  0.35229973604601056  0.4232051803633332  1.0000
