data_image0
_chemical_formula_structural       NC12NC2H8C12SCH12C16H10Zn2C4O8
_chemical_formula_sum              "N2 C47 H30 S1 Zn2 O8"
_cell_length_a       19.240039667572717
_cell_length_b       10.299776766347529
_cell_length_c       10.299151387937775
_cell_angle_alpha    85.58705518708118
_cell_angle_beta     89.98856263563694
_cell_angle_gamma    89.97991714870845

_space_group_name_H-M_alt    "P 1"
_space_group_IT_number       1

loop_
  _space_group_symop_operation_xyz
  'x, y, z'

loop_
  _atom_site_type_symbol
  _atom_site_label
  _atom_site_symmetry_multiplicity
  _atom_site_fract_x
  _atom_site_fract_y
  _atom_site_fract_z
  _atom_site_occupancy
  N   N1        1.0  0.6543636202834071  0.42063825759101237  0.5675251615219401  1.0000
  C   C1        1.0  0.5942152514591296  0.42063834153587726  0.5675250795894221  1.0000
  C   C2        1.0  0.5193972143106409  0.4206384587608498  0.5675249422908062  1.0000
  C   C3        1.0  0.4829245388396193  0.35621861973680136  0.670933714063314  1.0000
  C   C4        1.0  0.4102538022911614  0.3561077771165599  0.6710202502755866  1.0000
  C   C5        1.0  0.37306497938028693  0.4206385512264635  0.5675247146133773  1.0000
  C   C6        1.0  0.4102518348007372  0.4851695124049318  0.46402937350368095  1.0000
  C   C7        1.0  0.48292253484709236  0.48505843434075757  0.46411603220335823  1.0000
  C   C8        1.0  0.295859888965623  0.42063847252483705  0.5675246191927368  1.0000
  C   C9        1.0  0.2586888552151411  0.30739701256121355  0.6093887531972946  1.0000
  C   C10       1.0  0.18601815653757786  0.30750387213336183  0.6092974337371913  1.0000
  C   C11       1.0  0.149527602060151  0.42063834337968853  0.56752468009556  1.0000
  C   C12       1.0  0.0747095648999517  0.42063822974559656  0.5675249287507185  1.0000
  N   N2        1.0  0.0145612480332259  0.420638189012625  0.5675251371686105  1.0000
  C   C13       1.0  0.18598455843076406  0.5337728904299452  0.5257518735674729  1.0000
  C   C14       1.0  0.2586552443388038  0.5338799300507959  0.5256603915228355  1.0000
  H   H1        1.0  0.5106401363232009  0.30634367205981206  0.7516723707496404  1.0000
  H   H2        1.0  0.3831609580095179  0.30703138821715914  0.7528744670752964  1.0000
  H   H3        1.0  0.3831581482946135  0.5342459283344871  0.3821751058569254  1.0000
  H   H4        1.0  0.510636708815915  0.5349332818755552  0.38337765130774626  1.0000
  H   H5        1.0  0.2857955265133826  0.21825605263837436  0.6405511533369521  1.0000
  H   H6        1.0  0.1583164314947456  0.2192625291938377  0.6414928596230676  1.0000
  H   H7        1.0  0.1582564600288549  0.6220142088391654  0.49355646223062477  1.0000
  H   H8        1.0  0.2857350518477029  0.6230209691300513  0.49449794661619256  1.0000
  C   C15       1.0  0.8345313046148047  0.03927309641894806  0.567523537913696  1.0000
  C   C16       1.0  0.8386933465751972  0.02777095609909862  0.7040373646004875  1.0000
  C   C17       1.0  0.8407353696384366  0.9048041113906746  0.7732153657745569  1.0000
  C   C18       1.0  0.8385604462681265  0.7924831863659522  0.7040525549442328  1.0000
  C   C19       1.0  0.8344002606326627  0.8019933788475747  0.5675379788754062  1.0000
  C   C20       1.0  0.8324085864853406  0.9258275159582445  0.5000376408122569  1.0000
  C   C21       1.0  0.8451306810367335  0.8937000508820842  0.9176315914317505  1.0000
  C   C22       1.0  0.805345180744157  0.8002719683301265  0.9916742510556609  1.0000
  C   C23       1.0  0.8095025572330389  0.7900562023279201  0.1275834889905474  1.0000
  C   C24       1.0  0.8532719540794687  0.8729907396797896  0.19125673874676086  1.0000
  C   C25       1.0  0.8932231693193563  0.9658456351588893  0.11858714325143793  1.0000
  C   C26       1.0  0.8891677077868738  0.976411285362466  0.9826674903018022  1.0000
  S   S1        1.0  0.8586830835146887  0.8594219687272601  0.3656469895618265  1.0000
  C   C27       1.0  0.7888399849579389  0.9754923295403922  0.38517570602094986  1.0000
  H   H9        1.0  0.8329727211199173  0.37110941596302993  0.5155055730669835  1.0000
  H   H10       1.0  0.8393981567725447  0.11462516712618488  0.7569956698125135  1.0000
  H   H11       1.0  0.8410774883970962  0.6974925038443698  0.7568147235852141  1.0000
  H   H12       1.0  0.8291982232805  0.9339324398617268  0.39472302806989773  1.0000
  H   H13       1.0  0.8327803413388792  0.47816342628343245  0.5155246798003394  1.0000
  H   H14       1.0  0.7703628280901091  0.7362873154445084  0.9445601516879417  1.0000
  H   H15       1.0  0.7784227322133622  0.718018271513314  0.18330496346209915  1.0000
  H   H16       1.0  0.9274656419145082  0.02988685802444513  0.16729017647515787  1.0000
  H   H17       1.0  0.921124587536407  0.04808088276440413  0.928359057700703  1.0000
  H   H18       1.0  0.802758639722774  0.07180067585329031  0.33629807018661406  1.0000
  H   H19       1.0  0.7807752999133007  0.9862177268586901  0.49045493249157446  1.0000
  H   H20       1.0  0.7399378161813396  0.9399414262190279  0.34305364654558324  1.0000
  C   C28       1.0  0.8345060807158721  0.42046449447850603  0.1861597657925147  1.0000
  C   C29       1.0  0.7674370875343723  0.47441695226865654  0.1812523300666891  1.0000
  C   C30       1.0  0.7333902382834616  0.5019459024843478  0.06160820689078683  1.0000
  C   C31       1.0  0.7673161160599966  0.474794542312317  0.9459400030069323  1.0000
  C   C32       1.0  0.8344254518717846  0.4208019406099183  0.9489017488090661  1.0000
  C   C33       1.0  0.8676079747598859  0.3939712524133181  0.06943823115340098  1.0000
  C   C34       1.0  0.6624393661172472  0.5590213796905821  0.05746214180672605  1.0000
  C   C35       1.0  0.6447686312940168  0.6588325990654851  0.9621592522349576  1.0000
  C   C36       1.0  0.577978222299464  0.7125128263928114  0.9583852469035574  1.0000
  C   C37       1.0  0.527982357604764  0.667190277217963  0.0496124049161919  1.0000
  C   C38       1.0  0.5450230801884159  0.5679373905931966  0.14475321230510052  1.0000
  C   C39       1.0  0.6117935644006962  0.5141695714037884  0.14877678093553093  1.0000
  C   C40       1.0  0.45923120053606575  0.7225002114087005  0.04559906509728685  1.0000
  C   C41       1.0  0.4016530766237551  0.7688214452106135  0.0422378645127639  1.0000
  C   C42       1.0  0.33422969223799925  0.8230631951574233  0.03830193212587619  1.0000
  C   C43       1.0  0.27666087302272113  0.8693771810846309  0.03494138123924607  1.0000
  H   H21       1.0  0.8602889199650962  0.39964950401302657  0.5155278186309695  1.0000
  H   H22       1.0  0.7418958378272302  0.49681108480775915  0.2705566124913814  1.0000
  H   H23       1.0  0.740940174492909  0.4941733362941263  0.8535674798509985  1.0000
  H   H24       1.0  0.9193391724187723  0.35235278135893133  0.07250798812416459  1.0000
  H   H25       1.0  0.9609163180952711  0.3181354065731572  0.7472577533685022  1.0000
  H   H26       1.0  0.6828646201711966  0.6965341799458944  0.8916135473575674  1.0000
  H   H27       1.0  0.5653956760584828  0.7895611812160674  0.8845342720250753  1.0000
  H   H28       1.0  0.5066572169581275  0.5318769884539098  0.21563035655659446  1.0000
  H   H29       1.0  0.623554885143854  0.43635958849782847  0.22223472428588512  1.0000
  H   H30       1.0  0.22611069664425146  0.9100446222148386  0.031990547477302345  1.0000
  Zn  Zn1       1.0  0.7583088839307939  0.4206347739464129  0.5675326428949775  1.0000
  Zn  Zn2       1.0  0.9106160038570229  0.4206310839717579  0.5675282545525742  1.0000
  C   C44       1.0  0.8344400378709422  0.4155645673462034  0.8047270673941691  1.0000
  C   C45       1.0  0.8344865128108357  0.42570292919142205  0.3303339575035804  1.0000
  C   C46       1.0  0.8344219817106233  0.6578207260547204  0.5623600314360928  1.0000
  C   C47       1.0  0.8345045172601838  0.18344521022768  0.572701062672663  1.0000
  O   O1        1.0  0.8922797048735267  0.427453929723335  0.37871846782914187  1.0000
  O   O2        1.0  0.8922444258932658  0.4138097863306942  0.756338852551681  1.0000
  O   O3        1.0  0.8922290660043378  0.6094346988514923  0.5606257562765218  1.0000
  O   O4        1.0  0.8922950127990477  0.23182902645083958  0.5744314667307786  1.0000
  O   O5        1.0  0.7766298230138247  0.6094368314700007  0.5606294307114392  1.0000
  O   O6        1.0  0.7766451826387794  0.4138134792070971  0.7563424577702582  1.0000
  O   O7        1.0  0.7766804618380776  0.4274575766533366  0.37872051163771486  1.0000
  O   O8        1.0  0.7766957697520612  0.23183266413520798  0.5744336079075407  1.0000
