data_image0
_chemical_formula_structural       NC9NC5H8C6ClH5C8H10Zn2C4O8
_chemical_formula_sum              "N2 C32 H23 Cl1 Zn2 O8"
_cell_length_a       17.807436237873137
_cell_length_b       10.30297070629231
_cell_length_c       9.275657083861814
_cell_angle_alpha    85.85420563620812
_cell_angle_beta     88.90332225934053
_cell_angle_gamma    88.39001192287226

_space_group_name_H-M_alt    "P 1"
_space_group_IT_number       1

loop_
  _space_group_symop_operation_xyz
  'x, y, z'

loop_
  _atom_site_type_symbol
  _atom_site_label
  _atom_site_symmetry_multiplicity
  _atom_site_fract_x
  _atom_site_fract_y
  _atom_site_fract_z
  _atom_site_occupancy
  N   N1        1.0  0.7146526081811972  0.3795722021145763  0.39829308606256797  1.0000
  C   C1        1.0  0.65412041179279  0.34433461423687967  0.38605558901550485  1.0000
  C   C2        1.0  0.5788250126101826  0.3005029353917332  0.37083347142228207  1.0000
  C   C3        1.0  0.5612606064752003  0.2285475504444314  0.25427142882370096  1.0000
  C   C4        1.0  0.48815307291359955  0.18587846327624558  0.23940000916561013  1.0000
  C   C5        1.0  0.4315613899174088  0.21478717820943816  0.3410546078288079  1.0000
  C   C6        1.0  0.3538665155256147  0.16955624794929577  0.3253412495279039  1.0000
  C   C7        1.0  0.2915599653815696  0.25142536583384123  0.3541356734703953  1.0000
  C   C8        1.0  0.21831005832868366  0.20855337895643777  0.33927944089333506  1.0000
  C   C9        1.0  0.1549515916363947  0.2931149390528606  0.3684778292325126  1.0000
  N   N2        1.0  0.10402437635578568  0.36109658892774954  0.39195252699161  1.0000
  C   C10       1.0  0.2067832838365834  0.08355424086773144  0.2956006438676331  1.0000
  C   C11       1.0  0.268232506267591  0.0016712301224992574  0.2667969066457399  1.0000
  C   C12       1.0  0.3413639979076644  0.04414771594838851  0.28142830432396027  1.0000
  C   C13       1.0  0.4498161001653692  0.28723794711582923  0.45786001407893506  1.0000
  C   C14       1.0  0.5229772862903316  0.32971586600514224  0.47255864816345405  1.0000
  H   H1        1.0  0.6040154492725374  0.20568488840527266  0.17466421250229264  1.0000
  H   H2        1.0  0.47565669831029456  0.13176862881038875  0.14735128401313835  1.0000
  H   H3        1.0  0.2999124831521447  0.3490139145770683  0.3861916592322947  1.0000
  H   H4        1.0  0.1503714393886513  0.04947226855425278  0.2838394173570794  1.0000
  H   H5        1.0  0.2591876684138711  0.9048960795989187  0.233408363509781  1.0000
  H   H6        1.0  0.38810044458587495  0.9783215763433862  0.2602829484429512  1.0000
  H   H7        1.0  0.4077716408447176  0.3095686757222753  0.5389042325030298  1.0000
  H   H8        1.0  0.5360072380224579  0.3850403082277467  0.5634510802990111  1.0000
  C   C15       1.0  0.9093420398629315  0.9890868235273731  0.3951289903089913  1.0000
  C   C16       1.0  0.9867976682159715  0.9823969226026085  0.42163352865699966  1.0000
  C   C17       1.0  0.025229084136970673  0.8621207279224216  0.43478427239501216  1.0000
  C   C18       1.0  0.986797667922658  0.7472889536330766  0.4216334608657488  1.0000
  C   C19       1.0  0.9093420475080343  0.7515717653589429  0.39512907270504183  1.0000
  C   C20       1.0  0.8709917946889236  0.8730457749615378  0.3820059695371798  1.0000
  Cl  Cl1       1.0  0.12198961866847212  0.8552669642189562  0.46789465624894966  1.0000
  H   H9        1.0  0.8801658648977836  0.3189099064551452  0.38514438779873283  1.0000
  H   H10       1.0  0.017603654564525947  0.0702614503311405  0.4321749039248621  1.0000
  H   H11       1.0  0.017603625320716795  0.6550602584116543  0.43217480083142434  1.0000
  H   H12       1.0  0.8112556637400976  0.8772769021918146  0.36156482879178653  1.0000
  H   H13       1.0  0.8801658600033456  0.425881941269916  0.38514466004460624  1.0000
  C   C21       1.0  0.9112558562394613  0.36828135179407906  0.9717779615663101  1.0000
  C   C22       1.0  0.9501752383860941  0.46540124393074245  0.0360845826386067  1.0000
  C   C23       1.0  0.9824604628666985  0.5683925404275836  0.9518202678986529  1.0000
  C   C24       1.0  0.9769413885489495  0.5733253081234693  0.8012712538831727  1.0000
  C   C25       1.0  0.9396447643583514  0.476709686065194  0.7354856040617987  1.0000
  C   C26       1.0  0.9074282437296246  0.37237718604232883  0.8184800768572803  1.0000
  C   C27       1.0  0.024853448902079075  0.6704907187617836  0.022329843119631043  1.0000
  C   C28       1.0  0.10737977247500562  0.629528505720004  0.03883060044232067  1.0000
  H   H14       1.0  0.877530973609848  0.16276797238202764  0.2701541841535757  1.0000
  H   H15       1.0  0.9540599069966363  0.4628099642462771  0.15274635070201997  1.0000
  H   H16       1.0  0.0022706996812758003  0.6514731395161024  0.7344725627885624  1.0000
  H   H17       1.0  0.9377113331353721  0.48186086256862337  0.6185427677894957  1.0000
  H   H18       1.0  0.8187186498192466  0.22695979625305385  0.5520902222333914  1.0000
  H   H19       1.0  0.02073879710526549  0.764936454239713  0.95655653944785  1.0000
  H   H20       1.0  0.9998641249267556  0.6863800272861305  0.1306132633489283  1.0000
  H   H21       1.0  0.11272837428073434  0.5369175102784554  0.10749168718209168  1.0000
  H   H22       1.0  0.13381984029118407  0.6163253354998569  0.9312252381217944  1.0000
  H   H23       1.0  0.13759409362546338  0.7060285297342634  0.09090520168208527  1.0000
  Zn  Zn1       1.0  0.8270168506991746  0.3742371153941561  0.3964716752789985  1.0000
  Zn  Zn2       1.0  0.9916600620623873  0.3664211501786645  0.39378578969723965  1.0000
  C   C29       1.0  0.9081500699480268  0.36643104585935454  0.6584352512584055  1.0000
  C   C30       1.0  0.9105286400726766  0.3742287731455092  0.1318223258864153  1.0000
  C   C31       1.0  0.9093641622348824  0.6074182438996997  0.3893842089299242  1.0000
  C   C32       1.0  0.9093144912570952  0.13324001833841706  0.40087344599194696  1.0000
  O   O1        1.0  0.9727658203507568  0.37325300007859963  0.18451539699467578  1.0000
  O   O2        1.0  0.9708732793860587  0.3614737007588597  0.603703240140689  1.0000
  O   O3        1.0  0.9718528252084292  0.5560739581116613  0.38644263362030684  1.0000
  O   O4        1.0  0.9717862188354619  0.17865275415722534  0.40177589633763233  1.0000
  O   O5        1.0  0.8468906377414867  0.5620055140841772  0.38848156954758384  1.0000
  O   O6        1.0  0.8459110922632288  0.3674068161667042  0.6057420991998932  1.0000
  O   O7        1.0  0.8478036411133939  0.3791860618579096  0.1865525227691363  1.0000
  O   O8        1.0  0.84682403910641  0.1845858071736901  0.40381313019849663  1.0000
