data_image0
_chemical_formula_structural       NC9NC3NH7C7F3H5C8H6Zn2C4O8
_chemical_formula_sum              "N3 C31 H18 F3 Zn2 O8"
_cell_length_a       16.053384444249904
_cell_length_b       9.272718291674593
_cell_length_c       9.275144076552241
_cell_angle_alpha    86.39339924805473
_cell_angle_beta     90.26395466223778
_cell_angle_gamma    88.75080299671951

_space_group_name_H-M_alt    "P 1"
_space_group_IT_number       1

loop_
  _space_group_symop_operation_xyz
  'x, y, z'

loop_
  _atom_site_type_symbol
  _atom_site_label
  _atom_site_symmetry_multiplicity
  _atom_site_fract_x
  _atom_site_fract_y
  _atom_site_fract_z
  _atom_site_occupancy
  N   N1        1.0  0.7704873144744803  0.5479273539525082  0.41850627784786193  1.0000
  C   C1        1.0  0.7194516248030066  0.5242486718984243  0.33525706774782615  1.0000
  C   C2        1.0  0.6560283756672263  0.49482780481684285  0.23184120804958178  1.0000
  C   C3        1.0  0.6690408291529376  0.480421446965352  0.08663713433801479  1.0000
  C   C4        1.0  0.5922717368601964  0.45190172974271126  0.028427558841391372  1.0000
  C   C5        1.0  0.5357002834969142  0.45049502807744624  0.14125802235673413  1.0000
  C   C6        1.0  0.4451084896107616  0.42396724100131417  0.1296851153678256  1.0000
  C   C7        1.0  0.3894862230750863  0.47210818497050727  0.2342722139972082  1.0000
  C   C8        1.0  0.3039947100202773  0.4469483179145288  0.2231894351861734  1.0000
  C   C9        1.0  0.24759614020979526  0.4970447102531397  0.3304237871770064  1.0000
  N   N2        1.0  0.2022683063179288  0.5373151338451227  0.41662341866286257  1.0000
  C   C10       1.0  0.2734000319340743  0.37352327147151065  0.1075338354206903  1.0000
  C   C11       1.0  0.3280142531667865  0.32551675190495577  0.0031826747261751746  1.0000
  C   C12       1.0  0.4132985755295275  0.35048958609733294  0.013823889748538985  1.0000
  N   N3        1.0  0.5753451340481314  0.4768517708248235  0.26526729036665464  1.0000
  H   H1        1.0  0.7274732036452789  0.4896160025890947  0.029420178766614177  1.0000
  H   H2        1.0  0.5795642326104343  0.43583779665091943  0.9160159269578778  1.0000
  H   H3        1.0  0.4119601770419369  0.5309629290370197  0.323281745964777  1.0000
  H   H4        1.0  0.20741993551363105  0.35350997525598293  0.09802371369712426  1.0000
  H   H5        1.0  0.3042410251709532  0.2684831306746962  0.9139273592074456  1.0000
  H   H6        1.0  0.4542143847844838  0.31057651793328067  0.932227700122755  1.0000
  H   H7        1.0  0.5496395645000853  0.48018744015594916  0.3682420223245866  1.0000
  C   C13       1.0  0.9881815305756129  0.1191719159867428  0.4143727638640897  1.0000
  C   C14       1.0  0.9369370101437113  0.2010452762127899  0.31497923581749987  1.0000
  C   C15       1.0  0.8798497458340001  0.13429770272089936  0.2269848077902721  1.0000
  C   C16       1.0  0.8762014738045629  0.9831578070687577  0.23542803275455437  1.0000
  C   C17       1.0  0.9274939066842555  0.9003023251525416  0.3317021726701004  1.0000
  C   C18       1.0  0.9845821341152686  0.9660594005449442  0.42076930471871377  1.0000
  C   C19       1.0  0.8270475433237432  0.2237423524018889  0.11842767228178676  1.0000
  F   F1        1.0  0.8058806380063444  0.3560492767388541  0.1709073670633292  1.0000
  F   F2        1.0  0.7541820782963721  0.15392154548422154  0.08862948007340865  1.0000
  F   F3        1.0  0.8714102829342062  0.24654851283250137  0.991968115059505  1.0000
  H   H8        1.0  0.08853923504307071  0.1975805510874937  0.7250216725786489  1.0000
  H   H9        1.0  0.9402316853565984  0.3178860722987509  0.3082558822363244  1.0000
  H   H10       1.0  0.8342381765127684  0.9286103561728235  0.1662941999405454  1.0000
  H   H11       1.0  0.9241024150986642  0.7836301942188292  0.3336563725702286  1.0000
  H   H12       1.0  0.16423615227039612  0.846947111537368  0.5934786345009617  1.0000
  C   C20       1.0  0.9844319011521743  0.5397131321732156  0.994271781602714  1.0000
  C   C21       1.0  0.9297098379447785  0.6350895177315535  0.061192681385872756  1.0000
  C   C22       1.0  0.8816427507528388  0.7374461579964571  0.9792295002080178  1.0000
  C   C23       1.0  0.88742728946827  0.7465177219983565  0.8288432235613068  1.0000
  C   C24       1.0  0.9404201308030102  0.6510781015074649  0.7601732349844297  1.0000
  C   C25       1.0  0.988331778322042  0.5455182291691325  0.8408702855396499  1.0000
  C   C26       1.0  0.8381332615405889  0.8528680182120771  0.7445453440358549  1.0000
  C   C27       1.0  0.7968644019774691  0.9419081658165241  0.673952096230876  1.0000
  H   H13       1.0  0.1584397827616375  0.3461640876768146  0.11069081029550022  1.0000
  H   H14       1.0  0.925552644130226  0.632767922260925  0.1778626698129624  1.0000
  H   H15       1.0  0.8405166046447511  0.8105490472234038  0.033390458413327107  1.0000
  H   H16       1.0  0.9427832639672448  0.6570112868739775  0.6431234643767154  1.0000
  H   H17       1.0  0.10370465283838448  0.41066785546941653  0.569558258986691  1.0000
  H   H18       1.0  0.7606389121583479  0.020066425954945896  0.6119843994036094  1.0000
  Zn  Zn1       1.0  0.895090034123633  0.5448611077987067  0.41797121296486206  1.0000
  Zn  Zn2       1.0  0.0776656674094567  0.5403697129362401  0.41717017606634893  1.0000
  C   C28       1.0  0.9876171727341293  0.5386764118623841  0.6808016235743373  1.0000
  C   C29       1.0  0.9851405154381401  0.5465561802222065  0.15433991193258326  1.0000
  C   C30       1.0  0.985231759124582  0.8059403618752108  0.41381603784794635  1.0000
  C   C31       1.0  0.9875258744646114  0.27929049980205695  0.42132556169828494  1.0000
  O   O1        1.0  0.05466486093399192  0.5471420178150521  0.20775620186853883  1.0000
  O   O2        1.0  0.05666351110155543  0.5346806188220474  0.626776942001624  1.0000
  O   O3        1.0  0.05473633233348796  0.750499671725823  0.4111842079827708  1.0000
  O   O4        1.0  0.056591976859645246  0.33132297601809224  0.4233488281579354  1.0000
  O   O5        1.0  0.9161636623692999  0.7539078462510647  0.41179256113906004  1.0000
  O   O6        1.0  0.9180908334162977  0.5380905252888215  0.6273852313843864  1.0000
  O   O7        1.0  0.9160921755342756  0.5505518621474037  0.20836275779973756  1.0000
  O   O8        1.0  0.9180192919981981  0.33473281077783845  0.4239554920843751  1.0000
