data_image0
_chemical_formula_structural       NC10NC5H10C16H10C12IH9Zn2C4O8
_chemical_formula_sum              "N2 C47 H29 I1 Zn2 O8"
_cell_length_a       19.4436361288709
_cell_length_b       10.29914801576943
_cell_length_c       10.299773350644648
_cell_angle_alpha    85.52085607386434
_cell_angle_beta     89.71371329934453
_cell_angle_gamma    89.43179634642199

_space_group_name_H-M_alt    "P 1"
_space_group_IT_number       1

loop_
  _space_group_symop_operation_xyz
  'x, y, z'

loop_
  _atom_site_type_symbol
  _atom_site_label
  _atom_site_symmetry_multiplicity
  _atom_site_fract_x
  _atom_site_fract_y
  _atom_site_fract_z
  _atom_site_occupancy
  N   N1        1.0  0.6477005494140935  0.40983872013235034  0.5615382969921425  1.0000
  C   C1        1.0  0.5888679470043229  0.41973467787570656  0.5759184230663059  1.0000
  C   C2        1.0  0.5155428275228633  0.4320762387408628  0.593905940456648  1.0000
  C   C3        1.0  0.4733412981813441  0.4001210347875116  0.49924453000288227  1.0000
  C   C4        1.0  0.3974386945480234  0.41055765077230666  0.5045685297026188  1.0000
  C   C5        1.0  0.3577117043132188  0.3857578175338002  0.611650901806227  1.0000
  C   C6        1.0  0.2815897854107489  0.3896807943579837  0.5986899586521794  1.0000
  C   C7        1.0  0.24104745248117554  0.4473028243214693  0.6924382595840735  1.0000
  C   C8        1.0  0.1693829952633044  0.4509457858200815  0.6818929095462957  1.0000
  C   C9        1.0  0.1372661072018229  0.396570541207278  0.5778859410071348  1.0000
  C   C10       1.0  0.063472390672129  0.40027482326974667  0.5671852846217269  1.0000
  N   N2        1.0  0.004147247728181202  0.40325287160176765  0.5585826663087634  1.0000
  C   C11       1.0  0.177083516299391  0.3382411865616229  0.4845211528717223  1.0000
  C   C12       1.0  0.2487643598495977  0.3345441144627527  0.49481474614458654  1.0000
  C   C13       1.0  0.3858582142229085  0.34523265250337715  0.7427616809534554  1.0000
  C   C14       1.0  0.4445338871493077  0.3883358113686515  0.789987397291277  1.0000
  C   C15       1.0  0.48874281511294254  0.4862363647281135  0.7155814710836009  1.0000
  H   H1        1.0  0.49542383181860145  0.3710438703921515  0.4089489090864768  1.0000
  H   H2        1.0  0.3727297728317094  0.433097592576951  0.41140115602674804  1.0000
  H   H3        1.0  0.264934790892324  0.4905592983480163  0.773269816550727  1.0000
  H   H4        1.0  0.1390541878867926  0.49622984797999614  0.754796190361859  1.0000
  H   H5        1.0  0.15272436727216132  0.2951802289271226  0.4040240030118136  1.0000
  H   H6        1.0  0.2784273722122119  0.2870161633372994  0.4226086784682477  1.0000
  H   H7        1.0  0.3548939453012406  0.2809805727987778  0.8070338851386962  1.0000
  H   H8        1.0  0.459693556828092  0.3542201717084462  0.8879353996698782  1.0000
  H   H9        1.0  0.4586414555632921  0.5769694718581642  0.6902939799054916  1.0000
  H   H10       1.0  0.532040069117733  0.5117948624529284  0.7786565755026569  1.0000
  C   C16       1.0  0.8258782252780558  0.02514522205704917  0.560226433756265  1.0000
  C   C17       1.0  0.8101627665982771  0.0350727941569451  0.42688287502546873  1.0000
  C   C18       1.0  0.8022452238379131  0.9229756371820003  0.3591098376155001  1.0000
  C   C19       1.0  0.8102545447756645  0.7998193997316759  0.4264775240548979  1.0000
  C   C20       1.0  0.8259761414331218  0.7879362476924977  0.5599057847142997  1.0000
  C   C21       1.0  0.8336924100632682  0.9011173394609563  0.6259586667327843  1.0000
  C   C22       1.0  0.785620333615636  0.9345234137163952  0.2180484323449381  1.0000
  C   C23       1.0  0.8181536920042651  0.8529617331499599  0.1325610519043423  1.0000
  C   C24       1.0  0.8024828900540387  0.8639557228311702  0.9997996945856528  1.0000
  C   C25       1.0  0.7541177816935035  0.9564151950177722  0.9507227985241902  1.0000
  C   C26       1.0  0.7214589011993111  0.03795987958770697  0.03492727996206278  1.0000
  C   C27       1.0  0.737080666770317  0.027208055597048197  0.16770999044104262  1.0000
  C   C28       1.0  0.738010056947686  0.9676093479313808  0.8140323219571942  1.0000
  C   C29       1.0  0.7245200111611177  0.976984343361183  0.6995560257775557  1.0000
  C   C30       1.0  0.7087233268347366  0.9879623370904599  0.5655054501060173  1.0000
  C   C31       1.0  0.6952355450087819  0.9973359081878814  0.4510476429020933  1.0000
  H   H11       1.0  0.8318876935818527  0.34880190184757254  0.6115304655446843  1.0000
  H   H12       1.0  0.8049697589672405  0.13023899875738712  0.37501589662971874  1.0000
  H   H13       1.0  0.8032863045163078  0.7130696785987447  0.37511984665477843  1.0000
  H   H14       1.0  0.8458121351041665  0.8927440944761623  0.7288108486524906  1.0000
  H   H15       1.0  0.8552239174524097  0.5582086757577757  0.8119264012640555  1.0000
  H   H16       1.0  0.8563638028185315  0.7818407618510034  0.1680938850928908  1.0000
  H   H17       1.0  0.8282094173286287  0.800575929530428  0.9354115759903103  1.0000
  H   H18       1.0  0.6837957291980906  0.10963549136095319  0.9980200201511389  1.0000
  H   H19       1.0  0.7105522966938105  0.09021308775120487  0.2313019710862818  1.0000
  H   H20       1.0  0.6833921866567355  0.005566694428514664  0.35054403662599265  1.0000
  C   C32       1.0  0.8258944104770118  0.406647433440591  0.17869712708833618  1.0000
  C   C33       1.0  0.8882505591434591  0.47450472045975617  0.17181393017353816  1.0000
  C   C34       1.0  0.9198799650140169  0.5087800914492744  0.05119589536840728  1.0000
  C   C35       1.0  0.8883166907567914  0.47428932378438576  0.936543858265848  1.0000
  C   C36       1.0  0.825959966338775  0.4064340525204899  0.941435100912013  1.0000
  C   C37       1.0  0.7950982643721769  0.3729920068833461  0.06297685352785765  1.0000
  C   C38       1.0  0.9858472978848711  0.5805651239986306  0.04496806830390554  1.0000
  C   C39       1.0  0.9966798843296937  0.683392881233304  0.12464566531525455  1.0000
  C   C40       1.0  0.05880431915384676  0.7508431447559041  0.11858194979692735  1.0000
  C   C41       1.0  0.11078671492305436  0.7165202398544204  0.0331755637821467  1.0000
  C   C42       1.0  0.10061769070116913  0.6145664955695593  0.9536348335967095  1.0000
  C   C43       1.0  0.03856300009279368  0.5468889522032865  0.9592921239304246  1.0000
  I   I1        1.0  0.20444795173844654  0.8184373807598668  0.024337238357454934  1.0000
  H   H21       1.0  0.8021139039678064  0.38085610549824567  0.5087685651216767  1.0000
  H   H22       1.0  0.9128483456874396  0.4992993855857293  0.2605762491400099  1.0000
  H   H23       1.0  0.9120070398660037  0.5020417313517015  0.8432228005153783  1.0000
  H   H24       1.0  0.7469929485690961  0.32064434245038576  0.06751856985534666  1.0000
  H   H25       1.0  0.8022099072171668  0.3805421635040691  0.6158480603311141  1.0000
  H   H26       1.0  0.9568016758308548  0.7127100402173803  0.19035504309249227  1.0000
  H   H27       1.0  0.06642637014616518  0.8299860375470514  0.18007136795342935  1.0000
  H   H28       1.0  0.14083397890457205  0.5874795095940518  0.8876305740269381  1.0000
  H   H29       1.0  0.032136106863513536  0.4671830443650027  0.8979539325670012  1.0000
  Zn  Zn1       1.0  0.7505633683419602  0.40793471274991605  0.5606928794218353  1.0000
  Zn  Zn2       1.0  0.9012844198715877  0.40514626743410054  0.559438769520229  1.0000
  C   C44       1.0  0.8259453728061127  0.40130030475405337  0.7972634494302251  1.0000
  C   C45       1.0  0.8259040614979613  0.4117822836999103  0.32286831259453685  1.0000
  C   C46       1.0  0.8259536539504111  0.6437540306906422  0.5547912289784012  1.0000
  C   C47       1.0  0.8258957287287328  0.16932699826360212  0.5653406033689437  1.0000
  O   O1        1.0  0.8831051533074872  0.41244171967830306  0.3707775536807181  1.0000
  O   O2        1.0  0.8831380715019231  0.3985235236021045  0.7484019945126728  1.0000
  O   O3        1.0  0.8831439876923061  0.5943079874290252  0.5526039668147343  1.0000
  O   O4        1.0  0.8830991856790434  0.21665726612112324  0.5665754844280113  1.0000
  O   O5        1.0  0.7687485511008061  0.5964237150158691  0.5535561649351874  1.0000
  O   O6        1.0  0.7687426351016551  0.40064081164164317  0.7493541227316766  1.0000
  O   O7        1.0  0.7687097168129601  0.4145589628940985  0.3717281205174632  1.0000
  O   O8        1.0  0.7687037491888792  0.21877450002015308  0.5675261486365355  1.0000
