data_image0
_chemical_formula_structural       NC5NC3H4C10H6C6BrH3Zn2C4O8
_chemical_formula_sum              "N2 C28 H13 Br1 Zn2 O8"
_cell_length_a       13.859018345313864
_cell_length_b       9.275150299802176
_cell_length_c       9.275428193871798
_cell_angle_alpha    85.84136921910526
_cell_angle_beta     89.94092420878668
_cell_angle_gamma    89.48388887768701

_space_group_name_H-M_alt    "P 1"
_space_group_IT_number       1

loop_
  _space_group_symop_operation_xyz
  'x, y, z'

loop_
  _atom_site_type_symbol
  _atom_site_label
  _atom_site_symmetry_multiplicity
  _atom_site_fract_x
  _atom_site_fract_y
  _atom_site_fract_z
  _atom_site_occupancy
  N   N1        1.0  0.9002759895049326  0.5621102996299709  0.40168355016278756  1.0000
  C   C1        1.0  0.8281211626216158  0.5230939770325743  0.4531411697366265  1.0000
  C   C2        1.0  0.7383647797275152  0.47456289814443925  0.5171476035695033  1.0000
  C   C3        1.0  0.6505074577869575  0.5218750197156538  0.4547491676274473  1.0000
  C   C4        1.0  0.5631344771024106  0.474562606236816  0.5171474797161861  1.0000
  C   C5        1.0  0.4728812837491749  0.5230938632626821  0.45314107310240964  1.0000
  N   N2        1.0  0.40032708720377297  0.5621102649842475  0.40168348135643844  1.0000
  C   C6        1.0  0.5638013693954489  0.37992408056021176  0.6419628961585429  1.0000
  C   C7        1.0  0.6514752178313101  0.33279408557108126  0.7041212076147356  1.0000
  C   C8        1.0  0.7386667110160937  0.3799243780150714  0.6419630980598579  1.0000
  H   H1        1.0  0.6501324715518605  0.5951278202955501  0.3581386778529081  1.0000
  H   H2        1.0  0.4966965035186364  0.34268459615593416  0.6910763113812382  1.0000
  H   H3        1.0  0.6518493798454092  0.25969000345845306  0.8005357521085064  1.0000
  H   H4        1.0  0.806152761670782  0.34268513086305075  0.6910767335104655  1.0000
  C   C9        1.0  0.15285022474138032  0.13843030232231748  0.40409578871024693  1.0000
  C   C10       1.0  0.20367458993067283  0.2193266256575861  0.29508329312452086  1.0000
  C   C11       1.0  0.24622816235183098  0.15196259524731673  0.18053092545577942  1.0000
  C   C12       1.0  0.23838940839715578  0.0027207076137105695  0.17351556672882795  1.0000
  C   C13       1.0  0.18967207603152467  0.9203736776470125  0.28188047255316295  1.0000
  C   C14       1.0  0.14776209460034923  0.9857792209153748  0.3992838083654069  1.0000
  C   C15       1.0  0.2970661228520674  0.23657463112759047  0.06902597018696288  1.0000
  C   C16       1.0  0.3396303399478715  0.3074398841782835  0.9756730818799094  1.0000
  C   C17       1.0  0.3894710631818328  0.3904280803870597  0.8663609209926765  1.0000
  C   C18       1.0  0.43202707342524316  0.46128804101020743  0.7730259277781402  1.0000
  H   H5        1.0  0.10692425583273057  0.40317993337300984  0.6329088348719503  1.0000
  H   H6        1.0  0.2083089345956699  0.33579858895112435  0.29730928859561745  1.0000
  H   H7        1.0  0.27080080959708863  0.9496358130787549  0.08487610235463938  1.0000
  H   H8        1.0  0.18672589891269922  0.804307664697658  0.2756595396857624  1.0000
  H   H9        1.0  0.08480665603909632  0.8589379699980656  0.7416374969682837  1.0000
  H   H10       1.0  0.46939480031269487  0.5235091041307771  0.6910700947565974  1.0000
  C   C19       1.0  0.15062457385839287  0.5576159421360003  0.9785615958872289  1.0000
  C   C20       1.0  0.2394918165519391  0.5603019354455314  0.05159165849170999  1.0000
  C   C21       1.0  0.3259744600532835  0.5761542706307667  0.9749648907285797  1.0000
  C   C22       1.0  0.3249517030088691  0.5897410326719186  0.824330490259205  1.0000
  C   C23       1.0  0.2377831733584117  0.5849735804159268  0.7498051011781546  1.0000
  C   C24       1.0  0.1499878011147311  0.5665936207739439  0.8248180019378424  1.0000
  Br  Br1       1.0  0.4455761708101049  0.5816699555811327  0.07649748834615622  1.0000
  H   H11       1.0  0.918068649958341  0.6291070020114964  0.07672098117821236  1.0000
  H   H12       1.0  0.39186708091898903  0.6026341936356686  0.7646773969924854  1.0000
  H   H13       1.0  0.9931287248814589  0.6086238573009468  0.5408432271389437  1.0000
  Zn  Zn1       1.0  0.044579950010750435  0.5621065053343135  0.40169188238260367  1.0000
  Zn  Zn2       1.0  0.2560231653637053  0.5621023439858148  0.40168705099269125  1.0000
  C   C25       1.0  0.15014050321923128  0.559148962821991  0.6648900558427855  1.0000
  C   C26       1.0  0.15046491007103313  0.5650617083698031  0.1384890085656618  1.0000
  C   C27       1.0  0.14872323797851322  0.82555134673798  0.3944515261631478  1.0000
  C   C28       1.0  0.15188211351181624  0.29865759185931773  0.40892762491091433  1.0000
  O   O1        1.0  0.23065296152205206  0.5675527019966995  0.19216031147289156  1.0000
  O   O2        1.0  0.2304329666059108  0.5566537180094384  0.6112146774218126  1.0000
  O   O3        1.0  0.22928742417772652  0.7717770280552749  0.39283364281347666  1.0000
  O   O4        1.0  0.23179843181831192  0.35242940112708143  0.41054123798722686  1.0000
  O   O5        1.0  0.06880461140094751  0.771779448195957  0.3928376953821291  1.0000
  O   O6        1.0  0.06995014347387138  0.5566578707475269  0.6112186433189111  1.0000
  O   O7        1.0  0.07017014005967588  0.5675567860797031  0.19216254528394483  1.0000
  O   O8        1.0  0.07131561033266398  0.3524334760367765  0.4105435798863414  1.0000
