data_image0
_chemical_formula_structural       NC12NC2H8C7OC3OC4H12C6NCOC6H11Zn2C4O8
_chemical_formula_sum              "N3 C45 H31 O11 Zn2"
_cell_length_a       19.240039667572717
_cell_length_b       10.299371110280156
_cell_length_c       10.299662537453276
_cell_angle_alpha    85.55769285269642
_cell_angle_beta     89.98643935911939
_cell_angle_gamma    90.01145957794125

_space_group_name_H-M_alt    "P 1"
_space_group_IT_number       1

loop_
  _space_group_symop_operation_xyz
  'x, y, z'

loop_
  _atom_site_type_symbol
  _atom_site_label
  _atom_site_symmetry_multiplicity
  _atom_site_fract_x
  _atom_site_fract_y
  _atom_site_fract_z
  _atom_site_occupancy
  N   N1        1.0  0.6548107910800809  0.42182310763879527  0.567928454408811  1.0000
  C   C1        1.0  0.5946624222821723  0.421823191651473  0.5679283725001578  1.0000
  C   C2        1.0  0.5198443851709629  0.42182330898970194  0.5679282352345747  1.0000
  C   C3        1.0  0.483350666000995  0.35731855883980174  0.6713192140935687  1.0000
  C   C4        1.0  0.4106798950657599  0.35720764423438855  0.6714057185150928  1.0000
  C   C5        1.0  0.3735121502723939  0.4218234016414608  0.5679280075816655  1.0000
  C   C6        1.0  0.4107200838615983  0.4864393459623735  0.46445049125878585  1.0000
  C   C7        1.0  0.4833907494493565  0.486328195809856  0.4645371180993978  1.0000
  C   C8        1.0  0.29630705983644073  0.4218233230159334  0.567927912136434  1.0000
  C   C9        1.0  0.2591018228429064  0.30854606611912727  0.609758968584138  1.0000
  C   C10       1.0  0.1864311574737768  0.30865300149052466  0.6096676796708644  1.0000
  C   C11       1.0  0.1499747728916999  0.4218231938192889  0.567927973001704  1.0000
  C   C12       1.0  0.07515673569305989  0.42182307998169377  0.5679282216263288  1.0000
  N   N2        1.0  0.015008418810177204  0.4218230390790392  0.56792843003481  1.0000
  C   C13       1.0  0.18646589918105427  0.5349934619961083  0.5261882134679099  1.0000
  C   C14       1.0  0.2591366184538232  0.5351005775509943  0.5260967620214587  1.0000
  H   H1        1.0  0.5110499575808373  0.3073773218330227  0.7520441039200825  1.0000
  H   H2        1.0  0.38357095795610996  0.30806407435101946  0.7532464198616744  1.0000
  H   H3        1.0  0.3836424901924593  0.5355829429175729  0.38260973907252804  1.0000
  H   H4        1.0  0.5111212292869124  0.5362693324491541  0.3838125040374189  1.0000
  H   H5        1.0  0.28618160588775554  0.21937838098709173  0.6408953078102497  1.0000
  H   H6        1.0  0.15870278867712886  0.22038411026789137  0.6418373249875728  1.0000
  H   H7        1.0  0.1587644445254422  0.6232623286762389  0.49401858269313426  1.0000
  H   H8        1.0  0.2862433142403317  0.6242683418770401  0.4949603780512834  1.0000
  C   C15       1.0  0.8348660987390396  0.04045172858275303  0.567813621152746  1.0000
  C   C16       1.0  0.8268752583122176  0.049791949765717554  0.43182797323502675  1.0000
  C   C17       1.0  0.8220597959107832  0.9373159147904266  0.3634087651894691  1.0000
  C   C18       1.0  0.8269097175800849  0.8145239481548953  0.43213906044663725  1.0000
  C   C19       1.0  0.8349597892481128  0.8031844560270742  0.5680544743549316  1.0000
  C   C20       1.0  0.8387094255379551  0.9167457692571106  0.6351429742587986  1.0000
  C   C21       1.0  0.8143468680545435  0.9470505659750494  0.21966117081869818  1.0000
  O   O1        1.0  0.8428455289053002  0.8620367017833042  0.1556379682241329  1.0000
  C   C22       1.0  0.7742959119474147  0.05314734330710547  0.14855005666897703  1.0000
  C   C23       1.0  0.7937390134176283  0.09835684269605795  0.021406990664099675  1.0000
  C   C24       1.0  0.7561544562466239  0.19739712305499754  0.9520259217706588  1.0000
  O   O2        1.0  0.7783603988980937  0.23925357272031092  0.8259275700328274  1.0000
  C   C25       1.0  0.7452409071053863  0.33877036543562467  0.7444922628746959  1.0000
  C   C26       1.0  0.6978443078663531  0.251233171210957  0.010514254083836546  1.0000
  C   C27       1.0  0.6776878428871699  0.20573442401875022  0.13614025521009032  1.0000
  C   C28       1.0  0.7153958348451801  0.10697573707880582  0.20476914347977734  1.0000
  H   H9        1.0  0.8510062882147388  0.2301652933515177  0.8242076038104204  1.0000
  H   H10       1.0  0.825160993927807  0.14474703573204328  0.37879804550884577  1.0000
  H   H11       1.0  0.8237208194215321  0.7276841316242725  0.3794164024994533  1.0000
  H   H12       1.0  0.8448702253410062  0.9087413418767447  0.7399779448236519  1.0000
  H   H13       1.0  0.8386303958528055  0.47138108424166114  0.6201415469688216  1.0000
  H   H14       1.0  0.8386824896408346  0.05747847447496591  0.9760339601493455  1.0000
  H   H15       1.0  0.7736048332243423  0.351898087708655  0.6506209984127724  1.0000
  H   H16       1.0  0.7462589251151432  0.432208748360285  0.7915115095035987  1.0000
  H   H17       1.0  0.6907754274114379  0.3105447411565696  0.7247279741811545  1.0000
  H   H18       1.0  0.6676613503772011  0.3277522260880763  0.9596255876551435  1.0000
  H   H19       1.0  0.6324818419879386  0.24677467281790788  0.180291548710646  1.0000
  H   H20       1.0  0.698045648694186  0.07178994743962397  0.3011482074188898  1.0000
  C   C29       1.0  0.8349608016465309  0.4219586145367966  0.18655810085067182  1.0000
  C   C30       1.0  0.9059136594793016  0.4543333186212036  0.18275432616344944  1.0000
  C   C31       1.0  0.9418606630820283  0.4687584544191983  0.06415421012909706  1.0000
  C   C32       1.0  0.9057920044320457  0.45402324398627414  0.9476109317066115  1.0000
  C   C33       1.0  0.8348650998643349  0.421677544325018  0.9493099684445826  1.0000
  C   C34       1.0  0.7999092274240313  0.40538330945952966  0.06935185754487616  1.0000
  N   N3        1.0  0.014239729147041745  0.5038441795115467  0.06368170011454843  1.0000
  C   C35       1.0  0.06342477747429552  0.46399395771481644  0.9694561057278972  1.0000
  O   O3        1.0  0.050736130912925066  0.36543530991695183  0.9078734705720706  1.0000
  C   C36       1.0  0.1301633777581339  0.5343229714780551  0.9471278647783183  1.0000
  C   C37       1.0  0.13856403784930893  0.662393793162015  0.9835221148019859  1.0000
  C   C38       1.0  0.20162439989048697  0.7279496158326124  0.9613522116474956  1.0000
  C   C39       1.0  0.25678959473623775  0.6669223185887885  0.9023580988625789  1.0000
  C   C40       1.0  0.2489530875530528  0.5402978865362971  0.8649583375251844  1.0000
  C   C41       1.0  0.18601117279709234  0.47428502966731867  0.886799016881223  1.0000
  H   H21       1.0  0.7009599480459989  0.3620952422032526  0.40090408464739946  1.0000
  H   H22       1.0  0.933761771981058  0.46755254599258717  0.27217887098762494  1.0000
  H   H23       1.0  0.9327137436229247  0.4699872345200091  0.8555027671230473  1.0000
  H   H24       1.0  0.7452147661655125  0.3804091096806441  0.0714200215765477  1.0000
  H   H25       1.0  0.8074333498072637  0.4109504613805848  0.6223830123354377  1.0000
  H   H26       1.0  0.033213765622113645  0.5510482142020754  0.14261919281521385  1.0000
  H   H27       1.0  0.0963395232735127  0.712929253058523  0.02731193096228712  1.0000
  H   H28       1.0  0.20761542539949285  0.826429611901149  0.9894991606889083  1.0000
  H   H29       1.0  0.30552963092678476  0.7179006781974684  0.8852566718236207  1.0000
  H   H30       1.0  0.29169175939551484  0.49317975266727926  0.8189726196055965  1.0000
  H   H31       1.0  0.1812111329516195  0.37602765553520345  0.8572771005441231  1.0000
  Zn  Zn1       1.0  0.7587560535518257  0.4218196178702762  0.567935934843963  1.0000
  Zn  Zn2       1.0  0.9110631724781995  0.4218159313942249  0.5679315453497216  1.0000
  C   C42       1.0  0.8348809857210217  0.4165569729215322  0.8051319057282551  1.0000
  C   C43       1.0  0.8349399036832755  0.4270802148857887  0.33073570240369765  1.0000
  C   C44       1.0  0.8349391459121193  0.6590136327347482  0.5628336663471314  1.0000
  C   C45       1.0  0.8348816913200676  0.18462199473577523  0.5730340105335503  1.0000
  O   O4        1.0  0.8927326473173348  0.4287920059732677  0.37912135498437327  1.0000
  O   O5        1.0  0.8926858211318214  0.4148414042930275  0.7567425474607443  1.0000
  O   O6        1.0  0.8927320068838147  0.6106282228964315  0.5610850053090817  1.0000
  O   O7        1.0  0.8926864096066005  0.23300519669728414  0.5747787997640059  1.0000
  O   O8        1.0  0.777132764448481  0.6106303525698917  0.5610886804243465  1.0000
  O   O9        1.0  0.7770865788936541  0.41484509430595806  0.756746153821946  1.0000
  O   O10       1.0  0.7771334053157883  0.42879565130529174  0.3791233999018446  1.0000
  O   O11       1.0  0.7770871675888511  0.23300883270456188  0.5747809420481735  1.0000
