data_image0
_chemical_formula_structural       NC5N2C2NH4C10H6C6IH3Zn2C4O8
_chemical_formula_sum              "N4 C27 H13 I1 Zn2 O8"
_cell_length_a       13.87973921873968
_cell_length_b       9.275150299802176
_cell_length_c       9.275433903346869
_cell_angle_alpha    85.8435202653109
_cell_angle_beta     89.96562650524481
_cell_angle_gamma    89.48389152441209

_space_group_name_H-M_alt    "P 1"
_space_group_IT_number       1

loop_
  _space_group_symop_operation_xyz
  'x, y, z'

loop_
  _atom_site_type_symbol
  _atom_site_label
  _atom_site_symmetry_multiplicity
  _atom_site_fract_x
  _atom_site_fract_y
  _atom_site_fract_z
  _atom_site_occupancy
  N   N1        1.0  0.8984718555280188  0.5620563858949634  0.40168907136082654  1.0000
  C   C1        1.0  0.8252413318977009  0.5860005359061291  0.34493545372289125  1.0000
  C   C2        1.0  0.7342916830234101  0.6157415050416783  0.2744413290674823  1.0000
  C   C3        1.0  0.6480027426148465  0.585810292019169  0.3477826918626883  1.0000
  C   C4        1.0  0.5614122822410594  0.6157414408093509  0.2744413693200607  1.0000
  C   C5        1.0  0.47076421108000943  0.5860003900439446  0.34493535136035325  1.0000
  N   N2        1.0  0.39777642453415074  0.5620563611440026  0.40168906051172004  1.0000
  N   N3        1.0  0.562762037958442  0.6729322295304748  0.13541129196289825  1.0000
  C   C6        1.0  0.6474112585334465  0.7028322146311619  0.066111926628861  1.0000
  C   C7        1.0  0.6471185324773521  0.7617398336304699  0.9120844436207097  1.0000
  N   N4        1.0  0.7323649368958419  0.672932182960716  0.1354113029739057  1.0000
  H   H1        1.0  0.6482337666821409  0.5400469242721844  0.45873191858873685  1.0000
  H   H2        1.0  0.7117222854464383  0.8294032424820919  0.8893130649516299  1.0000
  H   H3        1.0  0.6476943995579131  0.6709893832358108  0.8404043788678384  1.0000
  H   H4        1.0  0.5817174779018291  0.8294011697030845  0.889312310961976  1.0000
  C   C8        1.0  0.15066972046429195  0.13837648619363674  0.40410131937775295  1.0000
  C   C9        1.0  0.20138682807836394  0.21926913168902895  0.29508919962137403  1.0000
  C   C10       1.0  0.24384389546130203  0.1519012358418499  0.18053722612022916  1.0000
  C   C11       1.0  0.23601482429502396  0.0026591108152009837  0.17352189080044678  1.0000
  C   C12       1.0  0.18740141751482065  0.9203157369555641  0.28188642315460233  1.0000
  C   C13       1.0  0.14558780105101565  0.9857252419723291  0.39928935510861185  1.0000
  C   C14       1.0  0.29457386055995993  0.23650950971874662  0.06903265519320145  1.0000
  C   C15       1.0  0.3370476596392162  0.30737161318865014  0.97568008866049  1.0000
  C   C16       1.0  0.38678250749628285  0.3903561213756746  0.8663683045569712  1.0000
  C   C17       1.0  0.429248117126692  0.46121293302178273  0.7730336330550918  1.0000
  H   H5        1.0  0.10487818460101916  0.40313384077394254  0.6329135809471935  1.0000
  H   H6        1.0  0.20601489501178238  0.3357411704454243  0.29731518781582555  1.0000
  H   H7        1.0  0.2683523213850212  0.9495712252112272  0.08488273139297742  1.0000
  H   H8        1.0  0.18445784782069707  0.8042495137518736  0.27566551132449013  1.0000
  H   H9        1.0  0.0828249047220373  0.8588955474901513  0.741641870195962  1.0000
  H   H10       1.0  0.466536464757076  0.5234312310804247  0.6910780825238372  1.0000
  C   C18       1.0  0.14832488930519827  0.5575477565985862  0.9785685795533694  1.0000
  C   C19       1.0  0.23709082335483675  0.5548467313435572  0.052038781255254074  1.0000
  C   C20       1.0  0.32382203789418806  0.5654407225794624  0.9758598759553548  1.0000
  C   C21       1.0  0.32317558870171376  0.5790725756308611  0.8252368190435448  1.0000
  C   C22       1.0  0.23605513751171325  0.5795927929774214  0.7502584803421977  1.0000
  C   C23       1.0  0.14793265230517516  0.5665539534916166  0.824822058128817  1.0000
  I   I1        1.0  0.4558028541410768  0.5635254280099102  0.08865514237191108  1.0000
  H   H11       1.0  0.918146166705114  0.6430223887678284  0.07557279852035803  1.0000
  H   H12       1.0  0.3903177022119415  0.5878921122647476  0.7659758005964612  1.0000
  H   H13       1.0  0.9925182089345711  0.6180335861475961  0.5400541908219623  1.0000
  Zn  Zn1       1.0  0.04256038895790093  0.5620526011081659  0.4016974136687854  1.0000
  Zn  Zn2       1.0  0.25368794213954726  0.5620484531172361  0.4016925971188421  1.0000
  C   C24       1.0  0.1480391217874355  0.5591039529153095  0.6648946957352355  1.0000
  C   C25       1.0  0.1482115038330154  0.5649989231863297  0.1384954460852572  1.0000
  C   C26       1.0  0.1465461184319776  0.8254972046818448  0.3944570894754722  1.0000
  C   C27       1.0  0.1497044455057472  0.2986039388282209  0.40893313901033523  1.0000
  O   O1        1.0  0.22829529451430616  0.567491734291679  0.19216657133228887  1.0000
  O   O2        1.0  0.2281962655318934  0.5566069007485928  0.6112195062390502  1.0000
  O   O3        1.0  0.2269895656660721  0.7717228365187776  0.3928392172987487  1.0000
  O   O4        1.0  0.22950192232477007  0.35237580769405774  0.4105467521789543  1.0000
  O   O5        1.0  0.06674633672519947  0.7717252465342498  0.39284325860272884  1.0000
  O   O6        1.0  0.06795302622626909  0.556611043358544  0.6112234608717717  1.0000
  O   O7        1.0  0.06805205637721823  0.5674958081880559  0.19216879388487995  1.0000
  O   O8        1.0  0.06925868419556203  0.35237987242077695  0.41054908281923796  1.0000
