data_image0
_chemical_formula_structural       NC6NC3H6C6NH5C6BrH4Zn2C4O8
_chemical_formula_sum              "N3 C25 H15 Br1 Zn2 O8"
_cell_length_a       14.934028789175542
_cell_length_b       9.274771166103582
_cell_length_c       9.27656775626242
_cell_angle_alpha    86.01325923358289
_cell_angle_beta     90.16168567554362
_cell_angle_gamma    90.55950156128424

_space_group_name_H-M_alt    "P 1"
_space_group_IT_number       1

loop_
  _space_group_symop_operation_xyz
  'x, y, z'

loop_
  _atom_site_type_symbol
  _atom_site_label
  _atom_site_symmetry_multiplicity
  _atom_site_fract_x
  _atom_site_fract_y
  _atom_site_fract_z
  _atom_site_occupancy
  N   N1        1.0  0.8500808489310728  0.5622006353792577  0.40725479352642147  1.0000
  C   C1        1.0  0.7725862596879921  0.5610955937410103  0.4065782673202716  1.0000
  C   C2        1.0  0.6761790464895895  0.5597158430276599  0.4057337507648655  1.0000
  C   C3        1.0  0.6292477238790815  0.6671707029341103  0.471398306086771  1.0000
  C   C4        1.0  0.535727428559721  0.6660628691249324  0.4707211913608176  1.0000
  C   C5        1.0  0.4882263314276939  0.5575550145593358  0.40441323219530384  1.0000
  C   C6        1.0  0.3915985765316375  0.5598831728187621  0.4058372303834621  1.0000
  N   N2        1.0  0.3141327531911851  0.5617308631370879  0.4069676806801783  1.0000
  C   C7        1.0  0.5351405821307182  0.4486135347384765  0.33783966744533866  1.0000
  C   C8        1.0  0.4859117514180497  0.3306429537113602  0.26575036290535237  1.0000
  C   C9        1.0  0.6293006901594171  0.45085180564156957  0.3392075037387703  1.0000
  H   H1        1.0  0.6649469411620519  0.751835170824714  0.5231364737889832  1.0000
  H   H2        1.0  0.5003416563578845  0.7500752964432431  0.5220607605191603  1.0000
  H   H3        1.0  0.44329509500400494  0.378856542176085  0.17709239359791185  1.0000
  H   H4        1.0  0.44292725800789423  0.268567578064429  0.345944163040794  1.0000
  H   H5        1.0  0.5327794801729862  0.2542316376709517  0.21904978047318013  1.0000
  H   H6        1.0  0.6661881684539342  0.36795699683499183  0.288551189080013  1.0000
  C   C10       1.0  0.07936368218621265  0.13837965887990442  0.4078982913997058  1.0000
  C   C11       1.0  0.05849036546844899  0.22044718641429759  0.27906062619660954  1.0000
  C   C12       1.0  0.04597560775401119  0.1541401057884224  0.1494002880690657  1.0000
  C   C13       1.0  0.054379153158613955  0.004378777713963673  0.14763838928010076  1.0000
  C   C14       1.0  0.07359298563005051  0.9209761610249737  0.27470705103753446  1.0000
  C   C15       1.0  0.08485849084585849  0.985540868935528  0.40633667107536114  1.0000
  N   N3        1.0  0.02564948551363242  0.23929270332372354  0.019146141748396465  1.0000
  H   H7        1.0  0.18079339849106413  0.22102666238875132  0.7231725435745152  1.0000
  H   H8        1.0  0.04517411130856394  0.9519234566289434  0.047877578328891175  1.0000
  H   H9        1.0  0.14955071790140972  0.6905109310166397  0.6208374614182164  1.0000
  H   H10       1.0  0.019480006541902725  0.35137239182963054  0.01910316013992941  1.0000
  H   H11       1.0  0.016533677409218406  0.1908777144546998  0.9217548488187663  1.0000
  C   C16       1.0  0.08122948541610286  0.5578158252156276  0.9839988841410157  1.0000
  C   C17       1.0  0.0018838191364130025  0.5926215549282379  0.05459494198797477  1.0000
  C   C18       1.0  0.926594248977761  0.6393049637835848  0.9758548075974454  1.0000
  C   C19       1.0  0.9292366228030885  0.65212806905805  0.8253337376266625  1.0000
  C   C20       1.0  0.006816733169359603  0.6157659215995566  0.7530145759370828  1.0000
  C   C21       1.0  0.08299270415954173  0.5661047120160725  0.8302360663988293  1.0000
  Br  Br1       1.0  0.8261966776097832  0.7171816799402169  0.7180277984669869  1.0000
  H   H12       1.0  0.20356243785803108  0.4266747385189648  0.27499837117362547  1.0000
  H   H13       1.0  0.9987035734127777  0.5870374177574524  0.17150458986361472  1.0000
  H   H14       1.0  0.8664046795933987  0.6668679090167078  0.03215884944280822  1.0000
  H   H15       1.0  0.23022845708800085  0.5510607739743589  0.5507776326644653  1.0000
  Zn  Zn1       1.0  0.983996210193231  0.5620612853601596  0.40718026031488197  1.0000
  Zn  Zn2       1.0  0.18021736990042314  0.5618585127782436  0.40705401574247757  1.0000
  C   C22       1.0  0.0826201228480774  0.5587914979035624  0.6702896975297983  1.0000
  C   C23       1.0  0.08159561207403666  0.5651301194191565  0.14394471521458274  1.0000
  C   C24       1.0  0.08380327186759096  0.8253531011982445  0.4008901144329436  1.0000
  C   C25       1.0  0.0804123850173799  0.29856678391934754  0.41334437836756854  1.0000
  O   O1        1.0  0.1561833542019866  0.5675016192985023  0.19757609968913403  1.0000
  O   O2        1.0  0.15695969276705135  0.5562650060867622  0.6165620835796816  1.0000
  O   O3        1.0  0.15791409986231653  0.7715168875910212  0.39902001206328097  1.0000
  O   O4        1.0  0.15522887999156243  0.3522497471238861  0.41511806319501043  1.0000
  O   O5        1.0  0.008984633141434724  0.7716700510852097  0.3991162128978478  1.0000
  O   O6        1.0  0.008030237122654606  0.5564199018567699  0.6166582043936182  1.0000
  O   O7        1.0  0.0072538946816900225  0.5676564478346029  0.19767048826351075  1.0000
  O   O8        1.0  0.0062994206257669366  0.35240456640103623  0.41521255981541105  1.0000
