data_image0
_chemical_formula_structural       NC9NC5H8C7OCH10C8H6Zn2C4O8
_chemical_formula_sum              "N2 C34 H24 O9 Zn2"
_cell_length_a       17.807436237873137
_cell_length_b       10.30083208314754
_cell_length_c       9.275144076552241
_cell_angle_alpha    85.93959476357365
_cell_angle_beta     89.86257050345318
_cell_angle_gamma    88.38439813745397

_space_group_name_H-M_alt    "P 1"
_space_group_IT_number       1

loop_
  _space_group_symop_operation_xyz
  'x, y, z'

loop_
  _atom_site_type_symbol
  _atom_site_label
  _atom_site_symmetry_multiplicity
  _atom_site_fract_x
  _atom_site_fract_y
  _atom_site_fract_z
  _atom_site_occupancy
  N   N1        1.0  0.7006392685227348  0.37790991878538005  0.39812726966956125  1.0000
  C   C1        1.0  0.6400025986506132  0.3426488952101558  0.3859058786179026  1.0000
  C   C2        1.0  0.5645772457947932  0.2987880649146666  0.370703795113541  1.0000
  C   C3        1.0  0.5460027982825939  0.22667129131570468  0.2541950935996746  1.0000
  C   C4        1.0  0.47276829636139434  0.18397376013420308  0.23934318849551928  1.0000
  C   C5        1.0  0.41705939434610656  0.21301528649564025  0.3409641119678726  1.0000
  C   C6        1.0  0.3392303716155908  0.16775426760318735  0.325271428493745  1.0000
  C   C7        1.0  0.2771697032157627  0.24967828413418425  0.35402835167312996  1.0000
  C   C8        1.0  0.2037929714246293  0.20677782449049298  0.3391917072591766  1.0000
  C   C9        1.0  0.1406837485843919  0.2913954154757945  0.3683514828197314  1.0000
  N   N2        1.0  0.0899569186753719  0.3594221118148997  0.3917951383029241  1.0000
  C   C10       1.0  0.1918932602338083  0.08169521958885895  0.29557010336934253  1.0000
  C   C11       1.0  0.25309652067971183  0.9997572953924936  0.26680387426303653  1.0000
  C   C12       1.0  0.3263529033407475  0.04226188248391227  0.2814158840883594  1.0000
  C   C13       1.0  0.43632623523651354  0.2856278619500632  0.4577159347788209  1.0000
  C   C14       1.0  0.5096128972732872  0.32813396580111526  0.4723951654495515  1.0000
  H   H1        1.0  0.5880663349417284  0.20370457019898613  0.17461433375793423  1.0000
  H   H2        1.0  0.45947414120838487  0.12973711375052632  0.1473355570067083  1.0000
  H   H3        1.0  0.2857955888609725  0.3473294615939415  0.38604014263279374  1.0000
  H   H4        1.0  0.1353810205209844  0.04759067306465313  0.28382443792048595  1.0000
  H   H5        1.0  0.2437666753364936  0.9029180547889614  0.23345951486425887  1.0000
  H   H6        1.0  0.3729091083832249  0.9763940898369519  0.26030023220837806  1.0000
  H   H7        1.0  0.3949856144223147  0.30806430649507166  0.5387335776440219  1.0000
  H   H8        1.0  0.5234305007595231  0.3835840711994944  0.5632463012278683  1.0000
  C   C15       1.0  0.8953232852070694  0.9873290445952384  0.39511207119060193  1.0000
  C   C16       1.0  0.8738003410217641  0.9968452498797188  0.249099660563475  1.0000
  C   C17       1.0  0.8620879402463534  0.8845340593234386  0.176026065601961  1.0000
  C   C18       1.0  0.873744520536757  0.761586569801868  0.24871972388690677  1.0000
  C   C19       1.0  0.8952801539562129  0.749992756232658  0.3948227621802542  1.0000
  C   C20       1.0  0.9057673635246364  0.8634109948048833  0.4672471387334436  1.0000
  C   C21       1.0  0.8412082663385041  0.8958045753554783  0.01870017209498264  1.0000
  O   O1        1.0  0.907585725380784  0.8980495899730097  0.9352194986528408  1.0000
  C   C22       1.0  0.8887399897730714  0.9086396109559643  0.7872294274958622  1.0000
  H   H9        1.0  0.9044182441467852  0.31106988550317016  0.4505913957587224  1.0000
  H   H10       1.0  0.8660728823474513  0.09153481345099346  0.19160181212342886  1.0000
  H   H11       1.0  0.8659780584139088  0.6751289266587259  0.19096106004848212  1.0000
  H   H12       1.0  0.9223731542322481  0.855308501080359  0.5798538949673913  1.0000
  H   H13       1.0  0.9367275859402611  0.5208605387560269  0.6699821411543279  1.0000
  H   H14       1.0  0.8065211050865713  0.9865713492521113  0.99516745250739  1.0000
  H   H15       1.0  0.8065498832033158  0.8114784365702745  0.9948364702755769  1.0000
  H   H16       1.0  0.9413964857428045  0.9102787415710638  0.7230610989267952  1.0000
  H   H17       1.0  0.8566167797008996  0.000884039242489583  0.7576930187593924  1.0000
  H   H18       1.0  0.8566283410402645  0.8233992276809943  0.7573356406006946  1.0000
  C   C23       1.0  0.8935323775433268  0.3660876243707545  0.9717116908869253  1.0000
  C   C24       1.0  0.8445475232875157  0.4531023444531725  0.03844992773857725  1.0000
  C   C25       1.0  0.8015901789403778  0.5462648461297017  0.9561787924084645  1.0000
  C   C26       1.0  0.8068406819490581  0.5543137764986928  0.8056597602861325  1.0000
  C   C27       1.0  0.8542659741558747  0.46727788690076766  0.7371910925269165  1.0000
  C   C28       1.0  0.897071037729206  0.3712342147481984  0.8182231604102745  1.0000
  C   C29       1.0  0.762792048222017  0.6510977908585783  0.721035102299131  1.0000
  C   C30       1.0  0.7259146367125836  0.7321286789488973  0.6501682452964634  1.0000
  H   H19       1.0  0.04971176954460455  0.18820466801383917  0.08784036278902008  1.0000
  H   H20       1.0  0.8407900014231441  0.45109783466840264  0.15518199599160787  1.0000
  H   H21       1.0  0.7647811908756983  0.6129419005055592  0.010191172322459696  1.0000
  H   H22       1.0  0.8564193623924415  0.47257160531676834  0.6200694055263698  1.0000
  H   H23       1.0  0.00059838482327623  0.2474200664602586  0.5467703900842591  1.0000
  H   H24       1.0  0.6935439245676761  0.8032565221655719  0.587960380386654  1.0000
  Zn  Zn1       1.0  0.8129879664815037  0.3725713227364831  0.3963082903765971  1.0000
  Zn  Zn2       1.0  0.9776082526516569  0.36475019462005465  0.3936259708653125  1.0000
  C   C31       1.0  0.8964007703935422  0.3650882067768295  0.6582163200558706  1.0000
  C   C32       1.0  0.8941972468866805  0.37223486451511434  0.13171805274003567  1.0000
  C   C33       1.0  0.8952604103032678  0.6057983474666777  0.38913391392660834  1.0000
  C   C34       1.0  0.8953375512130681  0.1315231667898702  0.40080053721977554  1.0000
  O   O2        1.0  0.9568929241082801  0.3713241918382302  0.18439972532786042  1.0000
  O   O3        1.0  0.9586480796419585  0.3600618420192878  0.6034984144887074  1.0000
  O   O4        1.0  0.95772638855249  0.5544383739443199  0.38621248094674576  1.0000
  O   O5        1.0  0.9578145585717083  0.17694767121442687  0.40168555171199616  1.0000
  O   O6        1.0  0.8327816043845964  0.5603738488124457  0.3882487104376755  1.0000
  O   O7        1.0  0.8337032950610958  0.3659988765931439  0.6055345665369216  1.0000
  O   O8        1.0  0.8319481323359502  0.37726117062203823  0.1864341444988067  1.0000
  O   O9        1.0  0.8328697672485624  0.18288464136734084  0.4037200789485309  1.0000
