data_image0
_chemical_formula_structural       NC9NC3NH7C6SCNH4C9H10Zn2C4O8
_chemical_formula_sum              "N4 C32 H21 S1 Zn2 O8"
_cell_length_a       16.053384444249904
_cell_length_b       10.302215558581763
_cell_length_c       9.272679976505533
_cell_angle_alpha    86.02649692228
_cell_angle_beta     90.20084585415952
_cell_angle_gamma    89.19414689339631

_space_group_name_H-M_alt    "P 1"
_space_group_IT_number       1

loop_
  _space_group_symop_operation_xyz
  'x, y, z'

loop_
  _atom_site_type_symbol
  _atom_site_label
  _atom_site_symmetry_multiplicity
  _atom_site_fract_x
  _atom_site_fract_y
  _atom_site_fract_z
  _atom_site_occupancy
  N   N1        1.0  0.7783975870503494  0.3921804199197332  0.40668653799958476  1.0000
  C   C1        1.0  0.7273102359452688  0.3707788453013658  0.32359824430694095  1.0000
  C   C2        1.0  0.6638227832760355  0.3441873155022515  0.2203823279642685  1.0000
  C   C3        1.0  0.6768648304033111  0.3310736534527676  0.07525865278406485  1.0000
  C   C4        1.0  0.6000063695104456  0.3053378352117795  0.01725067900801381  1.0000
  C   C5        1.0  0.5433558348346964  0.30418190326404626  0.130112505931834  1.0000
  C   C6        1.0  0.4526534390107202  0.2802853218959207  0.11873500111256541  1.0000
  C   C7        1.0  0.3971779402384467  0.3237332846801335  0.22298297029903116  1.0000
  C   C8        1.0  0.3115815973178311  0.3010688391871832  0.2120854978954392  1.0000
  C   C9        1.0  0.2553367901403708  0.34628005509203796  0.31896664887498544  1.0000
  N   N2        1.0  0.2101325607465475  0.3826234852270031  0.4048823563316877  1.0000
  C   C10       1.0  0.2807347594352002  0.23484458515069082  0.09695526176820192  1.0000
  C   C11       1.0  0.3352026589332187  0.19151788750108614  0.9929422731763343  1.0000
  C   C12       1.0  0.4205912636910576  0.21401349833067004  0.0033994928241203293  1.0000
  N   N3        1.0  0.583037960081437  0.32803473408838424  0.25394846064363175  1.0000
  H   H1        1.0  0.7353750560092477  0.339296190326684  0.017962635577366326  1.0000
  H   H2        1.0  0.5872999171904586  0.29076387288937466  0.9049378599417182  1.0000
  H   H3        1.0  0.4198564011174509  0.3768125215780833  0.31157070645091456  1.0000
  H   H4        1.0  0.2146717247468709  0.21681557920379269  0.08759241259329786  1.0000
  H   H5        1.0  0.3112331881866101  0.1400781220542451  0.9040951466046683  1.0000
  H   H6        1.0  0.4613820879393884  0.17799633995865924  0.9220854183339863  1.0000
  H   H7        1.0  0.5572807776219535  0.33113909934015484  0.3569174163904465  1.0000
  C   C13       1.0  0.9941861473194447  0.0061312174813470425  0.4057450746600755  1.0000
  C   C14       1.0  0.07785812906139533  0.0005378723896423109  0.4507597316796297  1.0000
  C   C15       1.0  0.1194987240894798  0.8807169554507757  0.47361685515777374  1.0000
  C   C16       1.0  0.07807514851245823  0.7653587489696876  0.4508808970674874  1.0000
  C   C17       1.0  0.9943519735231183  0.7686626179818679  0.4058361934379542  1.0000
  C   C18       1.0  0.9528581117192915  0.8895591993963815  0.3835715017953836  1.0000
  S   S1        1.0  0.22639575454759564  0.8750897288299578  0.530485808010836  1.0000
  C   C19       1.0  0.1996488409187882  0.8641946280967062  0.715340114935274  1.0000
  N   N4        1.0  0.18208852079881277  0.8570529133524387  0.8365280314222354  1.0000
  H   H8        1.0  0.1110049990337072  0.08890774977012561  0.468510248291093  1.0000
  H   H9        1.0  0.11137077655104388  0.6734441905405165  0.46871454027281945  1.0000
  H   H10       1.0  0.888326946314312  0.8930234966403605  0.3488746224549826  1.0000
  H   H11       1.0  0.8365689852880452  0.5676811244258704  0.3207837011373611  1.0000
  C   C20       1.0  0.992579412653127  0.38436844928238106  0.9824346728329898  1.0000
  C   C21       1.0  0.04917453700034535  0.30280295546966984  0.06245470760775995  1.0000
  C   C22       1.0  0.10987430401896248  0.23166784799222734  0.9935916249040285  1.0000
  C   C23       1.0  0.11603154813105676  0.23975759383493345  0.842704634214348  1.0000
  C   C24       1.0  0.05843611467273413  0.3195831166148768  0.7613042907373444  1.0000
  C   C25       1.0  0.9959587237474505  0.3904254347442566  0.8291466843471187  1.0000
  C   C26       1.0  0.18449787547670793  0.16003015140826912  0.7762608491059427  1.0000
  C   C27       1.0  0.16464903270586073  0.10105119803319051  0.6342367689600568  1.0000
  C   C28       1.0  0.22326808156590028  0.2160086363909699  0.6361873381380518  1.0000
  H   H12       1.0  0.8671671966880261  0.4749290734799696  0.2559202344723741  1.0000
  H   H13       1.0  0.04785433466421063  0.2962829349780749  0.17953403757598685  1.0000
  H   H14       1.0  0.1529866339038155  0.17071161133078736  0.059036632816503294  1.0000
  H   H15       1.0  0.06030077043633187  0.3251546533871512  0.6445182710587174  1.0000
  H   H16       1.0  0.8068591136989133  0.516755325946362  0.7152489216122389  1.0000
  H   H17       1.0  0.22802428553467433  0.10065996790643328  0.8482581892219496  1.0000
  H   H18       1.0  0.10277629634878083  0.12457715782904685  0.5848164005088915  1.0000
  H   H19       1.0  0.19698575295048815  0.006865045863522651  0.6197963745096575  1.0000
  H   H20       1.0  0.1970432367985686  0.30930458415359796  0.587834962923687  1.0000
  H   H21       1.0  0.2898747980577645  0.18900134982506378  0.6228830952317663  1.0000
  Zn  Zn1       1.0  0.9029870046446992  0.3894190918744957  0.4061742074958572  1.0000
  Zn  Zn2       1.0  0.08554316441829891  0.3853743198847008  0.40540646840170935  1.0000
  C   C29       1.0  0.9953169865055671  0.38410821369438625  0.6690993310726436  1.0000
  C   C30       1.0  0.9932151769860763  0.3906867931058542  0.14248147813702805  1.0000
  C   C31       1.0  0.9942934344192624  0.62448697358454  0.40007408257952093  1.0000
  C   C32       1.0  0.9942386667462012  0.15030647524495744  0.4115068035671526  1.0000
  O   O1        1.0  0.06270765530664707  0.39126665283879764  0.19590329438043  1.0000
  O   O2        1.0  0.06438040752178753  0.3804574831718948  0.6150944034991035  1.0000
  O   O3        1.0  0.0635529483348416  0.5745664032031432  0.39785461603166017  1.0000
  O   O4        1.0  0.06353505177014163  0.197157742702325  0.41314297401576394  1.0000
  O   O5        1.0  0.9249950549953685  0.577635670438513  0.3984377021362113  1.0000
  O   O6        1.0  0.925822514211006  0.3835283097596489  0.6156774129210614  1.0000
  O   O7        1.0  0.9241497551236185  0.39433742178179765  0.19648457049260973  1.0000
  O   O8        1.0  0.9249771520130767  0.20022850313219065  0.4137243582144622  1.0000
