data_image0
_chemical_formula_structural       NC9NC3NH7C7ONH7C8NH11Zn2C4O8
_chemical_formula_sum              "N5 C31 H25 O9 Zn2"
_cell_length_a       16.053384444249904
_cell_length_b       10.297852080636378
_cell_length_c       9.275652972338538
_cell_angle_alpha    85.93999439630132
_cell_angle_beta     90.23845156290304
_cell_angle_gamma    89.15396345524235

_space_group_name_H-M_alt    "P 1"
_space_group_IT_number       1

loop_
  _space_group_symop_operation_xyz
  'x, y, z'

loop_
  _atom_site_type_symbol
  _atom_site_label
  _atom_site_symmetry_multiplicity
  _atom_site_fract_x
  _atom_site_fract_y
  _atom_site_fract_z
  _atom_site_occupancy
  N   N1        1.0  0.7771467489250712  0.3948250656495234  0.4068614329018815  1.0000
  C   C1        1.0  0.7260365167886862  0.3735198745206868  0.3237939874616868  1.0000
  C   C2        1.0  0.6625206428038902  0.34704807405731386  0.22060397042429794  1.0000
  C   C3        1.0  0.6755117932140949  0.3341134784134856  0.07551368163926053  1.0000
  C   C4        1.0  0.5986422208458533  0.3084401812190216  0.01752160976894035  1.0000
  C   C5        1.0  0.5420363834173904  0.3071399740206078  0.13035888888623748  1.0000
  C   C6        1.0  0.4513402996837566  0.2832473279034111  0.11898685464439239  1.0000
  C   C7        1.0  0.3958860323179719  0.32658169390020514  0.22320659568249754  1.0000
  C   C8        1.0  0.3102956343013943  0.3039211165467268  0.212314335110092  1.0000
  C   C9        1.0  0.2540722948621404  0.3490161604969231  0.3191664618633885  1.0000
  N   N2        1.0  0.2088853218558239  0.3852662068793089  0.4050588383010416  1.0000
  C   C10       1.0  0.2794335662549188  0.23781425865468897  0.0972175495898846  1.0000
  C   C11       1.0  0.3338802716924768  0.1946009120468484  0.9932327226077556  1.0000
  C   C12       1.0  0.4192628352826248  0.21709314094414855  0.0036848478075159887  1.0000
  N   N3        1.0  0.5817562348895735  0.3308455995319428  0.25416477470686694  1.0000
  H   H1        1.0  0.7339958876732274  0.34241263226939417  0.018229173848852025  1.0000
  H   H2        1.0  0.5858983725388658  0.29400284533341114  0.9052351808964961  1.0000
  H   H3        1.0  0.4185752559389946  0.3795715372829706  0.3117683282263168  1.0000
  H   H4        1.0  0.2133749888743282  0.21978921396990184  0.08785899817106468  1.0000
  H   H5        1.0  0.3098991980859092  0.14325159484940508  0.9044114518494091  1.0000
  H   H6        1.0  0.4600380573330576  0.1811636488643662  0.9223930568801108  1.0000
  H   H7        1.0  0.5560379581218791  0.33382017337763625  0.3571108154943847  1.0000
  C   C13       1.0  0.9931088570704922  0.008606505557730246  0.405968339972889  1.0000
  C   C14       1.0  0.9810480188001244  0.01751080516308367  0.25544429481839237  1.0000
  C   C15       1.0  0.9741971682158714  0.9049499164776154  0.1792423057460488  1.0000
  C   C16       1.0  0.9808371930838812  0.7822629664284974  0.25539545065145886  1.0000
  C   C17       1.0  0.9929311923457939  0.7714747073440813  0.4059642893668294  1.0000
  C   C18       1.0  0.9987909020406217  0.8851662278483359  0.4803018877656377  1.0000
  C   C19       1.0  0.9616650497737903  0.9169506046566693  0.020238561664500446  1.0000
  O   O1        1.0  0.9836074076399248  0.019140545607049482  0.9483711615068238  1.0000
  N   N4        1.0  0.9241201609791307  0.8155275758618803  0.9459782817185909  1.0000
  H   H8        1.0  0.01620521037541423  0.19904370368943528  0.6903811385597272  1.0000
  H   H9        1.0  0.9762297066194421  0.11239709309984104  0.19736375207100787  1.0000
  H   H10       1.0  0.9782274986772383  0.6947752738664777  0.19759727983985442  1.0000
  H   H11       1.0  0.008084261884914396  0.8775500703561079  0.5963126483388388  1.0000
  H   H12       1.0  0.017122259251225676  0.5437977245526793  0.6902411758295999  1.0000
  H   H13       1.0  0.9194296826864534  0.8240295956681639  0.8333809754765067  1.0000
  H   H14       1.0  0.8959128398405388  0.7363471123261429  0.0014797975252471846  1.0000
  C   C20       1.0  0.9911660327291499  0.3875500600765771  0.9827033606231969  1.0000
  C   C21       1.0  0.937110847853458  0.4737125903988173  0.04907565303655571  1.0000
  C   C22       1.0  0.8896317411255893  0.5673091072909031  0.9665732684688652  1.0000
  C   C23       1.0  0.895082806721744  0.5735166310480955  0.8157650933782268  1.0000
  C   C24       1.0  0.9473037187804413  0.48745253188981863  0.7479923817477164  1.0000
  C   C25       1.0  0.9948740733264005  0.3925311599217406  0.8292293111552022  1.0000
  C   C26       1.0  0.831140615793368  0.6574680430787629  0.03936065574744885  1.0000
  C   C27       1.0  0.7454983119813566  0.5958993674710102  0.06050598461381651  1.0000
  N   N5        1.0  0.688975328626895  0.6849308510106316  0.12894932679453786  1.0000
  H   H15       1.0  0.05227352154801612  0.19321132997464363  0.27905666217944924  1.0000
  H   H16       1.0  0.9331489962918109  0.47018646135765363  0.16591974781989635  1.0000
  H   H17       1.0  0.8581263888447171  0.6442989700140462  0.7503357601950795  1.0000
  H   H18       1.0  0.948806488265144  0.49299784479567027  0.630966199064753  1.0000
  H   H19       1.0  0.10914807395147541  0.2710328925593816  0.5582727934068807  1.0000
  H   H20       1.0  0.8572247932728615  0.6797140288401562  0.14596590853951927  1.0000
  H   H21       1.0  0.8244493529734988  0.7513939516280578  0.9730785131421729  1.0000
  H   H22       1.0  0.7194577372176126  0.5746960612874205  0.9534833889267147  1.0000
  H   H23       1.0  0.751400735610174  0.5027382242398438  0.12867459173724183  1.0000
  H   H24       1.0  0.630144492007509  0.6426142387840434  0.13359805778706524  1.0000
  H   H25       1.0  0.7084816100841366  0.6910003143205161  0.2359877716191114  1.0000
  Zn  Zn1       1.0  0.9017372099694755  0.39206317025884796  0.40634955899632885  1.0000
  Zn  Zn2       1.0  0.08429489141637836  0.38801758923897545  0.40558249250448614  1.0000
  C   C28       1.0  0.994172498829158  0.38641502899432906  0.6692178221496138  1.0000
  C   C29       1.0  0.9918615963189511  0.3936673260794148  0.14271436243513858  1.0000
  C   C30       1.0  0.9929353532035636  0.6272426755811562  0.40022144103151236  1.0000
  C   C31       1.0  0.9930986803503516  0.15283812073552827  0.41171082066778575  1.0000
  O   O2        1.0  0.061374723834994864  0.3941793927345627  0.19612441865543118  1.0000
  O   O3        1.0  0.06321642584483733  0.38283147760926706  0.6152251653021616  1.0000
  O   O4        1.0  0.0622164877478013  0.5773028774243949  0.39800868827238345  1.0000
  O   O5        1.0  0.06237459916191445  0.1997080029559397  0.4133407878754575  1.0000
  O   O6        1.0  0.9236574399259287  0.5803727579238112  0.3985912638795377  1.0000
  O   O7        1.0  0.924657377319148  0.38590291824766987  0.6158076640489509  1.0000
  O   O8        1.0  0.9228156677845736  0.3972507779106522  0.19670518447885027  1.0000
  O   O9        1.0  0.9238155435835997  0.2027793794774515  0.41392166176280953  1.0000
