data_image0
_chemical_formula_structural       NC8NC6H8C14H10C6N2C6H10Zn2C4O8
_chemical_formula_sum              "N4 C44 H28 Zn2 O8"
_cell_length_a       11.044818498471832
_cell_length_b       17.567807274406366
_cell_length_c       17.115540237637035
_cell_angle_alpha    85.90117347513414
_cell_angle_beta     90.72192815947751
_cell_angle_gamma    89.98264182044637

_space_group_name_H-M_alt    "P 1"
_space_group_IT_number       1

loop_
  _space_group_symop_operation_xyz
  'x, y, z'

loop_
  _atom_site_type_symbol
  _atom_site_label
  _atom_site_symmetry_multiplicity
  _atom_site_fract_x
  _atom_site_fract_y
  _atom_site_fract_z
  _atom_site_occupancy
  N   N1        1.0  0.12280127658184158  0.8283435090538801  0.13830870882007817  1.0000
  C   C1        1.0  0.06737963739184583  0.8660586588328948  0.09260177952608672  1.0000
  C   C2        1.0  0.9982257335247581  0.9131203637644421  0.0355677698190392  1.0000
  C   C3        1.0  0.0598330643938656  0.9594024376728468  0.9791965215529252  1.0000
  C   C4        1.0  0.9956186457124017  0.0055939020077926446  0.9232139170281581  1.0000
  C   C5        1.0  0.8683522975603543  0.006346214008492217  0.9226785089190577  1.0000
  C   C6        1.0  0.8066228862133157  0.9597898118535992  0.9793714241016827  1.0000
  C   C7        1.0  0.8706707954138839  0.9132957435395136  0.03564800469768081  1.0000
  C   C8        1.0  0.803833129816069  0.8661600517737378  0.09265525940177366  1.0000
  N   N2        1.0  0.750264963252081  0.8283919593058164  0.1383341511020577  1.0000
  C   C9        1.0  0.800153340840261  0.055548502204340704  0.8631647284906332  1.0000
  C   C10       1.0  0.6964663322596328  0.09560687752851328  0.8841995239848348  1.0000
  C   C11       1.0  0.6324789789036876  0.14190363988235458  0.8280560346676633  1.0000
  C   C12       1.0  0.671046632397636  0.1487191181680673  0.7504767215110313  1.0000
  C   C13       1.0  0.7737434590043974  0.10926927864414739  0.7288657284543352  1.0000
  C   C14       1.0  0.8381352975589905  0.06293242751365691  0.7847711990398571  1.0000
  H   H1        1.0  0.1579281897107587  0.9599585683810248  0.9786149222739162  1.0000
  H   H2        1.0  0.04562901061872359  0.04154289142505883  0.880938578964479  1.0000
  H   H3        1.0  0.7084815492858023  0.9588646345534159  0.9791660241565666  1.0000
  H   H4        1.0  0.6658361683765117  0.09193900909830742  0.9441954481877406  1.0000
  H   H5        1.0  0.553076681393126  0.17268044398516258  0.844781331556697  1.0000
  H   H6        1.0  0.6213606364502416  0.184571992135182  0.7071106789879746  1.0000
  H   H7        1.0  0.8033556188089568  0.11443362313956351  0.6686779307365203  1.0000
  H   H8        1.0  0.9165969143847064  0.03212286959561905  0.7665102823589671  1.0000
  C   C15       1.0  0.43668165112468577  0.6047775284365547  0.13833179028772094  1.0000
  C   C16       1.0  0.34322266167476934  0.5667820728781233  0.10041318769207808  1.0000
  C   C17       1.0  0.34341854441013936  0.4871854219933626  0.10038165220281214  1.0000
  C   C18       1.0  0.4368836976555681  0.44459910621888565  0.13822911522603687  1.0000
  C   C19       1.0  0.5303004976709764  0.48189708593961894  0.17611510911102463  1.0000
  C   C20       1.0  0.530328876746369  0.56148839471951  0.17619766040813534  1.0000
  C   C21       1.0  0.4368625032334834  0.3626818089735119  0.1382529686540257  1.0000
  C   C22       1.0  0.4367858307220264  0.294055840513098  0.13828293574499995  1.0000
  C   C23       1.0  0.4366415064866055  0.212138153411329  0.13831639395827955  1.0000
  C   C24       1.0  0.5462017743583587  0.17202481487396631  0.13932986786671658  1.0000
  C   C25       1.0  0.5461735338769758  0.09242554867549631  0.13931510420632232  1.0000
  C   C26       1.0  0.4363963094705079  0.0519521111242819  0.13831779363186503  1.0000
  C   C27       1.0  0.3266687580300405  0.09276594334635951  0.1373295768514171  1.0000
  C   C28       1.0  0.32693787666902135  0.1723623539552874  0.13732764433966782  1.0000
  H   H9        1.0  0.34216350088411485  0.7890575122159319  0.10001663169233987  1.0000
  H   H10       1.0  0.26992831629032943  0.5984728705546815  0.07076642195902749  1.0000
  H   H11       1.0  0.270697411713122  0.4588736095787322  0.07085164992882076  1.0000
  H   H12       1.0  0.6030569497564067  0.4494698254328179  0.2056157486640714  1.0000
  H   H13       1.0  0.6035786806421555  0.5890704317221581  0.20589560446975674  1.0000
  H   H14       1.0  0.631631175330191  0.20226575932143162  0.14010488564513612  1.0000
  H   H15       1.0  0.6320705188650837  0.06267117468893642  0.1400682675020246  1.0000
  H   H16       1.0  0.24068871832223418  0.06324338418953368  0.136580002407222  1.0000
  H   H17       1.0  0.24163800000710722  0.202858480765737  0.13657568718046476  1.0000
  H   H18       1.0  0.5468617662549737  0.8701928717019363  0.13905348836793185  1.0000
  C   C29       1.0  0.43208527515508777  0.8270281205725708  0.9089137192591661  1.0000
  C   C30       1.0  0.525093921750321  0.8549459794283554  0.8594435472558271  1.0000
  C   C31       1.0  0.514280315603987  0.851700133201255  0.7782673600460439  1.0000
  C   C32       1.0  0.4100570431248869  0.8204161266410755  0.745207588720691  1.0000
  C   C33       1.0  0.3173684436501962  0.7925945666705358  0.7943197148563752  1.0000
  C   C34       1.0  0.3280186828530445  0.7957914924889138  0.8754972693382721  1.0000
  N   N3        1.0  0.3960894897977598  0.8162230995656449  0.6623006415852077  1.0000
  N   N4        1.0  0.47688510025548025  0.8404757743864526  0.6143573861063034  1.0000
  C   C35       1.0  0.4629173646957065  0.8362828092442791  0.5314503814411469  1.0000
  C   C36       1.0  0.5556073922435509  0.8641049159011551  0.48233720957395354  1.0000
  C   C37       1.0  0.5449753498949332  0.8609134014315987  0.4011550636541148  1.0000
  C   C38       1.0  0.4409926200832796  0.8297015518932508  0.3677359121900127  1.0000
  C   C39       1.0  0.34790153509499233  0.80175883536906  0.41721688030221893  1.0000
  C   C40       1.0  0.3586960998873862  0.8049991292164459  0.4983914376560714  1.0000
  H   H19       1.0  0.5562306310518266  0.8642893229120546  0.0860392140077787  1.0000
  H   H20       1.0  0.6063277473566491  0.8793292377889949  0.8833817452965247  1.0000
  H   H21       1.0  0.5872444154037244  0.8736011949318189  0.7415015082596899  1.0000
  H   H22       1.0  0.23663075856951638  0.7683601867197425  0.7695424594935687  1.0000
  H   H23       1.0  0.254791721664185  0.7738114603999192  0.9120297863110612  1.0000
  H   H24       1.0  0.6363420050375108  0.8883385207331975  0.5071194369349035  1.0000
  H   H25       1.0  0.6182200238816091  0.8828987952254702  0.3646537993012413  1.0000
  H   H26       1.0  0.2666772016905714  0.7773780944667477  0.39324523135256495  1.0000
  H   H27       1.0  0.2857281183773812  0.7830967762318702  0.535153158542273  1.0000
  H   H28       1.0  0.5160821446446051  0.8522426904382369  0.17438098035160565  1.0000
  Zn  Zn1       1.0  0.30387382833225685  0.8283554804994122  0.13832055846913205  1.0000
  Zn  Zn2       1.0  0.569192506148401  0.8283738012848066  0.1383286872767756  1.0000
  C   C41       1.0  0.4393082053052664  0.82616295712241  0.2810087665321942  1.0000
  C   C42       1.0  0.43376102732260224  0.8305672860039294  0.9956405559494353  1.0000
  C   C43       1.0  0.43638355488361724  0.9674084659322258  0.13520735073248202  1.0000
  C   C44       1.0  0.4366855886018859  0.6893208626512097  0.1414420134252089  1.0000
  O   O1        1.0  0.5350104826893127  0.8317586931664082  0.0247499595460755  1.0000
  O   O2        1.0  0.5394294833454134  0.8249848793068592  0.251905307644697  1.0000
  O   O3        1.0  0.5370664496029884  0.93904241860343  0.13416963275089522  1.0000
  O   O4        1.0  0.5373734247558111  0.7177011589689881  0.14248557586155597  1.0000
  O   O5        1.0  0.335692819184523  0.9390281228097836  0.13416366987746842  1.0000
  O   O6        1.0  0.3380558515289893  0.8249714980506702  0.25189930308832575  1.0000
  O   O7        1.0  0.3336368327360397  0.8317452799046711  0.02474301573563309  1.0000
  O   O8        1.0  0.335999775938141  0.7176877406026534  0.14247869062255203  1.0000
