data_image0
_chemical_formula_structural       NC8NC6H8C7OCH10C8H6Zn2C4O8
_chemical_formula_sum              "N2 C34 H24 O9 Zn2"
_cell_length_a       17.457602349358154
_cell_length_b       10.300832083147542
_cell_length_c       9.275144076552241
_cell_angle_alpha    85.93959476357365
_cell_angle_beta     93.32514331016303
_cell_angle_gamma    91.68357009181102

_space_group_name_H-M_alt    "P 1"
_space_group_IT_number       1

loop_
  _space_group_symop_operation_xyz
  'x, y, z'

loop_
  _atom_site_type_symbol
  _atom_site_label
  _atom_site_symmetry_multiplicity
  _atom_site_fract_x
  _atom_site_fract_y
  _atom_site_fract_z
  _atom_site_occupancy
  N   N1        1.0  0.7158305656545644  0.4428387332975044  0.47439591374361956  1.0000
  C   C1        1.0  0.6547049691315371  0.3968417237795064  0.4626265664567992  1.0000
  C   C2        1.0  0.5786621889226263  0.33962722624078956  0.4479960910385883  1.0000
  C   C3        1.0  0.5204862559244735  0.38032266427970374  0.531142416322536  1.0000
  C   C4        1.0  0.4458843484468746  0.3252306363063811  0.5171933587879592  1.0000
  C   C5        1.0  0.3841383489405346  0.36820073700819883  0.6052485200321288  1.0000
  C   C6        1.0  0.3093262961890439  0.3862672601250622  0.5433250048267001  1.0000
  C   C7        1.0  0.251150882687262  0.4267795648212906  0.6265912661906998  1.0000
  C   C8        1.0  0.17489013821393  0.44543598671223245  0.5622076048761806  1.0000
  N   N2        1.0  0.11358941724951944  0.46042937190741223  0.510443311352978  1.0000
  C   C9        1.0  0.26729775556835395  0.4494721134526404  0.7723455759115833  1.0000
  C   C10       1.0  0.3413269190481921  0.43179732106067337  0.8346993064349368  1.0000
  C   C11       1.0  0.3994928868363477  0.3914683377913361  0.7519412014467988  1.0000
  C   C12       1.0  0.4307402668757447  0.22875553385220984  0.41850721060800766  1.0000
  C   C13       1.0  0.48890636164516904  0.18834161937152816  0.3358049171443718  1.0000
  C   C14       1.0  0.5627261037497523  0.24354995827168358  0.35036456202548494  1.0000
  H   H1        1.0  0.5331417804170008  0.4559879247560745  0.605096100746209  1.0000
  H   H2        1.0  0.2964985607389744  0.37056635974568725  0.430049024451546  1.0000
  H   H3        1.0  0.22271388218800384  0.48077410217117006  0.8376613893100375  1.0000
  H   H4        1.0  0.3536390841404538  0.4490530551966967  0.9475602406268194  1.0000
  H   H5        1.0  0.45619791434790313  0.37680878135099083  0.8031407697751566  1.0000
  H   H6        1.0  0.3742077430874576  0.18334787713971967  0.4066975340119183  1.0000
  H   H7        1.0  0.47675890230574947  0.11378411582242888  0.2605202596158798  1.0000
  H   H8        1.0  0.607312494077055  0.21138202192361955  0.28561660583545306  1.0000
  C   C15       1.0  0.9147357313340246  0.0702993862892809  0.4925731985331365  1.0000
  C   C16       1.0  0.892746125551289  0.07782104271881488  0.34421789072162  1.0000
  C   C17       1.0  0.8807797758919093  0.9644244543956614  0.2698693330708519  1.0000
  C   C18       1.0  0.892689094763617  0.8425571897109271  0.3438318776618192  1.0000
  C   C19       1.0  0.9146916649091386  0.8329591009183791  0.4922791944362186  1.0000
  C   C20       1.0  0.9254062587019345  0.947349197785464  0.5658451645166889  1.0000
  C   C21       1.0  0.8594473878063084  0.9737600339559066  0.1102705660764689  1.0000
  O   O1        1.0  0.9272640463746051  0.982156302035193  0.03401546366021346  1.0000
  C   C22       1.0  0.9080096965453572  0.9909998732734769  0.8839739249849936  1.0000
  H   H9        1.0  0.9240278876474274  0.39488306448670274  0.5490425620805226  1.0000
  H   H10       1.0  0.8848511197153062  0.17179449636954147  0.2858788636298679  1.0000
  H   H11       1.0  0.8847542398042955  0.7553798221657358  0.285227789420319  1.0000
  H   H12       1.0  0.9423720970290299  0.9407855762782436  0.6802595572876484  1.0000
  H   H13       1.0  0.9570377622733739  0.6076678508899046  0.7719503665395018  1.0000
  H   H14       1.0  0.8240081377164936  0.06131232022664947  0.08296194799971279  1.0000
  H   H15       1.0  0.824037539801865  0.8862220744364471  0.08263409843265569  1.0000
  H   H16       1.0  0.9618078934047422  0.9975187244713035  0.8255375611083569  1.0000
  H   H17       1.0  0.8751899893583956  0.08026741738862597  0.8509407187015126  1.0000
  H   H18       1.0  0.8752018013713232  0.902783677225913  0.8505845990615941  1.0000
  C   C23       1.0  0.912905993116988  0.4488920011856763  0.0689778675532533  1.0000
  C   C24       1.0  0.8628590466985037  0.5313672547283659  0.13038381918753017  1.0000
  C   C25       1.0  0.8189702989726373  0.6205488641421335  0.04343652801864106  1.0000
  C   C26       1.0  0.8243346436611662  0.6290843629226623  0.8934890435716537  1.0000
  C   C27       1.0  0.8727882135250389  0.5464434139728286  0.8301828936642501  1.0000
  C   C28       1.0  0.9165213787174246  0.45436652209906453  0.915874540741799  1.0000
  C   C29       1.0  0.7793309451621926  0.7217863543396923  0.8040694365736436  1.0000
  C   C30       1.0  0.7416539556946562  0.7993997825199616  0.7291882596503766  1.0000
  H   H19       1.0  0.07247167483445938  0.2854823169238982  0.2021075712207574  1.0000
  H   H20       1.0  0.8590200540492565  0.5290145323167597  0.24670685941351578  1.0000
  H   H21       1.0  0.7813632165105495  0.6838147994645738  0.09344203630046177  1.0000
  H   H22       1.0  0.8749882916375677  0.5519366886393366  0.7132956154505736  1.0000
  H   H23       1.0  0.022293411146205862  0.3401463378071423  0.6556913220127094  1.0000
  H   H24       1.0  0.7085813800821196  0.8675278053455893  0.6634566551588423  1.0000
  Zn  Zn1       1.0  0.8306152139371921  0.4479115830498453  0.4848067412025201  1.0000
  Zn  Zn2       1.0  0.99880480573078  0.45534595160035485  0.5000442936957745  1.0000
  C   C31       1.0  0.9158365786104604  0.4481583999050623  0.7557947379041963  1.0000
  C   C32       1.0  0.9135852781920926  0.45510085531630406  0.2290566042868225  1.0000
  C   C33       1.0  0.9146714931732813  0.6887628624919191  0.48658819697155004  1.0000
  C   C34       1.0  0.9147503066563082  0.21449483052636611  0.49826321749972424  1.0000
  O   O2        1.0  0.9776403263544083  0.46000024236618375  0.28856306461610215  1.0000
  O   O3        1.0  0.9794335372618325  0.44890054424720427  0.7078528126266408  1.0000
  O   O4        1.0  0.9784918620181312  0.6431916623045382  0.49046654766906045  1.0000
  O   O5        1.0  0.978581943744301  0.265709130362497  0.5059492162517842  1.0000
  O   O6        1.0  0.8508380185287857  0.6375484017520829  0.4789018134390966  1.0000
  O   O7        1.0  0.8517796933505642  0.4432588433622089  0.6962880009090076  1.0000
  O   O8        1.0  0.8499864750957468  0.45435848502470094  0.2769965192383681  1.0000
  O   O9        1.0  0.8509280929445624  0.26006736443174594  0.4943827789885345  1.0000
