data_image0
_chemical_formula_structural       NC8NH4C10H5C8H9Zn2C4O8
_chemical_formula_sum              "N2 C30 H18 Zn2 O8"
_cell_length_a       14.927258825633057
_cell_length_b       9.275150299802176
_cell_length_c       9.275657083861812
_cell_angle_alpha    85.52524859498646
_cell_angle_beta     89.50283437808949
_cell_angle_gamma    89.48389196497259

_space_group_name_H-M_alt    "P 1"
_space_group_IT_number       1

loop_
  _space_group_symop_operation_xyz
  'x, y, z'

loop_
  _atom_site_type_symbol
  _atom_site_label
  _atom_site_symmetry_multiplicity
  _atom_site_fract_x
  _atom_site_fract_y
  _atom_site_fract_z
  _atom_site_occupancy
  N   N1        1.0  0.8433980825890954  0.5708505712628993  0.40100617817742457  1.0000
  C   C1        1.0  0.765871658336533  0.570850544848164  0.40100618798016296  1.0000
  C   C2        1.0  0.6694390162937879  0.5708505448413086  0.40100624306615384  1.0000
  C   C3        1.0  0.6233649990255483  0.4820322611499104  0.31176381167651135  1.0000
  C   C4        1.0  0.5296536881241959  0.48203217112882796  0.3117637837202234  1.0000
  C   C5        1.0  0.48162301906567756  0.5708505974586591  0.40100615494275044  1.0000
  C   C6        1.0  0.527697036866007  0.6596688909144319  0.4902484781985237  1.0000
  C   C7        1.0  0.62140841475888  0.6596689809325771  0.49024850616075355  1.0000
  C   C8        1.0  0.3851903781635825  0.5708504995094916  0.401006100555773  1.0000
  N   N2        1.0  0.3076639533024598  0.5708505808014435  0.40100611169761047  1.0000
  H   H1        1.0  0.6598223017842715  0.41292642794326984  0.24232821168856877  1.0000
  H   H2        1.0  0.4947186455062021  0.41292640475739734  0.24232830905866234  1.0000
  H   H3        1.0  0.4912397341072837  0.7287747241210722  0.5596840781864658  1.0000
  H   H4        1.0  0.6563433898532633  0.7287747375425713  0.5596840889502419  1.0000
  C   C9        1.0  0.07788593719244874  0.14715740327060933  0.40341943888325105  1.0000
  C   C10       1.0  0.12558800431251194  0.2286498522734364  0.29436074343507257  1.0000
  C   C11       1.0  0.1656373259781463  0.16191224098106693  0.17975982809414148  1.0000
  C   C12       1.0  0.15839266981398037  0.012708715351858354  0.17274149624140578  1.0000
  C   C13       1.0  0.11264990824638896  0.929769101153197  0.28115232747636054  1.0000
  C   C14       1.0  0.07318465552970199  0.9945326351829805  0.3986054192094697  1.0000
  C   C15       1.0  0.21336378699864333  0.24713403224261365  0.06820761665078014  1.0000
  C   C16       1.0  0.25332286962512374  0.3185097776376653  0.9748151650761246  1.0000
  C   C17       1.0  0.30011310250328277  0.40209573811800653  0.8654566773279688  1.0000
  C   C18       1.0  0.34006448106910553  0.4734660932277151  0.7720821284298305  1.0000
  H   H5        1.0  0.12988018799866707  0.3451096433548515  0.2965876822870426  1.0000
  H   H6        1.0  0.18890324244064782  0.9601085375578233  0.08406446616944431  1.0000
  H   H7        1.0  0.10994394913965522  0.81373710638122  0.2749287581602826  1.0000
  H   H8        1.0  0.013117616594514605  0.8658192596880364  0.7411041983979789  1.0000
  H   H9        1.0  0.3751451237106842  0.5361353248633862  0.6900915622509949  1.0000
  C   C19       1.0  0.07782929462554476  0.5686700248807504  0.9777049033611225  1.0000
  C   C20       1.0  0.12362446563557294  0.6786549567533733  0.04202044307642417  1.0000
  C   C21       1.0  0.1614751640482679  0.7948151439004141  0.9576219347460672  1.0000
  C   C22       1.0  0.15486571787889508  0.8000060615102396  0.806953558526768  1.0000
  C   C23       1.0  0.11100185201944912  0.6906671139180721  0.7411817449162337  1.0000
  C   C24       1.0  0.07324132178543974  0.573020024858196  0.8243199773607541  1.0000
  C   C25       1.0  0.2113803620227075  0.9105157849658875  0.028164520594339278  1.0000
  C   C26       1.0  0.3100087195279706  0.8693449020311527  0.04624302326884379  1.0000
  H   H10       1.0  0.1282711757125361  0.6759800278423791  0.15876066521642107  1.0000
  H   H11       1.0  0.18457777353724425  0.8881900639464058  0.7400663412034234  1.0000
  H   H12       1.0  0.10866533770252906  0.6962898361187224  0.6241754814442579  1.0000
  H   H13       1.0  0.9683913428644512  0.40673489427669934  0.5574302759316008  1.0000
  H   H14       1.0  0.20589314916369528  0.015259549046753737  0.9617291507535862  1.0000
  H   H15       1.0  0.18149378088273527  0.9268563642655858  0.13594818484920526  1.0000
  H   H16       1.0  0.31695555432294986  0.7667052157153811  0.11557431610402037  1.0000
  H   H17       1.0  0.34160810295758726  0.8560660202360717  0.9391436467224068  1.0000
  H   H18       1.0  0.34555412856505274  0.9559552386172662  0.09831758535895418  1.0000
  Zn  Zn1       1.0  0.9773751691348448  0.5708467430292552  0.4010145138394745  1.0000
  Zn  Zn2       1.0  0.17368688141875488  0.5708426251353942  0.401009680271615  1.0000
  C   C27       1.0  0.07413843961901478  0.5664499418225462  0.6643242314304554  1.0000
  C   C28       1.0  0.07692574378563122  0.5752412474974151  0.13770009376931736  1.0000
  C   C29       1.0  0.07409983867686189  0.8343311858304924  0.3937710890705495  1.0000
  C   C30       1.0  0.07696428694113289  0.30735827042104735  0.40825332283156723  1.0000
  O   O1        1.0  0.15112181051651397  0.5774387525926916  0.19139414269044108  1.0000
  O   O2        1.0  0.14893842845528482  0.5642482207570609  0.6106261051694104  1.0000
  O   O3        1.0  0.14890624529778518  0.780565720836697  0.3921525200072551  1.0000
  O   O4        1.0  0.15115392721458298  0.36112126228036723  0.40986761971278574  1.0000
  O   O5        1.0  0.9999080563474964  0.7805681058872196  0.3921565743923623  1.0000
  O   O6        1.0  0.9999402303001267  0.5642523388789416  0.6106300728462322  1.0000
  O   O7        1.0  0.0021236220919138575  0.5774428115311883  0.19139637754715366  1.0000
  O   O8        1.0  0.002155738257892725  0.36112531145448945  0.40986996270336795  1.0000
