data_image0
_chemical_formula_structural       NC6NC2H4C6NH5C7F3H4Zn2C4O8
_chemical_formula_sum              "N3 C25 H13 F3 Zn2 O8"
_cell_length_a       14.927258858638513
_cell_length_b       9.274771166103582
_cell_length_c       10.299327507215196
_cell_angle_alpha    85.44807283694688
_cell_angle_beta     89.98118973128214
_cell_angle_gamma    90.59705168739299

_space_group_name_H-M_alt    "P 1"
_space_group_IT_number       1

loop_
  _space_group_symop_operation_xyz
  'x, y, z'

loop_
  _atom_site_type_symbol
  _atom_site_label
  _atom_site_symmetry_multiplicity
  _atom_site_fract_x
  _atom_site_fract_y
  _atom_site_fract_z
  _atom_site_occupancy
  N   N1        1.0  0.8541160437909643  0.5788806920799403  0.5648408990830625  1.0000
  C   C1        1.0  0.77658955243648  0.578880663561194  0.5648409086696717  1.0000
  C   C2        1.0  0.6801570456478563  0.5788807786970136  0.5648408635598356  1.0000
  C   C3        1.0  0.6329772015985141  0.5552012069363776  0.45074546598364246  1.0000
  C   C4        1.0  0.5392658904483622  0.5552012325975553  0.4507453457056976  1.0000
  C   C5        1.0  0.49234098050242214  0.5788806010970393  0.5648408806359424  1.0000
  C   C6        1.0  0.395908406722283  0.5788807162358249  0.5648408355207648  1.0000
  N   N2        1.0  0.31838191536779914  0.5788806877170785  0.5648408451073736  1.0000
  C   C7        1.0  0.5395207575602486  0.6025601728606411  0.6789362782067936  1.0000
  C   C8        1.0  0.6332320687104008  0.6025601471994639  0.6789363984847385  1.0000
  H   H1        1.0  0.6685742200261926  0.5367771650495841  0.36197269838025536  1.0000
  H   H2        1.0  0.5034705657954746  0.5367773626405576  0.36197269360851747  1.0000
  H   H3        1.0  0.5039238060314306  0.6209842044121828  0.7677091432037237  1.0000
  H   H4        1.0  0.6690273939688848  0.620984114496032  0.7677091495493173  1.0000
  C   C9        1.0  0.08350278937526828  0.15528401998739305  0.5655487776413322  1.0000
  C   C10       1.0  0.06291468136553281  0.23861061277054765  0.4494083177440906  1.0000
  C   C11       1.0  0.050690856601832285  0.17357918121016014  0.33253099633045213  1.0000
  C   C12       1.0  0.05910229603593223  0.023843813900625864  0.33094758144563036  1.0000
  C   C13       1.0  0.07803420483740145  0.9391980381811359  0.4454926110941781  1.0000
  C   C14       1.0  0.08900369685670009  0.002466274251651688  0.5641442632685965  1.0000
  N   N3        1.0  0.030653435726895283  0.26000546802234514  0.21511408542316632  1.0000
  H   H5        1.0  0.18425772406057417  0.23490066999451395  0.8497802099916771  1.0000
  H   H6        1.0  0.05012129313018576  0.972370405093437  0.24102227436843782  1.0000
  H   H7        1.0  0.1532348436777898  0.7053702539400316  0.757522274747544  1.0000
  H   H8        1.0  0.024481219440450668  0.37207937601751967  0.21507190328446832  1.0000
  H   H9        1.0  0.02175628571765653  0.21254893885523685  0.12732461139371298  1.0000
  C   C15       1.0  0.08633940469272577  0.5789337187205139  0.18346482805234543  1.0000
  C   C16       1.0  0.17377061727827203  0.6367721514715827  0.17809845931981605  1.0000
  C   C17       1.0  0.2172379658498509  0.6683977308460073  0.05809103051996378  1.0000
  C   C18       1.0  0.1735443600271236  0.6366191872172604  0.942861255278176  1.0000
  C   C19       1.0  0.08616709686485469  0.5788165618268346  0.9462281985962435  1.0000
  C   C20       1.0  0.04294177575153249  0.5508438075120516  0.06700213806633903  1.0000
  C   C21       1.0  0.3122934398073324  0.7255990062856432  0.05373385478365832  1.0000
  F   F1        1.0  0.3284885636349109  0.8098348973893563  0.15648536208535546  1.0000
  F   F2        1.0  0.37072013980718754  0.6105897068317137  0.06179348177268529  1.0000
  F   F3        1.0  0.32824233329700664  0.8098153262577196  0.9388419908839002  1.0000
  H   H10       1.0  0.9219385117359419  0.4673741293384293  0.40100188704022144  1.0000
  H   H11       1.0  0.20825721414111284  0.6570605380358701  0.2674613510634356  1.0000
  H   H12       1.0  0.20787573872777748  0.6567987709992646  0.8504477645068066  1.0000
  H   H13       1.0  0.9755536686891463  0.5062680707045295  0.07033331286460642  1.0000
  Zn  Zn1       1.0  0.9880931268198276  0.5788768244243135  0.5648483942833927  1.0000
  Zn  Zn2       1.0  0.18440476409481144  0.5788727383116381  0.5648440231269094  1.0000
  C   C22       1.0  0.08616033026899067  0.5730921441748713  0.8020591049596815  1.0000
  C   C23       1.0  0.08633971615176388  0.5846592385554688  0.3276334368561329  1.0000
  C   C24       1.0  0.08796045552575942  0.8423315590788386  0.5592343791310788  1.0000
  C   C25       1.0  0.08453951263880205  0.3154180905724575  0.5704582348004281  1.0000
  O   O1        1.0  0.1608390230773471  0.5865729315663781  0.37601609056938834  1.0000
  O   O2        1.0  0.16065700671161579  0.5711742617524393  0.7536727615853814  1.0000
  O   O3        1.0  0.16210962603160295  0.7885884940979666  0.5575900749892826  1.0000
  O   O4        1.0  0.15938633685850023  0.3691587095561033  0.5720986797719438  1.0000
  O   O5        1.0  0.013111487064623392  0.7885908531828141  0.557593737633016  1.0000
  O   O6        1.0  0.011658879009314397  0.5711783539192969  0.7536763521080803  1.0000
  O   O7        1.0  0.011840895461024967  0.5865769737061048  0.3760181197224792  1.0000
  O   O8        1.0  0.010388209149522652  0.3691627413635432  0.572100806313236  1.0000
