data_image0
_chemical_formula_structural       NC5NC4H6C6NH7C7F3H5Zn2C4O8
_chemical_formula_sum              "N3 C26 H18 F3 Zn2 O8"
_cell_length_a       13.854160002989762
_cell_length_b       9.274771166103582
_cell_length_c       10.299327507215196
_cell_angle_alpha    85.44807283694688
_cell_angle_beta     89.98119510094074
_cell_angle_gamma    90.59704847255895

_space_group_name_H-M_alt    "P 1"
_space_group_IT_number       1

loop_
  _space_group_symop_operation_xyz
  'x, y, z'

loop_
  _atom_site_type_symbol
  _atom_site_label
  _atom_site_symmetry_multiplicity
  _atom_site_fract_x
  _atom_site_fract_y
  _atom_site_fract_z
  _atom_site_occupancy
  N   N1        1.0  0.9202731359622276  0.5788806041649444  0.5648410213808852  1.0000
  C   C1        1.0  0.8481294114985065  0.6041056555462498  0.5116034971285346  1.0000
  C   C2        1.0  0.7583816053048644  0.6354863037390824  0.445373978974166  1.0000
  C   C3        1.0  0.6705888312657053  0.6059873127108473  0.5100393376017578  1.0000
  C   C4        1.0  0.5832391930387163  0.6354863180745266  0.4453739580739586  1.0000
  C   C5        1.0  0.4930212690859481  0.6041055081857261  0.5116035799147536  1.0000
  N   N2        1.0  0.4204995649213602  0.5788805406558386  0.5648410214072048  1.0000
  C   C6        1.0  0.5837191902063122  0.6950908178105535  0.3160593357410344  1.0000
  C   C7        1.0  0.6714942572007692  0.7267403605033607  0.25129725154228244  1.0000
  C   C8        1.0  0.671945826145036  0.786587663297742  0.11163156394927533  1.0000
  C   C9        1.0  0.7587962792526672  0.6950908164977005  0.3160592544097509  1.0000
  H   H1        1.0  0.6702418508291014  0.5597432724303547  0.6101266636995353  1.0000
  H   H2        1.0  0.5160105282835357  0.71688931134395  0.2658876978464979  1.0000
  H   H3        1.0  0.7372809489930786  0.8547647229389592  0.09008964699456823  1.0000
  H   H4        1.0  0.6075724713331295  0.8547647248069999  0.09008970562771346  1.0000
  H   H5        1.0  0.67133001871073  0.6960560210551223  0.047315810884317466  1.0000
  H   H6        1.0  0.8268334881692686  0.7168894238611513  0.2658876206992622  1.0000
  C   C10       1.0  0.16742744390624487  0.15528390846139595  0.5655489327842227  1.0000
  C   C11       1.0  0.14524464701420411  0.23861050336370518  0.44940846993904343  1.0000
  C   C12       1.0  0.13207400394934174  0.17357907306152787  0.3325311467751195  1.0000
  C   C13       1.0  0.14113696653182428  0.02384370488619547  0.3309477330947015  1.0000
  C   C14       1.0  0.1615352803313747  0.939197927218026  0.44549276545404176  1.0000
  C   C15       1.0  0.173354434056326  0.002466162159441515  0.5641444191991425  1.0000
  N   N3        1.0  0.1104845486531636  0.26000536193618357  0.21511423299874652  1.0000
  H   H7        1.0  0.2759865330142921  0.23490054809771402  0.8497803795613066  1.0000
  H   H8        1.0  0.14037796613918352  0.3552032887537051  0.44890958953987464  1.0000
  H   H9        1.0  0.1314603239160579  0.97237029700343  0.24102242473155133  1.0000
  H   H10       1.0  0.1657899533629547  0.8230344826555289  0.44177325553228264  1.0000
  H   H11       1.0  0.24256071971411056  0.7053701352364468  0.7575224398751179  1.0000
  H   H12       1.0  0.1038342522689013  0.3720792705666705  0.21507204997627152  1.0000
  H   H13       1.0  0.10089825391060489  0.21254883368486782  0.12732475769534246  1.0000
  C   C16       1.0  0.1704837743577008  0.5789336069025419  0.18346498360140062  1.0000
  C   C17       1.0  0.2646871285412368  0.6367720306542306  0.17809862738783422  1.0000
  C   C18       1.0  0.31152131866414273  0.6683976055545188  0.058091204811915764  1.0000
  C   C19       1.0  0.26444334612834064  0.6366190664231969  0.9428614233137981  1.0000
  C   C20       1.0  0.17029812011755507  0.5788164500265985  0.9462283541206267  1.0000
  C   C21       1.0  0.12372470412436896  0.5508437001610393  0.06700228740144287  1.0000
  C   C22       1.0  0.413939485077413  0.7255988712100023  0.05373404268626447  1.0000
  F   F1        1.0  0.4313890313076323  0.8098347606467349  0.1564855523068831  1.0000
  F   F2        1.0  0.47689173006059016  0.6105895657421558  0.06179367804120073  1.0000
  F   F3        1.0  0.43112372875667426  0.8098151895404432  0.9388421810701709  1.0000
  H   H14       1.0  0.9933489149715934  0.4673740344424008  0.4010020190493009  1.0000
  H   H15       1.0  0.30184494670230005  0.6570604136687788  0.2674615240694662  1.0000
  H   H16       1.0  0.3014339234256919  0.6567986466714391  0.8504479374582155  1.0000
  H   H17       1.0  0.05111693019987084  0.5062679702898407  0.07033345255064849  1.0000
  H   H18       1.0  0.13471724486145084  0.5542264758798321  0.6202375902748902  1.0000
  Zn  Zn1       1.0  0.0646276545810347  0.578876722718926  0.5648485357649147  1.0000
  Zn  Zn2       1.0  0.2761449622984662  0.578872616399703  0.5648441927175927  1.0000
  C   C23       1.0  0.17029082940285567  0.573092032375331  0.8020592604830954  1.0000
  C   C24       1.0  0.17048410994135804  0.5846591267374643  0.32763359240523293  1.0000
  C   C25       1.0  0.17223038659442724  0.8423314470940102  0.5592345349122463  1.0000
  C   C26       1.0  0.16854446843211907  0.31541797893975  0.5704583900917637  1.0000
  O   O1        1.0  0.25075389448622953  0.5865728120800875  0.37601625678577766  1.0000
  O   O2        1.0  0.2505577797159879  0.5711741422848843  0.7536729277757084  1.0000
  O   O3        1.0  0.2521229142743202  0.7885883744808917  0.557590241387605  1.0000
  O   O4        1.0  0.24918868784726522  0.36915859021933906  0.5720988457803282  1.0000
  O   O5        1.0  0.09158385685177195  0.788590748902263  0.5575938826968279  1.0000
  O   O6        1.0  0.09001873443064265  0.5711782497882634  0.753676496963898  1.0000
  O   O7        1.0  0.0902148492935233  0.5865768695563363  0.3760182646043595  1.0000
  O   O8        1.0  0.08864964255472717  0.3691626373633015  0.5721009509871111  1.0000
