data_image0
_chemical_formula_structural       NC5NC4H6C7NH5C9H8Zn2C4O8
_chemical_formula_sum              "N3 C29 H19 Zn2 O8"
_cell_length_a       13.854160002989762
_cell_length_b       9.275154477615127
_cell_length_c       9.275155815604963
_cell_angle_alpha    86.28252252333478
_cell_angle_beta     90.35750573089034
_cell_angle_gamma    89.43370676253429

_space_group_name_H-M_alt    "P 1"
_space_group_IT_number       1

loop_
  _space_group_symop_operation_xyz
  'x, y, z'

loop_
  _atom_site_type_symbol
  _atom_site_label
  _atom_site_symmetry_multiplicity
  _atom_site_fract_x
  _atom_site_fract_y
  _atom_site_fract_z
  _atom_site_occupancy
  N   N1        1.0  0.8919433383971295  0.5642521349629763  0.4164481968259739  1.0000
  C   C1        1.0  0.8192010468252904  0.5889491915642404  0.35751288520251157  1.0000
  C   C2        1.0  0.7287086040523291  0.6196729941621775  0.28419509981197266  1.0000
  C   C3        1.0  0.641627408201933  0.5908148346854829  0.35578792609999366  1.0000
  C   C4        1.0  0.5535661914910636  0.6196730082883919  0.28419507670057675  1.0000
  C   C5        1.0  0.4640929068104468  0.5889490450722814  0.3575129762226843  1.0000
  N   N2        1.0  0.3921697682179343  0.5642520714820318  0.41644819648734455  1.0000
  C   C6        1.0  0.5526148819524667  0.6779957346901397  0.14103079867849844  1.0000
  C   C7        1.0  0.6396487312300879  0.7090025617154381  0.06934308502643094  1.0000
  C   C8        1.0  0.6386158528799362  0.767467480606058  0.9146929105638812  1.0000
  C   C9        1.0  0.7276919706249705  0.6779957325881762  0.14103070841186804  1.0000
  H   H1        1.0  0.6423897429652438  0.5455629140898908  0.46659400710908394  1.0000
  H   H2        1.0  0.4843689007138176  0.699297507367135  0.0854780697813271  1.0000
  H   H3        1.0  0.7029223686411779  0.8354054214138225  0.8911812100179377  1.0000
  H   H4        1.0  0.5732138912382423  0.835405423850342  0.8911812750980687  1.0000
  H   H5        1.0  0.6389184501503761  0.6763511430336826  0.8427928605076702  1.0000
  H   H6        1.0  0.7951918587016648  0.6992976190858335  0.08547798481731905  1.0000
  C   C10       1.0  0.14484744023631468  0.14084844204230818  0.41478038552624064  1.0000
  C   C11       1.0  0.11782937025884196  0.22293329156821587  0.28770267287905926  1.0000
  C   C12       1.0  0.08298797206995245  0.15585859592029894  0.16735645542441224  1.0000
  C   C13       1.0  0.07459329001864301  0.005783831324221561  0.1726706129411839  1.0000
  C   C14       1.0  0.10249402030325888  0.9224663643425666  0.2968516904419327  1.0000
  C   C15       1.0  0.13927503935474828  0.9876447908388696  0.4181285073207872  1.0000
  C   C16       1.0  0.05467944158124302  0.24151206950238738  0.038747124888568026  1.0000
  N   N3        1.0  0.03192722410604553  0.3103618398860264  0.9353781661215597  1.0000
  H   H7        1.0  0.1650210713116116  0.22056584130012125  0.7685627825790708  1.0000
  H   H8        1.0  0.12175365597090691  0.3398558676406258  0.2834262094771234  1.0000
  H   H9        1.0  0.04730117472196028  0.9528608165566105  0.08017698644527105  1.0000
  H   H10       1.0  0.0974250118379407  0.8059976767769289  0.29672484938206467  1.0000
  H   H11       1.0  0.15694969133964884  0.6909156805041335  0.655172776886663  1.0000
  C   C17       1.0  0.14031669575861772  0.5606021359188367  0.9932087801176691  1.0000
  C   C18       1.0  0.06434530049242149  0.6308571029127812  0.06130142028385243  1.0000
  C   C19       1.0  0.9947759866401268  0.710694485529485  0.9803323077386589  1.0000
  C   C20       1.0  0.9998866466137043  0.7219487085056451  0.8297950077334311  1.0000
  C   C21       1.0  0.07392076408463309  0.6509190753731355  0.7599909397528393  1.0000
  C   C22       1.0  0.14380575896503967  0.5678910289463375  0.8397000248336757  1.0000
  C   C23       1.0  0.9283440629667129  0.805154604606555  0.7465265951251694  1.0000
  C   C24       1.0  0.8684400135293753  0.8748281797232113  0.6767740212914304  1.0000
  C   C25       1.0  0.7957572164521647  0.9593652826697543  0.592129590185206  1.0000
  H   H12       1.0  0.36512128839637653  0.4442733094451856  0.10570670245982373  1.0000
  H   H13       1.0  0.06003512475989314  0.6268603344395742  0.17807715559644  1.0000
  H   H14       1.0  0.9374595128673865  0.7648870202524265  0.035359600779647726  1.0000
  H   H15       1.0  0.0756595639676929  0.6576989935550577  0.6428714505191171  1.0000
  H   H16       1.0  0.2938428543504742  0.48439375194053286  0.5657875160758761  1.0000
  H   H17       1.0  0.8153441877839362  0.9635079147901944  0.476146982928408  1.0000
  H   H18       1.0  0.7242066540756787  0.9080220396345883  0.6069528642465034  1.0000
  H   H19       1.0  0.7925817955679141  0.07069770740934445  0.6290745045399255  1.0000
  Zn  Zn1       1.0  0.036297945856877935  0.5642483281835406  0.4164565135837406  1.0000
  Zn  Zn2       1.0  0.24781528836493139  0.5642441814997357  0.41645167001628325  1.0000
  C   C26       1.0  0.1431819107138554  0.5607693820617292  0.6796723789892889  1.0000
  C   C27       1.0  0.14093362188226632  0.5677249480239241  0.15323595321382147  1.0000
  C   C28       1.0  0.1402996957393372  0.8275327807271164  0.41175216702785833  1.0000
  C   C29       1.0  0.14381577639682638  0.3009598177412283  0.4211562351692566  1.0000
  O   O1        1.0  0.22141043846825093  0.5701075649651886  0.20694067139216532  1.0000
  O   O2        1.0  0.2232418683609464  0.5583825266025211  0.6259635654580133  1.0000
  O   O3        1.0  0.22091336742130394  0.773797357634285  0.4096161046715219  1.0000
  O   O4        1.0  0.22373886671804655  0.3546927433184981  0.42328802415406486  1.0000
  O   O5        1.0  0.060374295323232886  0.7737997663676971  0.4096201594400368  1.0000
  O   O6        1.0  0.06270278454230425  0.5583866669561612  0.625967550226602  1.0000
  O   O7        1.0  0.060871347901938266  0.5701116401535291  0.20694292310969598  1.0000
  O   O8        1.0  0.06319977666105148  0.35469680912468515  0.4232903838902653  1.0000
