data_image0
_chemical_formula_structural       NC6NCNCH5C6ClH5C7ONH5Zn2C4O8
_chemical_formula_sum              "N4 C25 H15 Cl1 O9 Zn2"
_cell_length_a       14.933214217465613
_cell_length_b       10.30297070629231
_cell_length_c       9.273042158839658
_cell_angle_alpha    86.1623812568413
_cell_angle_beta     90.05893816914777
_cell_angle_gamma    90.03245333812676

_space_group_name_H-M_alt    "P 1"
_space_group_IT_number       1

loop_
  _space_group_symop_operation_xyz
  'x, y, z'

loop_
  _atom_site_type_symbol
  _atom_site_label
  _atom_site_symmetry_multiplicity
  _atom_site_fract_x
  _atom_site_fract_y
  _atom_site_fract_z
  _atom_site_occupancy
  N   N1        1.0  0.8415965337446388  0.4065413735638724  0.40926772867066474  1.0000
  C   C1        1.0  0.7641052526154525  0.40742929058026556  0.40827730868077156  1.0000
  C   C2        1.0  0.6677055386803662  0.40853629504750755  0.40704237735736054  1.0000
  C   C3        1.0  0.6199792769200572  0.3232238275633304  0.5022229780854215  1.0000
  C   C4        1.0  0.5264447425016796  0.32418852799804854  0.5011467201333917  1.0000
  C   C5        1.0  0.47973417211359914  0.4104168162076376  0.4049444022928178  1.0000
  C   C6        1.0  0.3831608055575338  0.40853821705660165  0.4070403067001258  1.0000
  N   N2        1.0  0.3056769661716526  0.4069710467907323  0.4087883808544204  1.0000
  C   C7        1.0  0.5275579608007576  0.4968065487359472  0.30856205813480586  1.0000
  N   N3        1.0  0.48214319243966175  0.5864308675923233  0.20857112643993966  1.0000
  C   C8        1.0  0.6215738434239669  0.4949811502339647  0.3105987188465261  1.0000
  H   H1        1.0  0.6550542334815698  0.255960684009122  0.5772664377188843  1.0000
  H   H2        1.0  0.49043804225140053  0.2574912112742045  0.57555877439397  1.0000
  H   H3        1.0  0.5184259564093286  0.6497321719354142  0.13794768928255507  1.0000
  H   H4        1.0  0.4123962313281048  0.5911996462616869  0.20325081304677095  1.0000
  H   H5        1.0  0.658705751841294  0.5610073806719887  0.23693520976162263  1.0000
  C   C9        1.0  0.07364102168165143  0.025508807196578113  0.4090342847274562  1.0000
  C   C10       1.0  0.16613574245755391  0.02271459157470179  0.4367009703965843  1.0000
  C   C11       1.0  0.21202915408158451  0.9043713314966165  0.45042834063774534  1.0000
  C   C12       1.0  0.16613574167407366  0.7876066222613668  0.43670090261017136  1.0000
  C   C13       1.0  0.07364103132174266  0.78799374980048  0.40903436722732595  1.0000
  C   C14       1.0  0.027844540900999314  0.9075389063115483  0.39533585534881777  1.0000
  Cl  Cl1       1.0  0.32757709765350107  0.9023842064455287  0.48499052340467896  1.0000
  H   H6        1.0  0.03879987953600761  0.3538644499551835  0.39861192184068023  1.0000
  H   H7        1.0  0.20292314067088935  0.11212852745003346  0.44770455992286856  1.0000
  H   H8        1.0  0.20292310515324008  0.6969273336072085  0.4477044564033601  1.0000
  H   H9        1.0  0.9565098052862534  0.9087655626456462  0.37399843132941846  1.0000
  H   H10       1.0  0.03879987544431465  0.46083648585533526  0.3986121939757341  1.0000
  C   C15       1.0  0.07321283147934143  0.4027384663503617  0.9857698369448413  1.0000
  C   C16       1.0  0.9909649787140368  0.41092956403262626  0.05853559342355408  1.0000
  C   C17       1.0  0.9103342068864888  0.431679918341819  0.9823627111258458  1.0000
  C   C18       1.0  0.9124477450758527  0.44267150752884055  0.8308618282045019  1.0000
  C   C19       1.0  0.9932296309356011  0.4325729266907222  0.757088155110869  1.0000
  C   C20       1.0  0.07406926758010335  0.4107640203747694  0.832298791380794  1.0000
  C   C21       1.0  0.8247634781381943  0.44056322020863325  0.06231111258145194  1.0000
  O   O1        1.0  0.8187810042713694  0.39031722352699477  0.18968791147508335  1.0000
  N   N4        1.0  0.7485930151353702  0.5063573366591563  0.9988533245716033  1.0000
  H   H11       1.0  0.29047434415428913  0.45252967588719284  0.08550549871305213  1.0000
  H   H12       1.0  0.8515525305339908  0.4554515326769702  0.7683015907575697  1.0000
  H   H13       1.0  0.22051055310447398  0.43827728526255727  0.5492257585352447  1.0000
  H   H14       1.0  0.752905535956288  0.5624240922219623  0.9011830442310238  1.0000
  H   H15       1.0  0.6880679052663298  0.5061551750209509  0.055158298611429624  1.0000
  Zn  Zn1       1.0  0.9755201308894892  0.4066619633867757  0.4091377314482233  1.0000
  Zn  Zn2       1.0  0.17175336633874883  0.40683991847198486  0.4089302145672007  1.0000
  C   C22       1.0  0.07390536157951533  0.4040750135829643  0.6722866710651179  1.0000
  C   C23       1.0  0.07337027865273306  0.4094285096579293  0.14578141415366108  1.0000
  C   C24       1.0  0.07363062487541798  0.6438133775999435  0.4032906203224532  1.0000
  C   C25       1.0  0.07364494847382642  0.1696885865031621  0.4147775418119617  1.0000
  O   O2        1.0  0.14789260953710118  0.4117356183968755  0.19940400961365884  1.0000
  O   O3        1.0  0.1483195154533512  0.40190198529200893  0.6185061601788463  1.0000
  O   O4        1.0  0.1480966597221448  0.5954937594395762  0.40128994707413507  1.0000
  O   O5        1.0  0.14811539819786423  0.21814385245126292  0.41662011471735205  1.0000
  O   O6        1.0  0.999158032065593  0.5953580293481116  0.4014478313613059  1.0000
  O   O7        1.0  0.9993808877150238  0.40176781427894603  0.6186639676136139  1.0000
  O   O8        1.0  0.9989539801051741  0.4116013857131345  0.19956008411891446  1.0000
  O   O9        1.0  0.9991767688716007  0.21800961150618114  0.41677629728685983  1.0000
