data_image0
_chemical_formula_structural       NC6NC2H4C6ClH5C6BrH4Zn2C4O8
_chemical_formula_sum              "N2 C24 H13 Cl1 Br1 Zn2 O8"
_cell_length_a       14.927258858638513
_cell_length_b       10.302970706292308
_cell_length_c       9.27656775626242
_cell_angle_alpha    86.12016662879066
_cell_angle_beta     90.18620734994761
_cell_angle_gamma    89.9983139300619

_space_group_name_H-M_alt    "P 1"
_space_group_IT_number       1

loop_
  _space_group_symop_operation_xyz
  'x, y, z'

loop_
  _atom_site_type_symbol
  _atom_site_label
  _atom_site_symmetry_multiplicity
  _atom_site_fract_x
  _atom_site_fract_y
  _atom_site_fract_z
  _atom_site_occupancy
  N   N1        1.0  0.8403300046642752  0.40681935980192874  0.41065580922745015  1.0000
  C   C1        1.0  0.7628035135185017  0.40681933422899325  0.41065581981093  1.0000
  C   C2        1.0  0.6663710058714685  0.4068194374084322  0.41065576997525466  1.0000
  C   C3        1.0  0.6190633398506955  0.3843749091248468  0.28402819034482296  1.0000
  C   C4        1.0  0.5253520282372941  0.3843749310276856  0.28402805694872546  1.0000
  C   C5        1.0  0.4785549419206152  0.4068192777305619  0.4106557885937956  1.0000
  C   C6        1.0  0.38212236728203386  0.4068193809126172  0.4106557387521985  1.0000
  N   N2        1.0  0.30459587613626005  0.4068193553396813  0.4106557493356786  1.0000
  C   C7        1.0  0.5258625409498399  0.42926380601676345  0.537283368218306  1.0000
  C   C8        1.0  0.6195738525632417  0.42926378411392463  0.5372835016144031  1.0000
  H   H1        1.0  0.6545609052928472  0.366911799548453  0.18550466588652226  1.0000
  H   H2        1.0  0.489457249768181  0.366911977341116  0.18550466095592988  1.0000
  H   H3        1.0  0.4903650427138895  0.44672690725724595  0.635807000711617  1.0000
  H   H4        1.0  0.6554686312504678  0.4467268263919667  0.6358070075863931  1.0000
  C   C9        1.0  0.0724672328785523  0.02557195469561168  0.41066200518618245  1.0000
  C   C10       1.0  0.16502690738102954  0.022673644117025663  0.4384151524275284  1.0000
  C   C11       1.0  0.21095254720892753  0.9042787349668479  0.4521854226259081  1.0000
  C   C12       1.0  0.1650269065288948  0.7875656748494905  0.4384150846624315  1.0000
  C   C13       1.0  0.07246724260568033  0.7880568972357244  0.41066208766907697  1.0000
  C   C14       1.0  0.026638591909822217  0.907653593830307  0.3969207664758796  1.0000
  Cl  Cl1       1.0  0.3265816333607114  0.9021615705797611  0.4868556165288671  1.0000
  H   H5        1.0  0.03760162298784575  0.35396680873858877  0.4002070740020205  1.0000
  H   H6        1.0  0.20184013914517895  0.11204617898066704  0.44945312986260744  1.0000
  H   H7        1.0  0.201840103508933  0.6968449852395845  0.44945302634021883  1.0000
  H   H8        1.0  0.9552537619732563  0.9089605313782273  0.37551666068001266  1.0000
  H   H9        1.0  0.03760161916887353  0.4609388444615778  0.4002073460440252  1.0000
  C   C15       1.0  0.07161214550731354  0.4030834563384396  0.9875352682523912  1.0000
  C   C16       1.0  0.9920045628375257  0.43433775061210395  0.058146111810122754  1.0000
  C   C17       1.0  0.9163778449315103  0.4762861402820959  0.979445127895404  1.0000
  C   C18       1.0  0.9189382099898264  0.4878298700013617  0.8289492844581248  1.0000
  C   C19       1.0  0.9967895340050484  0.4551731270911692  0.7566113786026314  1.0000
  C   C20       1.0  0.07332237866069359  0.4105454019098158  0.8337887912452984  1.0000
  Br  Br1       1.0  0.8154293002156827  0.5462869129370524  0.7216990661543132  1.0000
  H   H10       1.0  0.19485167506137435  0.2851625453085127  0.2783694446862204  1.0000
  H   H11       1.0  0.8559820638400554  0.5010390842788024  0.03576251991029134  1.0000
  H   H12       1.0  0.9966485426237672  0.4618048561338773  0.6395609157105788  1.0000
  H   H13       1.0  0.22072266720732392  0.3971393895393007  0.5543940493138222  1.0000
  Zn  Zn1       1.0  0.974307131281592  0.40681595311261876  0.4106641177213797  1.0000
  Zn  Zn2       1.0  0.17061878428764254  0.4068122320769276  0.41065926059192126  1.0000
  C   C21       1.0  0.07299708376817665  0.40396286893722055  0.6738287392247153  1.0000
  C   C22       1.0  0.07193097580406986  0.4096669555563601  0.14749478045895104  1.0000
  C   C23       1.0  0.0724510412745416  0.643880353928113  0.404920204771372  1.0000
  C   C24       1.0  0.07247695146544664  0.16974791143850407  0.4164033917337755  1.0000
  O   O1        1.0  0.14653722739301744  0.4118693619844603  0.20117681074811977  1.0000
  O   O2        1.0  0.14738683363010213  0.4017566552613301  0.6201426077064771  1.0000
  O   O3        1.0  0.14694489615313833  0.5954930717920703  0.4029970635878095  1.0000
  O   O4        1.0  0.14697909766378003  0.2181329537896317  0.4183222468317769  1.0000
  O   O5        1.0  0.9979467509139068  0.595495231402531  0.403001131475603  1.0000
  O   O6        1.0  0.9983886882315806  0.4017603740013711  0.6201465987668675  1.0000
  O   O7        1.0  0.9975390785531184  0.4118730202076879  0.20117906944287434  1.0000
  O   O8        1.0  0.9979809490385341  0.218136603679564  0.41832461355562134  1.0000
