data_image0
_chemical_formula_structural       NC10NC3NH7C7OC6OCH12C7OC3NC3H11Zn2C4O8
_chemical_formula_sum              "N4 C44 H30 O11 Zn2"
_cell_length_a       19.210446455230148
_cell_length_b       10.299359160628079
_cell_length_c       10.298749378158432
_cell_angle_alpha    85.56206142688012
_cell_angle_beta     89.9995885785224
_cell_angle_gamma    89.96984927250973

_space_group_name_H-M_alt    "P 1"
_space_group_IT_number       1

loop_
  _space_group_symop_operation_xyz
  'x, y, z'

loop_
  _atom_site_type_symbol
  _atom_site_label
  _atom_site_symmetry_multiplicity
  _atom_site_fract_x
  _atom_site_fract_y
  _atom_site_fract_z
  _atom_site_occupancy
  N   N1        1.0  0.6556493747044334  0.420337734354633  0.5674098933853866  1.0000
  C   C1        1.0  0.5954211397994238  0.42254524480001415  0.5676413795076383  1.0000
  C   C2        1.0  0.5206170900547713  0.4252821535355995  0.5679281622295833  1.0000
  C   C3        1.0  0.48502300264221054  0.5415121043975084  0.583057971887776  1.0000
  C   C4        1.0  0.4123575372441047  0.5416636479838455  0.5830053922651268  1.0000
  C   C5        1.0  0.3754504371244238  0.42599111754540786  0.5680147548782124  1.0000
  C   C6        1.0  0.298128116586805  0.4246346456894591  0.5678639545749024  1.0000
  C   C7        1.0  0.2603806818860648  0.5282123063894735  0.504512134576332  1.0000
  C   C8        1.0  0.187602133662701  0.5268100749186646  0.5044028486965204  1.0000
  C   C9        1.0  0.151569637079824  0.42208769963747805  0.5675944192223872  1.0000
  C   C10       1.0  0.0766399342777434  0.42078562089476895  0.5674573911730514  1.0000
  N   N2        1.0  0.016401935028844104  0.41973870537305724  0.5673472554936472  1.0000
  C   C11       1.0  0.1885934279232558  0.3186357349393183  0.6309212469644501  1.0000
  C   C12       1.0  0.26137379487841145  0.31976369120595427  0.6310807429902316  1.0000
  C   C13       1.0  0.4136546521857461  0.3115814086714026  0.5531733960884984  1.0000
  N   N3        1.0  0.48442493258497155  0.3140263865895798  0.5533393258045438  1.0000
  H   H1        1.0  0.5131367764694087  0.6309452252634951  0.5951202949659871  1.0000
  H   H2        1.0  0.3851017168578998  0.631678498701657  0.5964626333531019  1.0000
  H   H3        1.0  0.2871128444868662  0.6094714253795959  0.45352922564977693  1.0000
  H   H4        1.0  0.1594606411175321  0.6072413487441375  0.4547503187750772  1.0000
  H   H5        1.0  0.16122145424925624  0.23724106655472751  0.6804741449618825  1.0000
  H   H6        1.0  0.28887058544047733  0.23945145976544577  0.6821711302407404  1.0000
  H   H7        1.0  0.3873761628605371  0.22070363490382672  0.539669779457481  1.0000
  C   C14       1.0  0.835947063865523  0.03866007815792894  0.5673470988082832  1.0000
  C   C15       1.0  0.7783645831176834  0.04404293616921719  0.4829535029049425  1.0000
  C   C16       1.0  0.7498204682505206  0.9297725548538842  0.4392943721094295  1.0000
  C   C17       1.0  0.7785304137850287  0.8087811286437666  0.48320860044256747  1.0000
  C   C18       1.0  0.8361109018348258  0.801406347854041  0.5674213226192499  1.0000
  C   C19       1.0  0.8645837378777474  0.9169325784786629  0.6087947621255495  1.0000
  C   C20       1.0  0.6885356874103988  0.9375935297654515  0.35136460535638764  1.0000
  O   O1        1.0  0.6443009561667357  0.026538793401746263  0.3629397265205959  1.0000
  C   C21       1.0  0.6774308998605585  0.8445816154327237  0.25031109076483404  1.0000
  C   C22       1.0  0.7340442210473661  0.791143577410321  0.18624105585089687  1.0000
  C   C23       1.0  0.7228477763745197  0.7047827332735523  0.09015363929729057  1.0000
  C   C24       1.0  0.6552211176328705  0.6709833024001487  0.05539994551266858  1.0000
  C   C25       1.0  0.5983733837044308  0.7254566037833585  0.11815815904349189  1.0000
  C   C26       1.0  0.6095061800814316  0.8118764394736092  0.21429201178698154  1.0000
  O   O2        1.0  0.6467820650595932  0.5837775510627976  0.9584954925484109  1.0000
  C   C27       1.0  0.5811800926476  0.5410453981895401  0.9136352751711836  1.0000
  H   H8        1.0  0.9444232484493463  0.23574079181717786  0.7270160988967633  1.0000
  H   H9        1.0  0.7559750174706141  0.13741063800774955  0.44997001236334006  1.0000
  H   H10       1.0  0.755419498396282  0.7201846194624396  0.452758759121744  1.0000
  H   H11       1.0  0.9090009461162206  0.9119758377194176  0.6737608870403028  1.0000
  H   H12       1.0  0.8580212076250543  0.47107211149692374  0.600138209869312  1.0000
  H   H13       1.0  0.7869680455443181  0.8171419672501425  0.20936480585872738  1.0000
  H   H14       1.0  0.7670208890428719  0.664265319588897  0.04196091989922878  1.0000
  H   H15       1.0  0.5454203315296707  0.7017353765616047  0.093389669182107  1.0000
  H   H16       1.0  0.5649439411700121  0.8523487845282802  0.26143395491668375  1.0000
  H   H17       1.0  0.5898630230988557  0.47264130580336433  0.8371529396960867  1.0000
  H   H18       1.0  0.550589443400075  0.6254476358643574  0.8711272173211402  1.0000
  H   H19       1.0  0.5519663541059334  0.4895183965216325  0.9951824802773694  1.0000
  C   C28       1.0  0.8359968803567465  0.42006129310776935  0.18598314203732277  1.0000
  C   C29       1.0  0.8740447851437287  0.5368655991674911  0.1759682242310996  1.0000
  C   C30       1.0  0.8925858419793479  0.596732006952392  0.05366550617456811  1.0000
  C   C31       1.0  0.8740475621246488  0.5369144571215871  0.9407241990825684  1.0000
  C   C32       1.0  0.836061057458229  0.4200051529023554  0.9487852351920636  1.0000
  C   C33       1.0  0.8171169063428084  0.36250129868985237  0.07183696890161118  1.0000
  C   C34       1.0  0.93332849356485  0.7194351755772617  0.0429902436232048  1.0000
  O   O3        1.0  0.9768275194577746  0.7377061766997115  0.9516375624533965  1.0000
  C   C35       1.0  0.9247253404112854  0.8214026501903399  0.13589134401015257  1.0000
  C   C36       1.0  0.8596081717388345  0.8440853062681621  0.19260911410941703  1.0000
  C   C37       1.0  0.8518427104774768  0.9416025014426915  0.27932022410039464  1.0000
  N   N4        1.0  0.7855739850143884  0.9635646762333834  0.3370060093357974  1.0000
  C   C38       1.0  0.9092984626680979  0.01775998806212664  0.30871534255305066  1.0000
  C   C39       1.0  0.9738675150255496  0.9970289387506917  0.25153852330077964  1.0000
  C   C40       1.0  0.9815929283553052  0.899823487849888  0.16520425522450166  1.0000
  H   H20       1.0  0.7650273886121376  0.19834341976295836  0.41234656442273376  1.0000
  H   H21       1.0  0.8899512862184852  0.5806860175061916  0.26351587951071087  1.0000
  H   H22       1.0  0.8887377393954837  0.5824130884812959  0.8463197652878982  1.0000
  H   H23       1.0  0.7877921510141811  0.27246385745040613  0.07880487236961953  1.0000
  H   H24       1.0  0.7645376113341854  0.19886720138944036  0.7567321961141751  1.0000
  H   H25       1.0  0.8146821545315044  0.7871513492719802  0.16856836996929347  1.0000
  H   H26       1.0  0.7423977419420644  0.9073630077363883  0.31578002628494795  1.0000
  H   H27       1.0  0.7792116774784217  0.03609531215280848  0.4015018934326006  1.0000
  H   H28       1.0  0.9039659038803232  0.09338494497897541  0.3754566911362667  1.0000
  H   H29       1.0  0.018050421695799734  0.056424002982176084  0.27417299180707744  1.0000
  H   H30       1.0  0.032159449824373576  0.8850944910522337  0.12219358841798186  1.0000
  Zn  Zn1       1.0  0.7597547699773755  0.4201614028412166  0.5673993168050426  1.0000
  Zn  Zn2       1.0  0.9122965224380101  0.41990445330023  0.5673684677181086  1.0000
  C   C41       1.0  0.8360462774366584  0.41484198243934506  0.8045988055221337  1.0000
  C   C42       1.0  0.8360066810926158  0.42522550954609856  0.3301691063007097  1.0000
  C   C43       1.0  0.8360759078477862  0.6572314888041906  0.5622316524619442  1.0000
  C   C44       1.0  0.8359769983003327  0.18283444292348164  0.5725363284641346  1.0000
  O   O4        1.0  0.8938987691729197  0.4268554908682099  0.3785475254437818  1.0000
  O   O5        1.0  0.8939298496561815  0.41301600264231486  0.7561965986630557  1.0000
  O   O6        1.0  0.8939529963328371  0.6087485956807646  0.560483408068289  1.0000
  O   O7        1.0  0.893875570437897  0.23112290721505094  0.5742606186671061  1.0000
  O   O8        1.0  0.7781756699224747  0.6089429490154945  0.5605071658597407  1.0000
  O   O9        1.0  0.7781525235719603  0.41321191632391474  0.7562202873549679  1.0000
  O   O10       1.0  0.7781214429938573  0.4270513594075469  0.378569652599036  1.0000
  O   O11       1.0  0.7780982442621877  0.23131876645819546  0.5742828431974989  1.0000
