data_image0
_chemical_formula_structural       NC11NC3H8C12SCH12C12NCOH11Zn2C4O8
_chemical_formula_sum              "N3 C44 H31 S1 O9 Zn2"
_cell_length_a       17.807433833752565
_cell_length_b       10.299776766347529
_cell_length_c       10.299148425239203
_cell_angle_alpha    85.5384344644465
_cell_angle_beta     88.51012908396928
_cell_angle_gamma    90.66624570658541

_space_group_name_H-M_alt    "P 1"
_space_group_IT_number       1

loop_
  _space_group_symop_operation_xyz
  'x, y, z'

loop_
  _atom_site_type_symbol
  _atom_site_label
  _atom_site_symmetry_multiplicity
  _atom_site_fract_x
  _atom_site_fract_y
  _atom_site_fract_z
  _atom_site_occupancy
  N   N1        1.0  0.7073609478598921  0.4390595281112643  0.5346086996070136  1.0000
  C   C1        1.0  0.6565381535157966  0.40430579902558245  0.6011743927232871  1.0000
  C   C2        1.0  0.5933094724417921  0.3610750259877093  0.683973620181106  1.0000
  C   C3        1.0  0.6050303851679317  0.2974750188800778  0.8066982233007295  1.0000
  C   C4        1.0  0.543709120574973  0.25592493909938296  0.8872134271301798  1.0000
  C   C5        1.0  0.47051255977188833  0.27766133754705435  0.8456448565487147  1.0000
  C   C6        1.0  0.45781489255318747  0.34141608424470116  0.7224600297273733  1.0000
  C   C7        1.0  0.3800502737456936  0.3644837321293499  0.6781106639403918  1.0000
  C   C8        1.0  0.36128884022969826  0.3476655008265195  0.5485203163364467  1.0000
  C   C9        1.0  0.2880623505562687  0.36936319022054653  0.5069076694742713  1.0000
  C   C10       1.0  0.23265428188520082  0.4081979729253382  0.5940650504584704  1.0000
  C   C11       1.0  0.1572911484282059  0.4305546802493025  0.5510910389139458  1.0000
  N   N2        1.0  0.09670456241996872  0.44852781204463155  0.5165430612707986  1.0000
  C   C12       1.0  0.2507241907948191  0.4252269976964256  0.7231242346229845  1.0000
  C   C13       1.0  0.32389788774365497  0.40349427305219715  0.7649923276672499  1.0000
  C   C14       1.0  0.5199934674690991  0.3829615923698308  0.6419612427141628  1.0000
  H   H1        1.0  0.661494508978401  0.28004701974052  0.8400654357563874  1.0000
  H   H2        1.0  0.5529024857971198  0.2064342698108803  0.9819543159704788  1.0000
  H   H3        1.0  0.4238703955126927  0.2430796272636475  0.9090870489651878  1.0000
  H   H4        1.0  0.4029831450299962  0.3160527264672104  0.4797975723018635  1.0000
  H   H5        1.0  0.2746381228189803  0.3555241766346917  0.4068654044202711  1.0000
  H   H6        1.0  0.208313404922714  0.45561698134155804  0.7913321227768533  1.0000
  H   H7        1.0  0.33679342319760325  0.41887874292655813  0.8648518890834772  1.0000
  H   H8        1.0  0.5114982926135933  0.43381449184491583  0.5474547429577894  1.0000
  C   C15       1.0  0.9021071808892531  0.062430341629699834  0.5255708087436428  1.0000
  C   C16       1.0  0.9066013811686469  0.05092130751012314  0.6618851342839474  1.0000
  C   C17       1.0  0.9088062966435554  0.9279492060885519  0.7309654031944532  1.0000
  C   C18       1.0  0.9064577265122863  0.8156300313553974  0.6619069912395588  1.0000
  C   C19       1.0  0.9019655327906023  0.8251471670714008  0.525591823162936  1.0000
  C   C20       1.0  0.8998149835184666  0.9489864551516487  0.45818680574123843  1.0000
  C   C21       1.0  0.9135523742942608  0.9168376513793506  0.875170963303375  1.0000
  C   C22       1.0  0.870545062622855  0.8223006696601379  0.9512140695476881  1.0000
  C   C23       1.0  0.8750342403768285  0.812078402282213  0.08692399938736517  1.0000
  C   C24       1.0  0.9223431513283379  0.8961092381054702  0.14840631762515766  1.0000
  C   C25       1.0  0.9655295405639104  0.9900762190692911  0.07372805710335062  1.0000
  C   C26       1.0  0.9611505247261392  0.0006510585063135288  0.938002600023313  1.0000
  S   S1        1.0  0.9281862291581803  0.8825341396788526  0.32253698470045333  1.0000
  C   C27       1.0  0.8526910066833422  0.9967519346821714  0.3455699876099978  1.0000
  H   H9        1.0  0.9004242425325286  0.39427000678661134  0.4736274914870165  1.0000
  H   H10       1.0  0.9073614300101983  0.13774892913685788  0.7148116763838706  1.0000
  H   H11       1.0  0.909176653490779  0.7206605637157733  0.7145464914261728  1.0000
  H   H12       1.0  0.8963484127452414  0.9570967098197837  0.35302607581718215  1.0000
  H   H13       1.0  0.9002162953954385  0.5013189438432756  0.4736562482762663  1.0000
  H   H14       1.0  0.8327336528425295  0.7574365916054278  0.9058513110260983  1.0000
  H   H15       1.0  0.8414376572550945  0.7391760220459601  0.14420804865822023  1.0000
  H   H16       1.0  0.0025411479672572406  0.054976064616734766  0.12071696559520873  1.0000
  H   H17       1.0  0.995695083007534  0.07320695620474504  0.8820876998474521  1.0000
  H   H18       1.0  0.8677375651410444  0.09346779332534715  0.2959909548513876  1.0000
  H   H19       1.0  0.843970192323733  0.007175650109665809  0.4512608262159341  1.0000
  H   H20       1.0  0.799833268253678  0.9599514504634622  0.3058977521053593  1.0000
  C   C28       1.0  0.9020928217488652  0.4439459690497198  0.14418247476937518  1.0000
  C   C29       1.0  0.9783086793783207  0.4813579767597499  0.1366772720575642  1.0000
  C   C30       1.0  0.016832421055073432  0.5001095451751152  0.01574537133800025  1.0000
  C   C31       1.0  0.9781503689767889  0.48101397985106153  0.9014274562945581  1.0000
  C   C32       1.0  0.9019798577815051  0.44363154828721196  0.9069800992993238  1.0000
  C   C33       1.0  0.8643979561212979  0.42530774844677977  0.02884269113261185  1.0000
  C   C34       1.0  0.0974142612877986  0.5396615912265443  0.008900535431617177  1.0000
  C   C35       1.0  0.14790674103404666  0.4835191294598443  0.9229585399098523  1.0000
  C   C36       1.0  0.22369783543899446  0.5208752573671889  0.9166683604053381  1.0000
  C   C37       1.0  0.2507712993479292  0.6138056779817121  0.996922872293974  1.0000
  C   C38       1.0  0.2002039198695793  0.6717925151951227  0.08129998143514872  1.0000
  C   C39       1.0  0.12437885476038878  0.634542228648558  0.08768858045181793  1.0000
  N   N3        1.0  0.328786005127436  0.651909488418631  0.9867682467187673  1.0000
  C   C40       1.0  0.3719923491075178  0.6896328695705503  0.09349424811101836  1.0000
  O   O1        1.0  0.346575256811948  0.6748523610436753  0.20903351874489376  1.0000
  H   H21       1.0  0.7583588138866693  0.37257168124878715  0.3656954781554036  1.0000
  H   H22       1.0  0.008113020815053941  0.49427806915035233  0.2252209745802245  1.0000
  H   H23       1.0  0.0072961068349906  0.4971142878998014  0.8078424768560364  1.0000
  H   H24       1.0  0.8056466161396522  0.3964702306253655  0.033840638181634956  1.0000
  H   H25       1.0  0.8726848436560365  0.4292170178221184  0.5816425538404997  1.0000
  H   H26       1.0  0.12897956149855605  0.409549817757633  0.8616625337949048  1.0000
  H   H27       1.0  0.26166594331626936  0.4762611067235662  0.8499508520792217  1.0000
  H   H28       1.0  0.21870437517411467  0.7479159654165493  0.14020921998845925  1.0000
  H   H29       1.0  0.08649889863975857  0.6818247492947215  0.15250947485477884  1.0000
  H   H30       1.0  0.35768172950768107  0.6436729643567831  0.8982442314074253  1.0000
  H   H31       1.0  0.42839466507682555  0.7280438877152258  0.07505398873002456  1.0000
  Zn  Zn1       1.0  0.8197171040727457  0.44178839265426845  0.529402831632773  1.0000
  Zn  Zn2       1.0  0.9843483918513763  0.4457883236992361  0.5217595157967045  1.0000
  C   C41       1.0  0.9020005019139085  0.43851733443367363  0.7627949797290157  1.0000
  C   C42       1.0  0.9020667914555153  0.4490610641423282  0.2883674117572417  1.0000
  C   C43       1.0  0.9019891866911085  0.6809794964594476  0.5204124356440105  1.0000
  C   C44       1.0  0.902078050780728  0.20659734044306782  0.5307500276514914  1.0000
  O   O2        1.0  0.9645347722324831  0.4522900241085289  0.33385659507377796  1.0000
  O   O3        1.0  0.964483859489567  0.43832325002425526  0.7115043226448667  1.0000
  O   O4        1.0  0.9644738798880648  0.6341144911932189  0.5157787425387015  1.0000
  O   O5        1.0  0.9645446956691734  0.25649879090488903  0.5295820804060383  1.0000
  O   O6        1.0  0.8395207440743703  0.6310779240850523  0.5215802696248959  1.0000
  O   O7        1.0  0.8395307233928817  0.43528824322601145  0.717305780523273  1.0000
  O   O8        1.0  0.8395816364253988  0.44925497269984177  0.3396564914254512  1.0000
  O   O9        1.0  0.8395915598463234  0.25346373016731494  0.5353820741330739  1.0000
