data_image0
_chemical_formula_structural       NC10NC3NH7C13OH12C13F3H9Zn2C4O8
_chemical_formula_sum              "N3 C43 H28 O9 F3 Zn2"
_cell_length_a       19.210446455230148
_cell_length_b       10.299150109392551
_cell_length_c       10.2985328690268
_cell_angle_alpha    85.5582241043329
_cell_angle_beta     89.99621934770114
_cell_angle_gamma    89.9285097185194

_space_group_name_H-M_alt    "P 1"
_space_group_IT_number       1

loop_
  _space_group_symop_operation_xyz
  'x, y, z'

loop_
  _atom_site_type_symbol
  _atom_site_label
  _atom_site_symmetry_multiplicity
  _atom_site_fract_x
  _atom_site_fract_y
  _atom_site_fract_z
  _atom_site_occupancy
  N   N1        1.0  0.6551454775208968  0.41985461681941033  0.5667695362712106  1.0000
  C   C1        1.0  0.5949163813175955  0.4220623429956547  0.5670000037695218  1.0000
  C   C2        1.0  0.5201112637276925  0.42479951911240604  0.5672855235863707  1.0000
  C   C3        1.0  0.4844717336899196  0.5410419853977526  0.5823616726368439  1.0000
  C   C4        1.0  0.4118062113409527  0.5411935168683057  0.5823090237376132  1.0000
  C   C5        1.0  0.3749443337934582  0.4255085572229621  0.5673717889772958  1.0000
  C   C6        1.0  0.2976225427787296  0.4241519494398242  0.5672216146797675  1.0000
  C   C7        1.0  0.2598370544824697  0.5277105487234646  0.5038227058844613  1.0000
  C   C8        1.0  0.18705905216375213  0.5263081950656598  0.5037140666852016  1.0000
  C   C9        1.0  0.15106505708473664  0.42160475351993804  0.5669532546022129  1.0000
  C   C10       1.0  0.07613586232666358  0.42030254733848316  0.5668168273830245  1.0000
  N   N2        1.0  0.0158982715611408  0.4192555293672355  0.5667071747910843  1.0000
  C   C11       1.0  0.1881268536946319  0.31817184751070604  0.6303271135033525  1.0000
  C   C12       1.0  0.260906779248081  0.3192999302152965  0.6304860886580638  1.0000
  C   C13       1.0  0.4131932781795616  0.3110865491805827  0.5525832499430705  1.0000
  N   N3        1.0  0.4839626075038481  0.313531730464649  0.5527480523193069  1.0000
  H   H1        1.0  0.5125505283223856  0.6304849016880174  0.5943827025673132  1.0000
  H   H2        1.0  0.38451514238691276  0.6312187444096367  0.5957246905640108  1.0000
  H   H3        1.0  0.2865394038877024  0.608954209483854  0.4528028668741874  1.0000
  H   H4        1.0  0.1588880243729223  0.6067244870550743  0.4540249752025518  1.0000
  H   H5        1.0  0.16078479110704083  0.23679206736119648  0.6799170175933127  1.0000
  H   H6        1.0  0.2884330133010268  0.2390032527585435  0.6816129689868295  1.0000
  H   H7        1.0  0.3869503727042824  0.2201983316066396  0.5391216053376281  1.0000
  C   C14       1.0  0.8355908145641204  0.03815537513313738  0.5668824814057483  1.0000
  C   C15       1.0  0.8343157694720963  0.026395435313449015  0.7037031535477666  1.0000
  C   C16       1.0  0.8336087127105687  0.9032983156385935  0.772810435782145  1.0000
  C   C17       1.0  0.834181541769266  0.7911402015673086  0.7033397559392041  1.0000
  C   C18       1.0  0.835459586574787  0.8009447568206375  0.5666054883898546  1.0000
  C   C19       1.0  0.836158668678834  0.9249130139208892  0.49917591526327443  1.0000
  C   C20       1.0  0.832253785597361  0.8918393654383608  0.917461065845951  1.0000
  C   C21       1.0  0.789454217880071  0.7990511394449045  0.9854947092198616  1.0000
  C   C22       1.0  0.7881561709046427  0.7883497263560257  0.12161081153157272  1.0000
  C   C23       1.0  0.8300907887984871  0.8692779395655629  0.1921538682338827  1.0000
  C   C24       1.0  0.8722244198924458  0.9630211038236945  0.12476295724361085  1.0000
  C   C25       1.0  0.8735386251505938  0.9738982870233603  0.988646563404898  1.0000
  C   C26       1.0  0.8272322954204938  0.8601352114695595  0.33825101524127155  1.0000
  O   O1        1.0  0.775207046070654  0.9434094016655897  0.3785035250161808  1.0000
  H   H8        1.0  0.8375452828864918  0.2676463995621081  0.3086271293313845  1.0000
  H   H9        1.0  0.8329046056643346  0.11318614887514933  0.7567157420679151  1.0000
  H   H10       1.0  0.8345814636548345  0.6960318793119561  0.7561769562889131  1.0000
  H   H11       1.0  0.8371424931747452  0.9331917726020439  0.39370868362951383  1.0000
  H   H12       1.0  0.8359043152968091  0.47724054243877384  0.5140127016542677  1.0000
  H   H13       1.0  0.7561618079784782  0.7360832185920355  0.9333880674150743  1.0000
  H   H14       1.0  0.7542971957645471  0.7170904116123639  0.17199580617282884  1.0000
  H   H15       1.0  0.9042346668858936  0.027544332569279677  0.17761607947216915  1.0000
  H   H16       1.0  0.9074209653824934  0.045603221468761404  0.9390682653132022  1.0000
  H   H17       1.0  0.8784371221209718  0.8878905938212599  0.3784150244071317  1.0000
  H   H18       1.0  0.8159219994328347  0.7581432640736603  0.37606823958703717  1.0000
  H   H19       1.0  0.7754699258185117  0.9337587275516507  0.475137027285706  1.0000
  C   C27       1.0  0.8355052145144254  0.4194281676926386  0.185346538838411  1.0000
  C   C28       1.0  0.905311958155912  0.3784176144611121  0.18756243572229203  1.0000
  C   C29       1.0  0.9406835376619114  0.35775593594005234  0.07151434878290219  1.0000
  C   C30       1.0  0.905353008742591  0.37867318351210644  0.95226165926009  1.0000
  C   C31       1.0  0.8355451824326248  0.4196720327721554  0.9481414175907821  1.0000
  C   C32       1.0  0.801067090783343  0.4397825328344233  0.06518124702219352  1.0000
  C   C33       1.0  0.01448588687846941  0.314410189330979  0.074791513121647  1.0000
  C   C34       1.0  0.0625412198472668  0.36893521265763257  0.9832217115297185  1.0000
  C   C35       1.0  0.13199910723273445  0.32824318279775855  0.9863274116249302  1.0000
  C   C36       1.0  0.15466586905402946  0.23080167641652816  0.0798303765150099  1.0000
  C   C37       1.0  0.10701315922864786  0.17809517506975367  0.17297677472117656  1.0000
  C   C38       1.0  0.0375597973752897  0.2188202550289049  0.16998198281818833  1.0000
  C   C39       1.0  0.23014384115840383  0.19038657201488343  0.0861154894690197  1.0000
  F   F1        1.0  0.2658287075268171  0.2696482211115158  0.16556519463824435  1.0000
  F   F2        1.0  0.2597867595623349  0.20151140897636252  0.9632490979555439  1.0000
  F   F3        1.0  0.23661239157055447  0.06224447641693542  0.13604699762145178  1.0000
  H   H20       1.0  0.703728966496972  0.4977412328391019  0.3884209261763624  1.0000
  H   H21       1.0  0.9325741876789817  0.36421166880569755  0.27964187063088186  1.0000
  H   H22       1.0  0.9320894249596218  0.36124587452254764  0.862632672859822  1.0000
  H   H23       1.0  0.7472654269175991  0.4713849279020849  0.06274028928394348  1.0000
  H   H24       1.0  0.7035062826861519  0.496401871982004  0.7330871798049227  1.0000
  H   H25       1.0  0.046665716540055024  0.44473188650368844  0.9104676499057848  1.0000
  H   H26       1.0  0.16808000156673433  0.37341317198158325  0.9158194642414114  1.0000
  H   H27       1.0  0.12344467978372521  0.1051893445650529  0.24817256805773533  1.0000
  H   H28       1.0  0.0017294561739553656  0.17460395276873067  0.2415092173946862  1.0000
  Zn  Zn1       1.0  0.7592509413410573  0.41967827118597295  0.5667590409812597  1.0000
  Zn  Zn2       1.0  0.911792794179104  0.41942129499892866  0.5667283104971201  1.0000
  C   C40       1.0  0.8355369666775959  0.4144518266244984  0.8039587236560821  1.0000
  C   C41       1.0  0.8355084343196078  0.42464937554686716  0.32952875436757334  1.0000
  C   C42       1.0  0.8354805367114763  0.6567597169972352  0.5614822695610613  1.0000
  C   C43       1.0  0.8355648125059362  0.182339924855395  0.5720052782835758  1.0000
  O   O2        1.0  0.8933983540639322  0.42629847327645765  0.37790596301913126  1.0000
  O   O3        1.0  0.8934227838081079  0.4126067099938433  0.7555578177599513  1.0000
  O   O4        1.0  0.8933764355983509  0.6082733976176891  0.5597563651838569  1.0000
  O   O5        1.0  0.8934446502147867  0.23063179500014241  0.5737073182203882  1.0000
  O   O6        1.0  0.7775990332503264  0.6084677712738643  0.5597800332616458  1.0000
  O   O7        1.0  0.7776453811848261  0.41280264405785894  0.7555814160204141  1.0000
  O   O8        1.0  0.7776209514129082  0.42649436158160164  0.37792799977856895  1.0000
  O   O9        1.0  0.7776672475676165  0.2308276740468611  0.5737294523583184  1.0000
