data_image0
_chemical_formula_structural       NC8NH4C12H10C6H6Zn2C4O8
_chemical_formula_sum              "N2 C30 H20 Zn2 O8"
_cell_length_a       14.927258825633057
_cell_length_b       13.024581838241813
_cell_length_c       10.681121600428288
_cell_angle_alpha    84.14087780974744
_cell_angle_beta     89.9998652976436
_cell_angle_gamma    93.7331727635998

_space_group_name_H-M_alt    "P 1"
_space_group_IT_number       1

loop_
  _space_group_symop_operation_xyz
  'x, y, z'

loop_
  _atom_site_type_symbol
  _atom_site_label
  _atom_site_symmetry_multiplicity
  _atom_site_fract_x
  _atom_site_fract_y
  _atom_site_fract_z
  _atom_site_occupancy
  N   N1        1.0  0.907703088742003  0.1288700743969066  0.584240231928455  1.0000
  C   C1        1.0  0.830176663319585  0.12887005547707964  0.5842402408910945  1.0000
  C   C2        1.0  0.7337440215619624  0.12887005526983694  0.5842402887515264  1.0000
  C   C3        1.0  0.6831031971521485  0.0657019196618014  0.5082026214994357  1.0000
  C   C4        1.0  0.5893918819459733  0.06570185540867235  0.5082025987292549  1.0000
  C   C5        1.0  0.5459280263087212  0.1288700932095274  0.5842402112994521  1.0000
  C   C6        1.0  0.5965688511415279  0.19203823619528412  0.6602777844369134  1.0000
  C   C7        1.0  0.6902802333391188  0.19203830044629203  0.6602778072123057  1.0000
  C   C8        1.0  0.4494953805984827  0.12887002338571762  0.584240165699299  1.0000
  N   N2        1.0  0.37196895955167353  0.12887008146017884  0.584240174007894  1.0000
  H   H1        1.0  0.7160072574168801  0.016553404943800747  0.44904107022924744  1.0000
  H   H2        1.0  0.5509036005719126  0.01655338801062588  0.4490411552184757  1.0000
  H   H3        1.0  0.5636647908767964  0.24118675091328465  0.7194393357071017  1.0000
  H   H4        1.0  0.7287684472987712  0.24118676046873852  0.7194393448325035  1.0000
  C   C9        1.0  0.12262417663112711  0.8259641572548495  0.5934865411860059  1.0000
  C   C10       1.0  0.0828282794655215  0.7634613022504206  0.506139673351224  1.0000
  C   C11       1.0  0.11244876919883957  0.6651690399719545  0.4949684379795285  1.0000
  C   C12       1.0  0.18186507028299642  0.6273390323974077  0.571496332783293  1.0000
  C   C13       1.0  0.2223245390248327  0.6898804219726201  0.6577997942798282  1.0000
  C   C14       1.0  0.192769133069844  0.7882040055855977  0.6690524055935099  1.0000
  C   C15       1.0  0.2142686769439539  0.5239049402805505  0.5582868919896531  1.0000
  C   C16       1.0  0.30431585030865627  0.5182376606353405  0.5224929134326375  1.0000
  C   C17       1.0  0.3373089679423882  0.42381295285958226  0.5008357578001266  1.0000
  C   C18       1.0  0.2809055815706003  0.3338122684786192  0.5143217303382711  1.0000
  C   C19       1.0  0.1915422508754758  0.3376034090641411  0.5510405315349185  1.0000
  C   C20       1.0  0.1570560262328471  0.4317680315932456  0.5750049954140326  1.0000
  H   H5        1.0  0.1105926220701472  0.06281177355963162  0.7015005168232199  1.0000
  H   H6        1.0  0.028925879721458228  0.7905462572421094  0.44620468647465633  1.0000
  H   H7        1.0  0.08136058197442164  0.6185180305503141  0.4264991813132748  1.0000
  H   H8        1.0  0.27645057825111286  0.6622047261490277  0.7169559902528699  1.0000
  H   H9        1.0  0.22493502444044197  0.8345848367877309  0.7369023586449911  1.0000
  H   H10       1.0  0.34879735685293206  0.5876458640551492  0.5091094611902346  1.0000
  H   H11       1.0  0.406621727143208  0.4205686926881309  0.47259254784094273  1.0000
  H   H12       1.0  0.30662142469900244  0.2606931216465704  0.49707784026796376  1.0000
  H   H13       1.0  0.1497137361831402  0.2661193666133129  0.5629605139318423  1.0000
  H   H14       1.0  0.9373999540739252  0.3467119522703134  0.6269533849962605  1.0000
  C   C21       1.0  0.1398401118528232  0.1288660782060036  0.21650052663525154  1.0000
  C   C22       1.0  0.07245923505253747  0.07149832353661534  0.1568281862926686  1.0000
  C   C23       1.0  0.07245918288018882  0.07149838967674559  0.025946044322006534  1.0000
  C   C24       1.0  0.13984004430212704  0.12886612876959558  0.9519909607690296  1.0000
  C   C25       1.0  0.20716529601833344  0.18618634275058496  0.011664171113243471  1.0000
  C   C26       1.0  0.20716528364773357  0.18618632675587313  0.14255647026424856  1.0000
  H   H15       1.0  0.20798007138874844  0.18688064106370753  0.5079883892432764  1.0000
  H   H16       1.0  0.019642922684636188  0.02653076610529248  0.21123686954452706  1.0000
  H   H17       1.0  0.019642906734803844  0.02653081465934148  0.9827328388377318  1.0000
  H   H18       1.0  0.2599885085626088  0.2311598257482645  0.9572996424547875  1.0000
  H   H19       1.0  0.25998846137167275  0.23115978958871825  0.18572401104233283  1.0000
  H   H20       1.0  0.2079803305567971  0.18688028168785054  0.6460593744934964  1.0000
  Zn  Zn1       1.0  0.041680041574339015  0.1288673069849  0.5842475387943217  1.0000
  Zn  Zn2       1.0  0.23799153852024757  0.12886438086883584  0.5842434087367852  1.0000
  C   C27       1.0  0.13960452578968296  0.12475685690640745  0.8130928993585194  1.0000
  C   C28       1.0  0.14006927199256336  0.13297613240461723  0.3553981313352291  1.0000
  C   C29       1.0  0.15054304901817828  0.31725819976635583  0.5735080794707097  1.0000
  C   C30       1.0  0.129130611339914  0.9404735502604598  0.5949830557971778  1.0000
  O   O1        1.0  0.21464511446523793  0.1343498936245073  0.40201200626847333  1.0000
  O   O2        1.0  0.2140245229325095  0.12338009667817264  0.7664755530556273  1.0000
  O   O3        1.0  0.2228565144912435  0.27882736556435284  0.573009083194681  1.0000
  O   O4        1.0  0.20581305633808106  0.9789026321181694  0.5954783820095775  1.0000
  O   O5        1.0  0.07385845676508994  0.2788290557376878  0.5730125655163174  1.0000
  O   O6        1.0  0.06502653563909488  0.1233830261378381  0.7664789307979126  1.0000
  O   O7        1.0  0.06564712518849114  0.134352787139133  0.40201387948476675  1.0000
  O   O8        1.0  0.05681506663834178  0.9789055182550743  0.5954803493405016  1.0000
