data_image0
_chemical_formula_structural       NC9NC4H8C6NO2H5C6SCNH5Zn2C4O8
_chemical_formula_sum              "N4 C30 H18 O10 S1 Zn2"
_cell_length_a       16.32274767691083
_cell_length_b       9.273392599741051
_cell_length_c       10.302218930750287
_cell_angle_alpha    85.67519561885129
_cell_angle_beta     89.48597253194706
_cell_angle_gamma    88.93063911827517

_space_group_name_H-M_alt    "P 1"
_space_group_IT_number       1

loop_
  _space_group_symop_operation_xyz
  'x, y, z'

loop_
  _atom_site_type_symbol
  _atom_site_label
  _atom_site_symmetry_multiplicity
  _atom_site_fract_x
  _atom_site_fract_y
  _atom_site_fract_z
  _atom_site_occupancy
  N   N1        1.0  0.7619423408662042  0.5684694652269651  0.5604034003640639  1.0000
  C   C1        1.0  0.7099152909879642  0.5157904333866457  0.5060173996113326  1.0000
  C   C2        1.0  0.6452448091247716  0.4503626657147876  0.4384695518119923  1.0000
  C   C3        1.0  0.6573216480400254  0.3608691560952124  0.34607182529099717  1.0000
  C   C4        1.0  0.5782117923871094  0.317195848154217  0.300984799283452  1.0000
  C   C5        1.0  0.5189044780590664  0.38111072624495934  0.3669761163004266  1.0000
  C   C6        1.0  0.42906591375922665  0.36421859787103905  0.3495387318892856  1.0000
  C   C7        1.0  0.3730337351291128  0.43871551731067315  0.4264484821883366  1.0000
  C   C8        1.0  0.288409763292663  0.42427869265782947  0.41154538896806536  1.0000
  C   C9        1.0  0.2319522477349236  0.5010657845382319  0.49081871905720115  1.0000
  N   N2        1.0  0.1865794205793649  0.5627899708622799  0.5545410507238451  1.0000
  C   C10       1.0  0.2587656374601492  0.3352244640519486  0.31960878580373286  1.0000
  C   C11       1.0  0.3134753199171117  0.2608262211690976  0.24280124928995722  1.0000
  C   C12       1.0  0.39794277287159163  0.27487418452007395  0.25730276549494646  1.0000
  C   C13       1.0  0.5561127484065815  0.47430567565828413  0.4631927822805799  1.0000
  H   H1        1.0  0.716432980708951  0.32606935069892073  0.3101404492864095  1.0000
  H   H2        1.0  0.5703449097990065  0.24405291431112272  0.22546806787223828  1.0000
  H   H3        1.0  0.3947389603451719  0.5082373556992874  0.49822060651471795  1.0000
  H   H4        1.0  0.1934435413256937  0.3233315112809172  0.3073319527343659  1.0000
  H   H5        1.0  0.2903703574684529  0.1919344729357313  0.17167986708075045  1.0000
  H   H6        1.0  0.4380726205966674  0.2153603791472323  0.19586207462384045  1.0000
  H   H7        1.0  0.5395851134172496  0.4357007751267046  0.564591207931176  1.0000
  H   H8        1.0  0.5386469544748226  0.5898861978335879  0.44126802144054067  1.0000
  C   C14       1.0  0.9767624060763724  0.1420677153488168  0.5566212519810454  1.0000
  C   C15       1.0  0.9663042147201689  0.22556308795791935  0.4381642393244589  1.0000
  C   C16       1.0  0.9486159939973091  0.16071267934119837  0.3241105642151776  1.0000
  C   C17       1.0  0.9408005265911348  0.010401086887385608  0.3253337919500508  1.0000
  C   C18       1.0  0.9525366375072163  0.9257203231362562  0.4428677901516844  1.0000
  C   C19       1.0  0.9717672770147787  0.9891804379577337  0.5583342740963839  1.0000
  N   N3        1.0  0.9218365467367682  0.9441506085827588  0.2074906847406639  1.0000
  O   O1        1.0  0.9110621821557541  0.027401675478852423  0.09237366523363355  1.0000
  O   O2        1.0  0.9146211987825656  0.8103138474971557  0.20779757118080291  1.0000
  H   H9        1.0  0.960140430764208  0.21874608740827003  0.8755076729857927  1.0000
  H   H10       1.0  0.9698853910499701  0.3423578568823378  0.4342788511470684  1.0000
  H   H11       1.0  0.9402258063270162  0.22874892106184008  0.23499232671266523  1.0000
  H   H12       1.0  0.9485791804843902  0.8091710349893156  0.4438466184169487  1.0000
  H   H13       1.0  0.9633675024440265  0.6911914817595685  0.7738115745158978  1.0000
  C   C20       1.0  0.9741880462758336  0.5656926733363514  0.17620380058294893  1.0000
  C   C21       1.0  0.05175539674696905  0.4974545741940555  0.17878119809169002  1.0000
  C   C22       1.0  0.0903190708377768  0.4630463691866102  0.06308604943841045  1.0000
  C   C23       1.0  0.05195623632088764  0.49727326422317764  0.9436238318501889  1.0000
  C   C24       1.0  0.9743416201225258  0.5655555002062529  0.9387517489895707  1.0000
  C   C25       1.0  0.9358701192757121  0.5993377160871649  0.055603885740683534  1.0000
  S   S1        1.0  0.18947171624398873  0.37649888332694914  0.06781381245589668  1.0000
  C   C26       1.0  0.14765002265395122  0.20181509677109608  0.08031385071582876  1.0000
  N   N4        1.0  0.12020754689472762  0.08730212507683399  0.08850903064716766  1.0000
  H   H14       1.0  0.9446787912045388  0.5917297117286648  0.5025529991849644  1.0000
  H   H15       1.0  0.08249090878890987  0.47050295355909605  0.2703772054172011  1.0000
  H   H16       1.0  0.08282940975304465  0.4701972990282495  0.8549504803818313  1.0000
  H   H17       1.0  0.8760453261099573  0.6519458408172467  0.0527693473863764  1.0000
  H   H18       1.0  0.8280845665730399  0.694398871185208  0.7223407404472373  1.0000
  Zn  Zn1       1.0  0.8844834599502094  0.566826613281646  0.5587191431849559  1.0000
  Zn  Zn2       1.0  0.06403837960306169  0.5644209848821129  0.5562359204993825  1.0000
  C   C27       1.0  0.9743446565884657  0.5598353920285395  0.794602267119056  1.0000
  C   C28       1.0  0.974179132993235  0.5714139997522754  0.32035290056354754  1.0000
  C   C29       1.0  0.9727062013595509  0.829059115581846  0.5528366736976038  1.0000
  C   C30       1.0  0.9758175371850243  0.3021885440796843  0.5621185605493797  1.0000
  O   O3        1.0  0.04231633496923837  0.5724149131473  0.3677882725425947  1.0000
  O   O4        1.0  0.04248549035190319  0.557007574293187  0.7452818106261421  1.0000
  O   O5        1.0  0.04116149874347941  0.7744091479249813  0.5500543991432516  1.0000
  O   O6        1.0  0.04364026522728093  0.35501335067194706  0.563015587543279  1.0000
  O   O7        1.0  0.9048815130526975  0.7762342483143065  0.5519394769816353  1.0000
  O   O8        1.0  0.9062054944249545  0.5588344076242917  0.747166822740722  1.0000
  O   O9        1.0  0.9060363390787572  0.574241696495565  0.36967172354278915  1.0000
  O   O10       1.0  0.9073602694138886  0.3568401236862657  0.5648991358662561  1.0000
