data_image0
_chemical_formula_structural       NC12NC2H8C7OC4NC3H8C7OC3OC4H12Zn2C4O8
_chemical_formula_sum              "N3 C46 H28 O11 Zn2"
_cell_length_a       17.80743265337812
_cell_length_b       10.299371701877257
_cell_length_c       10.299374482448636
_cell_angle_alpha    85.56746279880974
_cell_angle_beta     91.51588487774274
_cell_angle_gamma    89.44495547056906

_space_group_name_H-M_alt    "P 1"
_space_group_IT_number       1

loop_
  _space_group_symop_operation_xyz
  'x, y, z'

loop_
  _atom_site_type_symbol
  _atom_site_label
  _atom_site_symmetry_multiplicity
  _atom_site_fract_x
  _atom_site_fract_y
  _atom_site_fract_z
  _atom_site_occupancy
  N   N1        1.0  0.7078117420963421  0.4069638402360909  0.6018449467616862  1.0000
  C   C1        1.0  0.6570070059230814  0.4365363050245321  0.5331565526564153  1.0000
  C   C2        1.0  0.5938008976035235  0.47332230390060936  0.4477168376810703  1.0000
  C   C3        1.0  0.6055553188277354  0.5273681727927819  0.3211159773306667  1.0000
  C   C4        1.0  0.5442559900459505  0.5626501039226963  0.23807170599904984  1.0000
  C   C5        1.0  0.47104807968033585  0.5441497618573055  0.28096848453209455  1.0000
  C   C6        1.0  0.4583167909388565  0.4899849971250052  0.4080374480514568  1.0000
  C   C7        1.0  0.5204734390420419  0.4547063231691149  0.49106520873004267  1.0000
  C   C8        1.0  0.3805400585216807  0.4703699596677047  0.45379413320547823  1.0000
  C   C9        1.0  0.3617349195322446  0.49753137015454835  0.5808502473407137  1.0000
  C   C10       1.0  0.2884970603580589  0.479072593517758  0.6237876049650319  1.0000
  C   C11       1.0  0.2331212006078586  0.43319796923448295  0.5405067306950979  1.0000
  C   C12       1.0  0.15774643917338624  0.41418609024385306  0.5848448233220717  1.0000
  N   N2        1.0  0.0971504686902789  0.39890181818800063  0.6204895996185245  1.0000
  C   C13       1.0  0.25123473597973195  0.4058675391549876  0.4139935286577625  1.0000
  C   C14       1.0  0.3244197855709878  0.4243411515471158  0.3708002865944647  1.0000
  H   H1        1.0  0.6620283979480027  0.5421987346025487  0.2866841764347912  1.0000
  H   H2        1.0  0.5534750861731803  0.6047664598568305  0.14030738722666136  1.0000
  H   H3        1.0  0.42442296843416427  0.5737982255544359  0.2153881017764903  1.0000
  H   H4        1.0  0.5119526125920977  0.4112046796681643  0.5887045580057564  1.0000
  H   H5        1.0  0.4034036815995551  0.534697868312249  0.6464381502009097  1.0000
  H   H6        1.0  0.2750389833690757  0.5008989750036333  0.7218058833534156  1.0000
  H   H7        1.0  0.2088491472459403  0.3699682451516538  0.34881906308658683  1.0000
  H   H8        1.0  0.3373492667254447  0.4009791595210408  0.27308476817335814  1.0000
  C   C15       1.0  0.9024454294828976  0.021563174866558118  0.6110385481485425  1.0000
  C   C16       1.0  0.9061206096840548  0.03086040490450892  0.47454767534348763  1.0000
  C   C17       1.0  0.9071212438715197  0.9183984360452381  0.40560221362940196  1.0000
  C   C18       1.0  0.9061298446738598  0.7955918225834604  0.4748655180500037  1.0000
  C   C19       1.0  0.9025239712163143  0.7842923435348393  0.6113075252335396  1.0000
  C   C20       1.0  0.9005049735199809  0.8978834748580635  0.6785792919003915  1.0000
  C   C21       1.0  0.9117909549099741  0.9280555607171079  0.26157376351415884  1.0000
  O   O1        1.0  0.9479586554069285  0.8415728607836686  0.20835909575803593  1.0000
  C   C22       1.0  0.8754180157902386  0.03574145289740471  0.17791857105789413  1.0000
  C   C23       1.0  0.9076149753512561  0.07974752025876275  0.05948840988708671  1.0000
  C   C24       1.0  0.873222808309122  0.1803815958213368  0.9790495212600081  1.0000
  C   C25       1.0  0.9068776040941368  0.2255420459701456  0.8585029920499307  1.0000
  N   N3        1.0  0.93393455919211  0.2618414453072868  0.7616012252903914  1.0000
  C   C26       1.0  0.8060729898713456  0.23694095468936527  0.016006279820540485  1.0000
  C   C27       1.0  0.7732421677201319  0.19273779872999436  0.13266651166553212  1.0000
  C   C28       1.0  0.8074186360651784  0.09240566676233541  0.2130836731595087  1.0000
  H   H9        1.0  0.9090506620998267  0.12573601890924713  0.4218006002652566  1.0000
  H   H10       1.0  0.9074580277602041  0.7087393797030344  0.42191609469475627  1.0000
  H   H11       1.0  0.8976720891118845  0.8899120896167219  0.7838040461439466  1.0000
  H   H12       1.0  0.9017710628959186  0.45247808152354246  0.6637974998537731  1.0000
  H   H13       1.0  0.9597196750895008  0.036584940327245574  0.030406247338821805  1.0000
  H   H14       1.0  0.7790017935647816  0.3147320447220889  0.9544695369749001  1.0000
  H   H15       1.0  0.7210094019627538  0.23591948949951402  0.16058951855068962  1.0000
  H   H16       1.0  0.7802609193231701  0.05823673255456719  0.30194078432330085  1.0000
  C   C29       1.0  0.9025543025423418  0.4030138183583516  0.22979386631305215  1.0000
  C   C30       1.0  0.9810268004145013  0.41605325937677673  0.23118547435991246  1.0000
  C   C31       1.0  0.020511409841262655  0.4241033459811639  0.11459554964928409  1.0000
  C   C32       1.0  0.9808472228641935  0.41599310691502683  0.9959380018099077  1.0000
  C   C33       1.0  0.9024150857596114  0.4028417075570862  0.9925521660762656  1.0000
  C   C34       1.0  0.8637012287673095  0.3967696305553788  0.11000716862264315  1.0000
  C   C35       1.0  0.10346097675726695  0.43651175269250486  0.11603372874809326  1.0000
  O   O2        1.0  0.140312664953949  0.3822065008206019  0.031932729344663194  1.0000
  C   C36       1.0  0.1446009831359798  0.5105414387783703  0.2127976980432516  1.0000
  C   C37       1.0  0.21789248570834663  0.4723058674753314  0.25445898808061407  1.0000
  C   C38       1.0  0.2580273151885113  0.5417390276673664  0.3446087318046845  1.0000
  O   O3        1.0  0.33070813151714784  0.4983417330146105  0.383367933505582  1.0000
  C   C39       1.0  0.3777838965895306  0.5592377818098628  0.4740361332341681  1.0000
  C   C40       1.0  0.22445534516053933  0.651821071940804  0.3929537328170705  1.0000
  C   C41       1.0  0.15204110853326136  0.6913716938790082  0.3508243625178322  1.0000
  C   C42       1.0  0.11233985668488013  0.6216965458688348  0.2609363334401984  1.0000
  H   H17       1.0  0.7545952629039758  0.3764166014895433  0.4346491058706437  1.0000
  H   H18       1.0  0.011624483063683357  0.4185116684210821  0.3232430884306565  1.0000
  H   H19       1.0  0.011271889270424664  0.4212186994409035  0.9060033988829814  1.0000
  H   H20       1.0  0.8032046661155047  0.3867163227790719  0.1081306247509737  1.0000
  H   H21       1.0  0.8723556899536211  0.39670456504881063  0.6638815549753385  1.0000
  H   H22       1.0  0.24393721870409868  0.38745427774987756  0.2177983886378021  1.0000
  H   H23       1.0  0.43185520777527864  0.5047608096268197  0.48656562678052695  1.0000
  H   H24       1.0  0.3506558586297539  0.5579985781384693  0.5699711072857712  1.0000
  H   H25       1.0  0.3893442046387092  0.661004377994141  0.4369636612855195  1.0000
  H   H26       1.0  0.2539004877672344  0.7076492086709892  0.4625743745657239  1.0000
  H   H27       1.0  0.1267019809766654  0.7766977235263994  0.38754785299480266  1.0000
  H   H28       1.0  0.056789826207592105  0.6555736660715541  0.2280633698539274  1.0000
  Zn  Zn1       1.0  0.8201664900271765  0.4046338458467859  0.6072328767405007  1.0000
  Zn  Zn2       1.0  0.9847957152413681  0.4012212167093576  0.615112259239816  1.0000
  C   C43       1.0  0.9024391990512043  0.3977005970206593  0.8483726464675134  1.0000
  C   C44       1.0  0.9025248041088284  0.4081560668633844  0.3739727036031651  1.0000
  C   C45       1.0  0.9025062008824432  0.6401215585716846  0.6060811903111349  1.0000
  C   C46       1.0  0.9024577459278377  0.16573354615590463  0.6162642257611017  1.0000
  O   O4        1.0  0.9649908365780259  0.4085811117127238  0.4253506210843497  1.0000
  O   O5        1.0  0.9649229392259533  0.39468446597900164  0.8029746237852123  1.0000
  O   O6        1.0  0.9649762016001154  0.5904424754164928  0.6073225188531964  1.0000
  O   O7        1.0  0.9649375180457896  0.21282311275194132  0.6210026259536554  1.0000
  O   O8        1.0  0.8400246310428815  0.5930319509701798  0.6013425073309833  1.0000
  O   O9        1.0  0.8399713688385976  0.3972755018551217  0.7969945435657645  1.0000
  O   O10       1.0  0.8400392665209455  0.41117210268406645  0.41936897940864976  1.0000
  O   O11       1.0  0.8399859479669101  0.2154140944125538  0.6150210816449886  1.0000
