data_image0
_chemical_formula_structural       NC9NC5H8C6OCH8C8H8Zn2C4O8
_chemical_formula_sum              "N2 C33 H24 O9 Zn2"
_cell_length_a       17.807436237873137
_cell_length_b       9.273888216677435
_cell_length_c       9.27565708386181
_cell_angle_alpha    86.0490458067009
_cell_angle_beta     88.90332225934053
_cell_angle_gamma    87.81887448081709

_space_group_name_H-M_alt    "P 1"
_space_group_IT_number       1

loop_
  _space_group_symop_operation_xyz
  'x, y, z'

loop_
  _atom_site_type_symbol
  _atom_site_label
  _atom_site_symmetry_multiplicity
  _atom_site_fract_x
  _atom_site_fract_y
  _atom_site_fract_z
  _atom_site_occupancy
  N   N1        1.0  0.7066433895896133  0.5327787196142781  0.4037769679720362  1.0000
  C   C1        1.0  0.6463157678827779  0.4936278692661167  0.3913993994083105  1.0000
  C   C2        1.0  0.5712748370756339  0.44492852284856066  0.3760030482734778  1.0000
  C   C3        1.0  0.5541281737786132  0.36498223033858923  0.2591549787216163  1.0000
  C   C4        1.0  0.4812683590719661  0.31757458563792396  0.24411394689327692  1.0000
  C   C5        1.0  0.42450884418068  0.34969371865109644  0.3458834594251401  1.0000
  C   C6        1.0  0.34707656163221146  0.2994397288527823  0.32999030547467023  1.0000
  C   C7        1.0  0.2842947136675577  0.3904007104488736  0.3591101640510459  1.0000
  C   C8        1.0  0.21129370342038453  0.3427676332873142  0.34408351276527277  1.0000
  C   C9        1.0  0.1474443077153049  0.4367200626088905  0.3736180383569536  1.0000
  N   N2        1.0  0.09612241943879919  0.5122513222941623  0.39736296723505593  1.0000
  C   C10       1.0  0.20049262158806505  0.20388688566220148  0.29990783669908744  1.0000
  C   C11       1.0  0.2624172224958138  0.11291046835264494  0.27077860961835953  1.0000
  C   C12       1.0  0.3353021134436868  0.1601041226304898  0.2855788538649886  1.0000
  C   C13       1.0  0.44234293559882454  0.4301904093130216  0.46297686180937586  1.0000
  C   C14       1.0  0.5152575127118202  0.4773856558012024  0.4778443481588159  1.0000
  H   H1        1.0  0.5970157476193684  0.3395805864132899  0.17945688195294585  1.0000
  H   H2        1.0  0.4690861235122914  0.257455656984541  0.15185013191665764  1.0000
  H   H3        1.0  0.2920806731835361  0.49882682295127395  0.39155407012346166  1.0000
  H   H4        1.0  0.144278642801584  0.16601998619546057  0.28801113231276754  1.0000
  H   H5        1.0  0.2539342206471892  0.005388084904610844  0.2370053794783944  1.0000
  H   H6        1.0  0.382420719127659  0.0869677504810271  0.2641718351470532  1.0000
  H   H7        1.0  0.4001688334175498  0.45500104666058316  0.5441098462135643  1.0000
  H   H8        1.0  0.5279662738962254  0.538854078826368  0.5689566982569053  1.0000
  C   C15       1.0  0.903599815886873  0.09892851757223871  0.3990606695136902  1.0000
  C   C16       1.0  0.8866362054637098  0.1824241552440402  0.2705807636883617  1.0000
  C   C17       1.0  0.8632534246239052  0.11829973495719082  0.14786214312119034  1.0000
  C   C18       1.0  0.856697374981538  0.9676910501319606  0.15316274454519063  1.0000
  C   C19       1.0  0.8744600241932919  0.8829439558189869  0.27885656425993965  1.0000
  C   C20       1.0  0.8991731549846603  0.9460901477032608  0.40209162742906635  1.0000
  O   O1        1.0  0.8467260185887113  0.20796124751839806  0.02361316737490803  1.0000
  C   C21       1.0  0.8222471229418418  0.15764554185606316  0.891354491976866  1.0000
  H   H9        1.0  0.9081068989133335  0.17719725649080262  0.7537342391849216  1.0000
  H   H10       1.0  0.8898297043241223  0.29910947035060514  0.26625531588582707  1.0000
  H   H11       1.0  0.8385719261821072  0.9147306269144446  0.06022895188798237  1.0000
  H   H12       1.0  0.8705570192679211  0.7666787789436106  0.2784408253779979  1.0000
  H   H13       1.0  0.9053623612412518  0.6480551561110209  0.6399271810139882  1.0000
  H   H14       1.0  0.7682424238543143  0.10245313959253834  0.9088576306696367  1.0000
  H   H15       1.0  0.8655898462749477  0.08253090247653483  0.8474153101822086  1.0000
  H   H16       1.0  0.8134696724415608  0.2513842949865883  0.8117999593321548  1.0000
  C   C22       1.0  0.9033121875974656  0.5202339792439801  0.977216961671317  1.0000
  C   C23       1.0  0.9416677323135371  0.6281393891167919  0.04190964011612475  1.0000
  C   C24       1.0  0.9733550324481675  0.7425682441878594  0.9580547219317301  1.0000
  C   C25       1.0  0.9678073205464793  0.7480488137017023  0.8075253159624909  1.0000
  C   C26       1.0  0.9310716062055  0.6407036749360542  0.7413556132722894  1.0000
  C   C27       1.0  0.8994607963888707  0.5247846708026829  0.823935358148081  1.0000
  C   C28       1.0  0.01515527920768544  0.8560047970715543  0.02897014351022409  1.0000
  C   C29       1.0  0.09791941223903966  0.8104935810855332  0.04530807358927411  1.0000
  H   H17       1.0  0.9455674448089831  0.6252603383858266  0.1585611076880073  1.0000
  H   H18       1.0  0.9926829380895013  0.8348752463878869  0.7410372671656753  1.0000
  H   H19       1.0  0.8115954349587169  0.36321815026159704  0.5569674607135545  1.0000
  H   H20       1.0  0.010492315014227316  0.9609390754492988  0.9635722672784999  1.0000
  H   H21       1.0  0.9900737085597734  0.873658671177001  0.13731672469002243  1.0000
  H   H22       1.0  0.10380567470895041  0.7075977973074037  0.1136010260902276  1.0000
  H   H23       1.0  0.12443613213347329  0.795824150725988  0.9376502278784561  1.0000
  H   H24       1.0  0.12768960627991022  0.895489211382599  0.09768676699407529  1.0000
  Zn  Zn1       1.0  0.8190386053873387  0.5268511520829648  0.4019343499000718  1.0000
  Zn  Zn2       1.0  0.9837271929721217  0.518167195464247  0.39921739538971  1.0000
  C   C30       1.0  0.9002171434075821  0.5181781900963187  0.6638668962867977  1.0000
  C   C31       1.0  0.9025504431924435  0.5268418833972228  0.13728496734655216  1.0000
  C   C32       1.0  0.9000321649216866  0.7859278941636629  0.39577379246542854  1.0000
  C   C33       1.0  0.9027353741875491  0.25909044967851425  0.4053781427567309  1.0000
  O   O2        1.0  0.9647932884004033  0.5257577471774295  0.18997415969858555  1.0000
  O   O3        1.0  0.9629691331156737  0.5126703137675732  0.6091151794261891  1.0000
  O   O4        1.0  0.9628189113211497  0.7288816384410048  0.3926281205528525  1.0000
  O   O5        1.0  0.964943454435637  0.3095464352049268  0.4064611114399374  1.0000
  O   O6        1.0  0.8378222877237175  0.7354719153072227  0.3946906347694301  1.0000
  O   O7        1.0  0.8379725008089257  0.5192623232500921  0.6111776229735429  1.0000
  O   O8        1.0  0.8397966642904668  0.5323496970757713  0.19203486974801875  1.0000
  O   O9        1.0  0.8399468298848848  0.31613837536727707  0.4085219295409411  1.0000
