data_image0
_chemical_formula_structural       NC9NC5H8C6H6C7NH5Zn2C4O8
_chemical_formula_sum              "N3 C31 H19 Zn2 O8"
_cell_length_a       17.807436237873137
_cell_length_b       10.681118228259551
_cell_length_c       10.302823150593486
_cell_angle_alpha    85.56070310861249
_cell_angle_beta     89.3921433004221
_cell_angle_gamma    88.3900060031841

_space_group_name_H-M_alt    "P 1"
_space_group_IT_number       1

loop_
  _space_group_symop_operation_xyz
  'x, y, z'

loop_
  _atom_site_type_symbol
  _atom_site_label
  _atom_site_symmetry_multiplicity
  _atom_site_fract_x
  _atom_site_fract_y
  _atom_site_fract_z
  _atom_site_occupancy
  N   N1        1.0  0.7074118714924056  0.3382045755331819  0.5575855553872959  1.0000
  C   C1        1.0  0.6468243565592371  0.3042716193261412  0.5465650964580966  1.0000
  C   C2        1.0  0.571460147113367  0.2620627586973054  0.5328568421389035  1.0000
  C   C3        1.0  0.5533688165505406  0.193198737266018  0.427887085907302  1.0000
  C   C4        1.0  0.4801940580161343  0.15210967223356597  0.41449465207378927  1.0000
  C   C5        1.0  0.4240619116467853  0.179520581585773  0.5060395328547118  1.0000
  C   C6        1.0  0.3462960063797703  0.13596429997295736  0.4918888924809585  1.0000
  C   C7        1.0  0.28411961899611604  0.2148006153436881  0.517819666130819  1.0000
  C   C8        1.0  0.2108025556371019  0.17351576306855482  0.5044409089902362  1.0000
  C   C9        1.0  0.1475760776995163  0.2549473141629637  0.5307354722065893  1.0000
  N   N2        1.0  0.0967549777323423  0.32041264747628895  0.551875574771062  1.0000
  C   C10       1.0  0.19907833488238094  0.05314582865284079  0.4651060363041044  1.0000
  C   C11       1.0  0.2603973524523502  0.9742961557329772  0.43916687559545164  1.0000
  C   C12       1.0  0.33359498403676774  0.015200558147143278  0.45234315802710084  1.0000
  C   C13       1.0  0.44284464643920324  0.2488613131359121  0.6112284498364216  1.0000
  C   C14       1.0  0.5160722764563844  0.289766784140298  0.6244652819019489  1.0000
  H   H1        1.0  0.5957637894474809  0.1715169528886762  0.35619693883934017  1.0000
  H   H2        1.0  0.46728157247548247  0.1003450249254787  0.3316003237539178  1.0000
  H   H3        1.0  0.2926170427550302  0.30878462176110427  0.5466876344412581  1.0000
  H   H4        1.0  0.1426133248423131  0.020325352961516167  0.45451448205756884  1.0000
  H   H5        1.0  0.2512015846212201  0.8811029684692443  0.40909887498945635  1.0000
  H   H6        1.0  0.3802358452626524  0.9518035536330118  0.4333007404964073  1.0000
  H   H7        1.0  0.4011665531425194  0.2700232909869693  0.6842126867371071  1.0000
  H   H8        1.0  0.5295131119309148  0.3427084334884677  0.7063183125149006  1.0000
  C   C15       1.0  0.9020870230300926  0.9615584574129082  0.5547361195484724  1.0000
  C   C16       1.0  0.935067136866161  0.8855380855179666  0.6573571143511525  1.0000
  C   C17       1.0  0.9350671253802209  0.7546558478670505  0.657357055162991  1.0000
  C   C18       1.0  0.9020870104166362  0.6970488619461271  0.5547361758562364  1.0000
  C   C19       1.0  0.869134197628179  0.7730565864716622  0.4521999836928452  1.0000
  C   C20       1.0  0.8691342090765025  0.9039488440473477  0.45220003621714056  1.0000
  H   H9        1.0  0.8687349982156254  0.2695786740804389  0.4509590484378907  1.0000
  H   H10       1.0  0.9609185505745951  0.9271323631096466  0.737796252413698  1.0000
  H   H11       1.0  0.9609184582076741  0.6986283387348153  0.7377962308352156  1.0000
  H   H12       1.0  0.8432794132544779  0.7315080059632247  0.3717503426942783  1.0000
  H   H13       1.0  0.8432793935619437  0.9599324458970133  0.3717503324264475  1.0000
  H   H14       1.0  0.8687352748138759  0.4076493105511905  0.45095869318552645  1.0000
  C   C21       1.0  0.9020870219048488  0.3293036604865202  0.17348806922764637  1.0000
  C   C22       1.0  0.8233609116346347  0.34197796919858114  0.17281317657824122  1.0000
  C   C23       1.0  0.7841939296886189  0.348283454452915  0.055374903374540756  1.0000
  C   C24       1.0  0.8233608970262664  0.34197788809327334  0.9375121829439288  1.0000
  C   C25       1.0  0.902087021456273  0.32930365400107103  0.9359842358491512  1.0000
  C   C26       1.0  0.9410387406891643  0.32303269269904056  0.05452509224506951  1.0000
  C   C27       1.0  0.7034881515303164  0.3612762748047235  0.05581213467076251  1.0000
  N   N3        1.0  0.6386270756758086  0.37171841028258434  0.05616349109008434  1.0000
  H   H15       1.0  0.9319068356871681  0.3245032084820192  0.50106593095094  1.0000
  H   H16       1.0  0.792312335932354  0.34697655402643757  0.26340564594169064  1.0000
  H   H17       1.0  0.7923123657279486  0.3469764604591825  0.8472561090069757  1.0000
  H   H18       1.0  0.0017494811827458733  0.31325874369723183  0.054196202159689344  1.0000
  H   H19       1.0  0.9319068105163282  0.32450300860259995  0.6080832310124675  1.0000
  Zn  Zn1       1.0  0.8197678804862211  0.3330668678838151  0.5559452867361256  1.0000
  Zn  Zn2       1.0  0.9843989505413712  0.32554014698984757  0.5535265166505292  1.0000
  C   C28       1.0  0.9020853290912256  0.32431478730192964  0.7918561489398567  1.0000
  C   C29       1.0  0.9020832997024821  0.33429372548365505  0.3176157554600867  1.0000
  C   C30       1.0  0.9020831385331386  0.5580256713761351  0.5495626894691696  1.0000
  C   C31       1.0  0.9020854340835344  0.10058133939456049  0.5599092849727092  1.0000
  O   O1        1.0  0.9645586836014236  0.33310662211371395  0.3650684129399957  1.0000
  O   O2        1.0  0.9645611180605221  0.3197883389338132  0.7425673272038563  1.0000
  O   O3        1.0  0.964558506942231  0.5085128720061928  0.5469136567890052  1.0000
  O   O4        1.0  0.9645612385422851  0.14438210056816114  0.5607219868363953  1.0000
  O   O5        1.0  0.8396055363048024  0.5142249168753648  0.5487498173688375  1.0000
  O   O6        1.0  0.8396081474196234  0.3255018883877376  0.7444034185603329  1.0000
  O   O7        1.0  0.8396057130105327  0.33882012792557403  0.3669029433897781  1.0000
  O   O8        1.0  0.8396082679483193  0.15009559742305756  0.5625566146232084  1.0000
