data_image0
_chemical_formula_structural       NC8NH4C7NH5C7F3H5Zn2C4O8
_chemical_formula_sum              "N3 C26 H14 F3 Zn2 O8"
_cell_length_a       14.927258825633057
_cell_length_b       9.275154477615127
_cell_length_c       9.272721663655247
_cell_angle_alpha    86.10781498077147
_cell_angle_beta     90.5161791453222
_cell_angle_gamma    89.43370909507247

_space_group_name_H-M_alt    "P 1"
_space_group_IT_number       1

loop_
  _space_group_symop_operation_xyz
  'x, y, z'

loop_
  _atom_site_type_symbol
  _atom_site_label
  _atom_site_symmetry_multiplicity
  _atom_site_fract_x
  _atom_site_fract_y
  _atom_site_fract_z
  _atom_site_occupancy
  N   N1        1.0  0.8250658894766028  0.5691383119398881  0.4156742261500721  1.0000
  C   C1        1.0  0.7475394653445846  0.5691382855472851  0.41567423570115447  1.0000
  C   C2        1.0  0.6511068239070927  0.5691382855619096  0.4156742908032147  1.0000
  C   C3        1.0  0.6040954342347498  0.48034677826164324  0.3255498822535561  1.0000
  C   C4        1.0  0.5103841230699829  0.48034668829206373  0.32554985342165305  1.0000
  C   C5        1.0  0.4632908256851653  0.5691383381084318  0.41567420316100945  1.0000
  C   C6        1.0  0.5103022146967459  0.6579298551241479  0.5057985036392123  1.0000
  C   C7        1.0  0.6040135928531  0.6579299450907948  0.5057985324770309  1.0000
  C   C8        1.0  0.3668581842331052  0.5691382402059584  0.41567414781428114  1.0000
  N   N2        1.0  0.2893317594548928  0.5691383214459032  0.4156741597426963  1.0000
  H   H1        1.0  0.6398234089854662  0.4112617787530417  0.25542805238585276  1.0000
  H   H2        1.0  0.4747197537885066  0.41126175562120104  0.2554281495610533  1.0000
  H   H3        1.0  0.47457423994602943  0.7270148546327493  0.5759203335069161  1.0000
  H   H4        1.0  0.6396778958037516  0.7270148680491406  0.5759203444031717  1.0000
  C   C9        1.0  0.05978618108193112  0.14573978283368993  0.4140055654751582  1.0000
  C   C10       1.0  0.03448915992783008  0.22821673399904596  0.28686575620625865  1.0000
  C   C11       1.0  0.0019429376564399357  0.16151336913612924  0.16646073273713946  1.0000
  C   C12       1.0  0.9941609889246049  0.01142220689953466  0.17177748831468942  1.0000
  C   C13       1.0  0.02027217421811512  0.9277215760276563  0.2960192467906415  1.0000
  C   C14       1.0  0.05462020100295194  0.9925258004718469  0.417355324185521  1.0000
  C   C15       1.0  0.9754455587845409  0.24756367013754496  0.037788557284364366  1.0000
  N   N3        1.0  0.9541490008818467  0.3167323881199348  0.9343690873016439  1.0000
  H   H5        1.0  0.07912549019306758  0.22436557330396356  0.7679608460437417  1.0000
  H   H6        1.0  0.03812388919866816  0.34515250555080224  0.282587202450709  1.0000
  H   H7        1.0  0.9686698336489681  0.9587845831257199  0.0792386657731794  1.0000
  H   H8        1.0  0.015567348540910023  0.8112532794803069  0.29589234443460843  1.0000
  H   H9        1.0  0.07143693929955242  0.6950652814892448  0.6545154300600105  1.0000
  C   C16       1.0  0.05484719409245907  0.5667942529961034  0.992227947220008  1.0000
  C   C17       1.0  0.09369379220389717  0.44886239311109954  0.07448376782353239  1.0000
  C   C18       1.0  0.14033985601849625  0.33950673545456866  0.008146170351781116  1.0000
  C   C19       1.0  0.14540640271882954  0.34614612407268086  0.8570226152724385  1.0000
  C   C20       1.0  0.10604719418059738  0.4610761078853429  0.7737866179091659  1.0000
  C   C21       1.0  0.05955920375352797  0.571471328363554  0.8391328764912398  1.0000
  C   C22       1.0  0.17945657302509566  0.21203946806637794  0.09798928761956849  1.0000
  F   F1        1.0  0.20937009223750702  0.25394393546956673  0.23038800103857038  1.0000
  F   F2        1.0  0.25122911612747756  0.15240206958716418  0.02863345343709467  1.0000
  F   F3        1.0  0.114320373090955  0.10825771509286253  0.12061445999895559  1.0000
  H   H10       1.0  0.9959674171011476  0.9101302804141769  0.06980551201348018  1.0000
  H   H11       1.0  0.0892519378465606  0.44374007509885205  0.19130913877098  1.0000
  H   H12       1.0  0.1790346243021403  0.2614491287934604  0.8027797086098185  1.0000
  H   H13       1.0  0.1098831510706646  0.4615372406324047  0.6571338243506082  1.0000
  H   H14       1.0  0.897313493608203  0.8146551475416552  0.7188040257994408  1.0000
  Zn  Zn1       1.0  0.9590430694699273  0.5691344896095809  0.41568252736564726  1.0000
  Zn  Zn2       1.0  0.15535473064700667  0.569130372685818  0.4156776527026895  1.0000
  C   C23       1.0  0.05870155783330566  0.5648433875481792  0.6790270064894215  1.0000
  C   C24       1.0  0.05569837568988411  0.5734232946912374  0.15233332225430862  1.0000
  C   C25       1.0  0.05556009520414972  0.8324334648932374  0.41097586776571915  1.0000
  C   C26       1.0  0.05883978232731856  0.3058314855128969  0.4203845310062282  1.0000
  O   O1        1.0  0.13048333071378626  0.575640209142795  0.20606427390473914  1.0000
  O   O2        1.0  0.13291261562634737  0.5626222584593121  0.6252919356804401  1.0000
  O   O3        1.0  0.13037484888081918  0.778704638355356  0.40883875061014296  1.0000
  O   O4        1.0  0.13302102980696487  0.3595578389651335  0.4225173508976652  1.0000
  O   O5        1.0  0.981376703318382  0.7787070233331979  0.40884282916475634  1.0000
  O   O6        1.0  0.9839144590640448  0.5626263752733687  0.6252959442009214  1.0000
  O   O7        1.0  0.981485164871672  0.5756442661389527  0.20606654852725614  1.0000
  O   O8        1.0  0.9840228646256135  0.3595618862458412  0.42251973359163886  1.0000
