data_image0
_chemical_formula_structural       NC6NC2H4C6ClH5C9H9Zn2C4O8
_chemical_formula_sum              "N2 C27 H18 Cl1 Zn2 O8"
_cell_length_a       14.927258858638513
_cell_length_b       9.276545438789551
_cell_length_c       9.273585224739815
_cell_angle_alpha    86.17382153224601
_cell_angle_beta     90.10206986439101
_cell_angle_gamma    89.40960950127158

_space_group_name_H-M_alt    "P 1"
_space_group_IT_number       1

loop_
  _space_group_symop_operation_xyz
  'x, y, z'

loop_
  _atom_site_type_symbol
  _atom_site_label
  _atom_site_symmetry_multiplicity
  _atom_site_fract_x
  _atom_site_fract_y
  _atom_site_fract_z
  _atom_site_occupancy
  N   N1        1.0  0.8318080671027926  0.5619604251845203  0.4110865151223724  1.0000
  C   C1        1.0  0.7542815761286769  0.5619603967852064  0.4110865256926215  1.0000
  C   C2        1.0  0.6578490677955797  0.5619605113658311  0.4110864759082251  1.0000
  C   C3        1.0  0.6108163964386403  0.5369889760754525  0.2844071781868813  1.0000
  C   C4        1.0  0.5171050847919547  0.5369890003566071  0.28440704476542944  1.0000
  C   C5        1.0  0.4700330049599827  0.5619603340238091  0.411086494430144  1.0000
  C   C6        1.0  0.3736004296353244  0.5619604486073375  0.41108644463982635  1.0000
  N   N2        1.0  0.29607393866120846  0.5619604202080242  0.41108645521007503  1.0000
  C   C7        1.0  0.5170656093253604  0.586931869317092  0.5377657921455665  1.0000
  C   C8        1.0  0.6107769209720463  0.5869318450359371  0.5377659255670186  1.0000
  H   H1        1.0  0.6465279233589203  0.517559712404168  0.18584341409940874  1.0000
  H   H2        1.0  0.4814242665780225  0.5175599098703005  0.18584340928106213  1.0000
  H   H3        1.0  0.4813541495715631  0.6063611237668562  0.6363296642945968  1.0000
  H   H4        1.0  0.6464577386752743  0.6063610339550916  0.6363296711196871  1.0000
  C   C9        1.0  0.06664874518142133  0.13852286324175256  0.4108489000151687  1.0000
  C   C10       1.0  0.06684063748599826  0.22082650497752085  0.27781553974800155  1.0000
  C   C11       1.0  0.05888549662348133  0.15442862280338043  0.14767767484345762  1.0000
  C   C12       1.0  0.05055128173032533  0.004846531685614555  0.14857103109234138  1.0000
  C   C13       1.0  0.05173880821078372  0.9209797351863923  0.27916256225449176  1.0000
  C   C14       1.0  0.06124195451110093  0.9853870319216763  0.41133656302755184  1.0000
  Cl  Cl1       1.0  0.05800932253990988  0.2593829213456831  0.9831303929121517  1.0000
  H   H5        1.0  0.11271638118862165  0.4037777131231966  0.6374523672766255  1.0000
  H   H6        1.0  0.07103513412289297  0.33751815898192383  0.27496192264668307  1.0000
  H   H7        1.0  0.04400492865133712  0.9531048695532324  0.04788860810015682  1.0000
  H   H8        1.0  0.04735621416045556  0.8046924178679521  0.2765122125372952  1.0000
  H   H9        1.0  0.03146916472858676  0.6890127597744459  0.6444012882105439  1.0000
  C   C15       1.0  0.06350376962596373  0.5576666835295052  0.9878387331031977  1.0000
  C   C16       1.0  0.143655992020582  0.5255514823780858  0.0637770097161725  1.0000
  C   C17       1.0  0.2249377443912587  0.5064143548505687  0.9915056124176886  1.0000
  C   C18       1.0  0.22533359040098938  0.5202031361743629  0.8394543266054102  1.0000
  C   C19       1.0  0.1461560577190819  0.5496072418684994  0.7625107694120281  1.0000
  C   C20       1.0  0.0643869125404804  0.5662431644797761  0.8343467122965658  1.0000
  C   C21       1.0  0.3081819062519304  0.4733468613731535  0.08300177317200852  1.0000
  C   C22       1.0  0.37886354894102325  0.3744107172897635  0.02270685721756926  1.0000
  C   C23       1.0  0.39640741820649694  0.5356367095695507  0.02670357742162  1.0000
  H   H10       1.0  0.9157570266210842  0.5388358504664783  0.2691121172980133  1.0000
  H   H11       1.0  0.1432737104923059  0.5185926378075332  0.18094251132841754  1.0000
  H   H12       1.0  0.28617669568219883  0.5071744517199601  0.7785124944408972  1.0000
  H   H13       1.0  0.9304730426772856  0.6686981165652273  0.5457355970328988  1.0000
  H   H14       1.0  0.30235333124479324  0.46404725412741604  0.2027582674844821  1.0000
  H   H15       1.0  0.36705120548478165  0.3373055109278502  0.913107655520923  1.0000
  H   H16       1.0  0.4164739844697616  0.30689857127274656  0.10618927465507855  1.0000
  H   H17       1.0  0.39521205729798137  0.5962899694877482  0.91951935403557  1.0000
  H   H18       1.0  0.444262957767513  0.5623801875149701  0.1125264654983298  1.0000
  Zn  Zn1       1.0  0.9657852102766139  0.5619566443348376  0.4110948238892991  1.0000
  Zn  Zn2       1.0  0.16209689411211892  0.5619525098587148  0.4110899629469751  1.0000
  C   C24       1.0  0.0642546515726885  0.5588776455209841  0.6743352738519102  1.0000
  C   C25       1.0  0.06362958506529554  0.5650333294359173  0.14784965544480078  1.0000
  C   C26       1.0  0.062253332359060436  0.8252534528366893  0.40550082196421333  1.0000
  C   C27       1.0  0.0656308484322821  0.29865579048107493  0.416684183179564  1.0000
  O   O1        1.0  0.13817111096792073  0.5674977833574477  0.20154893437580013  1.0000
  O   O2        1.0  0.13870915787023086  0.5564089616286894  0.6206318900468886  1.0000
  O   O3        1.0  0.13709206457296186  0.7715108100232901  0.4035461689874422  1.0000
  O   O4        1.0  0.1397881370987083  0.35239594418436737  0.41863454737368877  1.0000
  O   O5        1.0  0.9880939002984633  0.7715132100120896  0.4035502394566637  1.0000
  O   O6        1.0  0.9897109824508132  0.5564130932595304  0.6206358846631221  1.0000
  O   O7        1.0  0.9891729341210203  0.5675018471832218  0.20155119607652128  1.0000
  O   O8        1.0  0.990789960426728  0.3523999987915251  0.41863691713004614  1.0000
