data_image0
_chemical_formula_structural       NC8NH4C6NH7C6OCH6Zn2C4O8
_chemical_formula_sum              "N3 C25 H17 O9 Zn2"
_cell_length_a       13.859017124695912
_cell_length_b       9.274771166103582
_cell_length_c       9.273891588657152
_cell_angle_alpha    85.97469330815719
_cell_angle_beta     89.68011635111247
_cell_angle_gamma    90.59707951677755

_space_group_name_H-M_alt    "P 1"
_space_group_IT_number       1

loop_
  _space_group_symop_operation_xyz
  'x, y, z'

loop_
  _atom_site_type_symbol
  _atom_site_label
  _atom_site_symmetry_multiplicity
  _atom_site_fract_x
  _atom_site_fract_y
  _atom_site_fract_z
  _atom_site_occupancy
  N   N1        1.0  0.9254489850972366  0.5642850619992029  0.4072190600037251  1.0000
  C   C1        1.0  0.8531411546770319  0.540913978059159  0.3510976553257661  1.0000
  C   C2        1.0  0.7631945063950176  0.5118437606457578  0.2812898399235535  1.0000
  C   C3        1.0  0.6755227140769501  0.5401842664687706  0.34934367578087255  1.0000
  C   C4        1.0  0.5879641972217388  0.5118449815127373  0.28128925838150476  1.0000
  C   C5        1.0  0.5882599060446455  0.45515750059815385  0.14516011365400083  1.0000
  C   C6        1.0  0.6757489191129529  0.4269259235848173  0.07736823552127814  1.0000
  C   C7        1.0  0.7631252441873148  0.4551551612544574  0.14516129630265806  1.0000
  C   C8        1.0  0.49790132425726463  0.5409149003232374  0.35109715561381316  1.0000
  N   N2        1.0  0.4255001137313911  0.564285382731173  0.4072188434041195  1.0000
  H   H1        1.0  0.6754350372606963  0.5840625728162261  0.4547108936423443  1.0000
  H   H2        1.0  0.5210090492062979  0.4328524344933167  0.09159429135052988  1.0000
  H   H3        1.0  0.6758364896411484  0.3831372292900018  0.9722144026982362  1.0000
  H   H4        1.0  0.8304652267571749  0.4328480029742541  0.09159647707070939  1.0000
  C   C9        1.0  0.17251396346428516  0.1406957742342485  0.4080046055482227  1.0000
  C   C10       1.0  0.15078389693914196  0.22284114123738052  0.27910860593446407  1.0000
  C   C11       1.0  0.13806564890347306  0.156620996369822  0.14939481346226313  1.0000
  C   C12       1.0  0.14713150164884614  0.006869531680835149  0.14763749142881166  1.0000
  C   C13       1.0  0.16708382286723533  0.9233887540471984  0.27476283745271135  1.0000
  C   C14       1.0  0.17844425740649328  0.98786374828557  0.4064458334177099  1.0000
  N   N3        1.0  0.11693360635868277  0.24185307567165992  0.01908217179403771  1.0000
  H   H5        1.0  0.2799460623256722  0.2232032876784256  0.7234527502255805  1.0000
  H   H6        1.0  0.1459208329415982  0.3394288486550701  0.27855493644855134  1.0000
  H   H7        1.0  0.13780277126257778  0.9544815282546835  0.0478358147985567  1.0000
  H   H8        1.0  0.17135125496077658  0.8071874837069164  0.27063481690307967  1.0000
  H   H9        1.0  0.24688542111823564  0.6927345351964673  0.6210622636173955  1.0000
  H   H10       1.0  0.1102858022413431  0.3539265496790558  0.019035358957098843  1.0000
  H   H11       1.0  0.1076870093996305  0.19350367449177885  0.9216509037847902  1.0000
  C   C15       1.0  0.17703305909430878  0.5604594817473908  0.983956901059324  1.0000
  C   C16       1.0  0.2564777339674098  0.6213858059985762  0.05241846648428216  1.0000
  C   C17       1.0  0.3305246853372623  0.6930832945518013  0.9724767688709289  1.0000
  C   C18       1.0  0.32539248086704253  0.7042159046361627  0.8210156738176564  1.0000
  C   C19       1.0  0.24796883455248306  0.6424161720928636  0.751213516834587  1.0000
  C   C20       1.0  0.17392512539865712  0.5680999498329583  0.8304934843318446  1.0000
  O   O1        1.0  0.4073218509436698  0.7522336169337704  0.047574510887426376  1.0000
  C   C21       1.0  0.4873096484557926  0.8281476178328012  0.9803584272245138  1.0000
  H   H12       1.0  0.9469057407566174  0.47186420310743304  0.09513724222420872  1.0000
  H   H13       1.0  0.3813608669984536  0.7592975871171732  0.7559921661075104  1.0000
  H   H14       1.0  0.020416752073205483  0.5027342625930026  0.5551711669920181  1.0000
  H   H15       1.0  0.46209234533149146  0.9257602167525629  0.9157832498075851  1.0000
  H   H16       1.0  0.5270404730896194  0.7565584821266322  0.9100774698078586  1.0000
  H   H17       1.0  0.536942926230734  0.8626262220791242  0.06513851265818738  1.0000
  Zn  Zn1       1.0  0.06975288459722173  0.5642813785281893  0.4072273326353282  1.0000
  Zn  Zn2       1.0  0.28119608082486613  0.5642774061402933  0.4072224143558081  1.0000
  C   C22       1.0  0.17447022940281445  0.560909334230123  0.6704905354577135  1.0000
  C   C23       1.0  0.1764810571934352  0.567651271699754  0.1439593496014846  1.0000
  C   C24       1.0  0.17733941457782068  0.8276790961837751  0.4009967038241451  1.0000
  C   C25       1.0  0.17361178745402328  0.3008797774004493  0.41345326127113924  1.0000
  O   O2        1.0  0.2565373472841521  0.5700571016206484  0.19765577809039825  1.0000
  O   O3        1.0  0.2548944266922233  0.5584993974281882  0.616789961191808  1.0000
  O   O4        1.0  0.2572102428094438  0.7739193675172672  0.3991717826995431  1.0000
  O   O5        1.0  0.2542214594846943  0.3546371408762252  0.4152738484925449  1.0000
  O   O6        1.0  0.09672743378224657  0.7739216437951149  0.3991758984926854  1.0000
  O   O7        1.0  0.09441163007428544  0.5585034060545466  0.6167939969429583  1.0000
  O   O8        1.0  0.09605455674072427  0.570061044339931  0.19765808098886706  1.0000
  O   O9        1.0  0.09373866846835721  0.3546410742537096  0.41527625947522684  1.0000
