data_image0
_chemical_formula_structural       NC6NC2H4C6NCH9C6NH7Zn2C4O8
_chemical_formula_sum              "N4 C25 H20 Zn2 O8"
_cell_length_a       14.927258858638513
_cell_length_b       9.273386996610927
_cell_length_c       9.274774538082514
_cell_angle_alpha    84.97283399596293
_cell_angle_beta     90.34966586359073
_cell_angle_gamma    89.39858807063658

_space_group_name_H-M_alt    "P 1"
_space_group_IT_number       1

loop_
  _space_group_symop_operation_xyz
  'x, y, z'

loop_
  _atom_site_type_symbol
  _atom_site_label
  _atom_site_symmetry_multiplicity
  _atom_site_fract_x
  _atom_site_fract_y
  _atom_site_fract_z
  _atom_site_occupancy
  N   N1        1.0  0.8271361091487477  0.5927571791192681  0.4054227765649563  1.0000
  C   C1        1.0  0.7496096182080403  0.5927571505054211  0.4054227872131637  1.0000
  C   C2        1.0  0.6531771097200728  0.5927572660861842  0.40542273710448584  1.0000
  C   C3        1.0  0.605791286837445  0.5701608840532113  0.27862628957497404  1.0000
  C   C4        1.0  0.5120799748122722  0.5701609108630576  0.2786261559169971  1.0000
  C   C5        1.0  0.4653610469595119  0.5927570882998199  0.40542275604837474  1.0000
  C   C6        1.0  0.3689284714799662  0.5927572038835998  0.40542270593376034  1.0000
  N   N2        1.0  0.2914019805392589  0.5927571752697529  0.40542271658196816  1.0000
  C   C7        1.0  0.5127468028505622  0.6153534703358103  0.53221920357195  1.0000
  C   C8        1.0  0.6064581148757344  0.6153534435259638  0.5322193372299271  1.0000
  H   H1        1.0  0.641228041599338  0.5525796259453757  0.17997137615960068  1.0000
  H   H2        1.0  0.47612438477935437  0.5525798236082613  0.1799713708929851  1.0000
  H   H3        1.0  0.47731011556034675  0.6329347171796726  0.6308742252170872  1.0000
  H   H4        1.0  0.6424137046948712  0.6329346271910532  0.6308742322523879  1.0000
  C   C9        1.0  0.06203086652021653  0.16909700360888438  0.4061319738561141  1.0000
  C   C10       1.0  0.07725815066007603  0.25370874748374916  0.2756359900602947  1.0000
  C   C11       1.0  0.0840505720009439  0.19034207346764645  0.1451319402353728  1.0000
  C   C12       1.0  0.07571321401975517  0.040070529986696794  0.1417871888237321  1.0000
  C   C13       1.0  0.062062890564058136  0.9544998183566153  0.27182985868857634  1.0000
  C   C14       1.0  0.05651591363952725  0.016406100715242074  0.40472606913178666  1.0000
  N   N3        1.0  0.08173795792243604  0.9716908896522913  0.008588753875646168  1.0000
  C   C15       1.0  0.09611931714946764  0.05081359089761061  0.8677486445713765  1.0000
  H   H5        1.0  0.08124533499765056  0.429178754282447  0.6430814443110104  1.0000
  H   H6        1.0  0.08182055376037428  0.37037005669544376  0.273865317567699  1.0000
  H   H7        1.0  0.09497053599466888  0.2597977200652066  0.04709688723548487  1.0000
  H   H8        1.0  0.057825709858483794  0.8381185717440216  0.26955305007114627  1.0000
  H   H9        1.0  0.09085349093424538  0.8819836558028888  0.7562496915750888  1.0000
  H   H10       1.0  0.07541602528849595  0.8592977108194746  0.011581576505943266  1.0000
  H   H11       1.0  0.0404872266109493  0.12960547840715828  0.8426724209863852  1.0000
  H   H12       1.0  0.16096114054184407  0.10836330800760607  0.8679815327585687  1.0000
  H   H13       1.0  0.09804867953078135  0.974120888308748  0.782306359399974  1.0000
  C   C16       1.0  0.05764166616900293  0.5964414969560063  0.9816065700895699  1.0000
  C   C17       1.0  0.1205650211383325  0.6815783297034255  0.048201804995581896  1.0000
  C   C18       1.0  0.18758473589798574  0.7548309929203108  0.9673153325356124  1.0000
  C   C19       1.0  0.19222559475307832  0.7432790506369686  0.8183570849249606  1.0000
  C   C20       1.0  0.12956896637545734  0.6613203552919729  0.750054013959347  1.0000
  C   C21       1.0  0.060905124634704794  0.5890615868084983  0.8292514415647756  1.0000
  N   N4        1.0  0.25153782774821376  0.8397671137190283  0.03691614551477239  1.0000
  H   H14       1.0  0.9255711410134869  0.3144177562501633  0.10799485992985011  1.0000
  H   H15       1.0  0.11890793034167808  0.6884206918340141  0.1642105810256662  1.0000
  H   H16       1.0  0.24397516156455  0.7990194415351372  0.7547338185401307  1.0000
  H   H17       1.0  0.13358981103251963  0.6573072978757857  0.6338876228268266  1.0000
  H   H18       1.0  0.9691711039398315  0.40350069600870064  0.5634775707941961  1.0000
  H   H19       1.0  0.24887751970947636  0.8488142741054878  0.14827105677589825  1.0000
  H   H20       1.0  0.3020017565555533  0.8943729867477523  0.9775834464180905  1.0000
  Zn  Zn1       1.0  0.9611132761860244  0.5927532395795803  0.4054311051360797  1.0000
  Zn  Zn2       1.0  0.15742494688105801  0.592749194539455  0.4054262468030927  1.0000
  C   C22       1.0  0.060323676047215474  0.5847091750243256  0.6690379490774647  1.0000
  C   C23       1.0  0.05821667943448208  0.6007950781484526  0.14181954144405395  1.0000
  C   C24       1.0  0.05753161836814294  0.8562967320438434  0.3992405263102762  1.0000
  C   C25       1.0  0.06100868170417928  0.32920578713100035  0.4116170440351896  1.0000
  O   O1        1.0  0.132908956047455  0.6022483506623049  0.19558664492577682  1.0000
  O   O2        1.0  0.13462742063329292  0.5832517476687782  0.6152667445772182  1.0000
  O   O3        1.0  0.13237180023921652  0.8025621216105621  0.3974034143669354  1.0000
  O   O4        1.0  0.13516450896985388  0.38293798798449363  0.4134498669062957  1.0000
  O   O5        1.0  0.9833736471056503  0.8025644461375592  0.3974074850269398  1.0000
  O   O6        1.0  0.985629255917525  0.5832558061967255  0.6152707354073392  1.0000
  O   O7        1.0  0.983910785037851  0.6022523740230468  0.1955889006254108  1.0000
  O   O8        1.0  0.9861663384403491  0.3829420000842798  0.4134522308297585  1.0000
