data_image0
_chemical_formula_structural       NC12NC2H8C9H8C6ClH5Zn2C4O8
_chemical_formula_sum              "N2 C33 H21 Cl1 Zn2 O8"
_cell_length_a       19.240039667572717
_cell_length_b       9.275152443626249
_cell_length_c       10.302974078461048
_cell_angle_alpha    85.36323094855369
_cell_angle_beta     89.99986526728996
_cell_angle_gamma    90.57354334366605

_space_group_name_H-M_alt    "P 1"
_space_group_IT_number       1

loop_
  _space_group_symop_operation_xyz
  'x, y, z'

loop_
  _atom_site_type_symbol
  _atom_site_label
  _atom_site_symmetry_multiplicity
  _atom_site_fract_x
  _atom_site_fract_y
  _atom_site_fract_z
  _atom_site_occupancy
  N   N1        1.0  0.6620975572619775  0.5787934498279468  0.5630621708035535  1.0000
  C   C1        1.0  0.6019491888949746  0.5787935431167969  0.5630620886064097  1.0000
  C   C2        1.0  0.5271311523826862  0.5787936734014447  0.563061950945932  1.0000
  C   C3        1.0  0.4903117453402473  0.5071832743352664  0.6666602043874066  1.0000
  C   C4        1.0  0.4176404027615842  0.5070601043566896  0.666747097277518  1.0000
  C   C5        1.0  0.3807989179418362  0.5787937762270516  0.5630617230231065  1.0000
  C   C6        1.0  0.41833311251136557  0.6505276558033746  0.4593765426050169  1.0000
  C   C7        1.0  0.49100320523389906  0.6504042242261223  0.45946355876072914  1.0000
  C   C8        1.0  0.30359382708068006  0.5787936888497358  0.5630616279083251  1.0000
  C   C9        1.0  0.265798842910262  0.452980963600082  0.6053057687570469  1.0000
  C   C10       1.0  0.19312872767091288  0.45309971143587574  0.6052141080831042  1.0000
  C   C11       1.0  0.1572615394649881  0.5787935453613381  0.5630616892401106  1.0000
  C   C12       1.0  0.082443501700006  0.5787934190108128  0.563061938207291  1.0000
  N   N2        1.0  0.022295184628804685  0.5787933736609061  0.5630621466970236  1.0000
  C   C13       1.0  0.1943418625222099  0.7044874635181677  0.5209092172646226  1.0000
  C   C14       1.0  0.26701313285060413  0.7046064114375976  0.5208173934341553  1.0000
  H   H1        1.0  0.5177589672425402  0.4517409381770734  0.7475453337246476  1.0000
  H   H2        1.0  0.39028372851451987  0.45250428382658936  0.7487446338517654  1.0000
  H   H3        1.0  0.3915032561153791  0.7050835063844084  0.3773789551067186  1.0000
  H   H4        1.0  0.5189857542568825  0.7058464490076752  0.3785787054701757  1.0000
  H   H5        1.0  0.292414170426761  0.35394508621476883  0.6367679021657566  1.0000
  H   H6        1.0  0.1649407566208591  0.35506264885719596  0.6377057903885903  1.0000
  H   H7        1.0  0.167100009992928  0.8025244988406692  0.48841754958864364  1.0000
  H   H8        1.0  0.2945842845757902  0.8036423767743326  0.4893552149980329  1.0000
  C   C15       1.0  0.840149399803786  0.1551611331572551  0.5643875860506109  1.0000
  C   C16       1.0  0.8150767024399772  0.23790053922947219  0.45409228284636627  1.0000
  C   C17       1.0  0.7964646280666761  0.17245919871387283  0.34173197527576904  1.0000
  C   C18       1.0  0.8026330065889298  0.02311725885568561  0.3374422699684254  1.0000
  C   C19       1.0  0.8263465816320162  0.9386897061551258  0.4468054351563058  1.0000
  C   C20       1.0  0.8442499675955915  0.002414651358874529  0.5617479256171662  1.0000
  C   C21       1.0  0.7838026016319042  0.955967755354221  0.2210861048896906  1.0000
  C   C22       1.0  0.7680365377065259  0.8997124056348088  0.12365605998905703  1.0000
  C   C23       1.0  0.7489075355287995  0.8314444893687029  0.005441787805508415  1.0000
  H   H9        1.0  0.9400193632011172  0.2368125612240619  0.8236693424167785  1.0000
  H   H10       1.0  0.8114154946108812  0.3544180256916394  0.45368390601909714  1.0000
  H   H11       1.0  0.7778819728347008  0.23869896782345235  0.25764874649917924  1.0000
  H   H12       1.0  0.8292728947021687  0.822379675938529  0.44318371224430253  1.0000
  H   H13       1.0  0.9092613722394831  0.7071152387233834  0.7390879423468257  1.0000
  H   H14       1.0  0.7616134401072016  0.7147226582855317  0.017570520196089175  1.0000
  H   H15       1.0  0.6923381624245806  0.8440270623882098  0.9876684337366153  1.0000
  H   H16       1.0  0.7782592030925202  0.8837930212338392  0.9214059577985418  1.0000
  C   C24       1.0  0.8421996871811851  0.5787878949983583  0.18182527888068045  1.0000
  C   C25       1.0  0.8293846487338848  0.42895438377927647  0.19152575773428215  1.0000
  C   C26       1.0  0.8230262118029485  0.35461107653069096  0.07938207958656673  1.0000
  C   C27       1.0  0.8293846802132346  0.4289544652513964  0.9564178585093441  1.0000
  C   C28       1.0  0.8421996850479401  0.578787820532443  0.9443102981861006  1.0000
  C   C29       1.0  0.8485447492961282  0.6529742319284579  0.057668947720209696  1.0000
  Cl  Cl1       1.0  0.8070171866295277  0.16743342575707  0.09300382493007975  1.0000
  H   H17       1.0  0.8470272917380564  0.6352275925507265  0.5054742150150395  1.0000
  H   H18       1.0  0.8242878181397897  0.3693620974499148  0.2859090944158498  1.0000
  H   H19       1.0  0.824287866608193  0.36936207686507205  0.870708128406068  1.0000
  H   H20       1.0  0.8584280604066094  0.7685303329839934  0.0492593222418376  1.0000
  H   H21       1.0  0.84702715942214  0.6352275797846607  0.6124465845734561  1.0000
  Zn  Zn1       1.0  0.7660428023541163  0.5787895764092594  0.5630696617896058  1.0000
  Zn  Zn2       1.0  0.9183499013551109  0.5787854796274707  0.5630652877589519  1.0000
  C   C30       1.0  0.8421703108265267  0.5730408357963559  0.8002021808147144  1.0000
  C   C31       1.0  0.8422240648809974  0.5845360404073303  0.32593289043938545  1.0000
  C   C32       1.0  0.8434712910857283  0.8422656735583905  0.5570734479020181  1.0000
  C   C33       1.0  0.8409230242615597  0.3153094694310987  0.569061697969105  1.0000
  O   O1        1.0  0.9000319661154613  0.5864573221893028  0.37429508100378195  1.0000
  O   O2        1.0  0.8999599683202806  0.5711153563562925  0.7518363001307495  1.0000
  O   O3        1.0  0.9010097471644234  0.7885178176828012  0.5555081234767281  1.0000
  O   O4        1.0  0.8989821353491703  0.36905487118396363  0.5706231602847565  1.0000
  O   O5        1.0  0.7854105163851266  0.788520184855735  0.5555117892584602  1.0000
  O   O6        1.0  0.7843607459262895  0.5711194567463913  0.7518398912901176  1.0000
  O   O7        1.0  0.7844327435244174  0.5864613723082432  0.3742971114366789  1.0000
  O   O8        1.0  0.7833829127053441  0.3690589109847031  0.5706252880853597  1.0000
