data_image0
_chemical_formula_structural       NC9NC3NH7C7F3H5C6NCOCH7Zn2C4O8
_chemical_formula_sum              "N4 C31 H19 F3 O9 Zn2"
_cell_length_a       16.053384444249904
_cell_length_b       9.272718291674593
_cell_length_c       10.30027207537675
_cell_angle_alpha    85.97182266394306
_cell_angle_beta     89.79678474651607
_cell_angle_gamma    88.75080299671951

_space_group_name_H-M_alt    "P 1"
_space_group_IT_number       1

loop_
  _space_group_symop_operation_xyz
  'x, y, z'

loop_
  _atom_site_type_symbol
  _atom_site_label
  _atom_site_symmetry_multiplicity
  _atom_site_fract_x
  _atom_site_fract_y
  _atom_site_fract_z
  _atom_site_occupancy
  N   N1        1.0  0.7777956955041506  0.5593179828537542  0.5752267546285716  1.0000
  C   C1        1.0  0.7271447161475572  0.5362388990435893  0.5002272490425319  1.0000
  C   C2        1.0  0.6641993712213214  0.5075628794842122  0.40705953804799544  1.0000
  C   C3        1.0  0.6778828401419226  0.49420234666220475  0.2762446783711263  1.0000
  C   C4        1.0  0.6013827452858109  0.46610188097606614  0.2238034674890772  1.0000
  C   C5        1.0  0.544289881051544  0.46388252357865584  0.32545282810794474  1.0000
  C   C6        1.0  0.4537515677532122  0.4374380897823835  0.31502675558042903  1.0000
  C   C7        1.0  0.39764598449179533  0.48482575043994647  0.409249639839107  1.0000
  C   C8        1.0  0.3122056870499756  0.4597457065403059  0.39926512550740073  1.0000
  C   C9        1.0  0.2553115670562451  0.5090697488582474  0.49587292961133866  1.0000
  N   N2        1.0  0.2095853883953216  0.5487193239448416  0.5735304801799204  1.0000
  C   C10       1.0  0.2821454753226722  0.387153663731022  0.29507058972447925  1.0000
  C   C11       1.0  0.3372419229673907  0.33989872814500144  0.2010602627794718  1.0000
  C   C12       1.0  0.4224770702667643  0.3647949195219946  0.21064697074406413  1.0000
  N   N3        1.0  0.5833616613659766  0.48934609581739913  0.437173212933875  1.0000
  H   H1        1.0  0.736579624986841  0.5038090045274193  0.22469772226383222  1.0000
  H   H2        1.0  0.5891947164069999  0.4508475870026809  0.12253143375743458  1.0000
  H   H3        1.0  0.4197086086090362  0.5430394078343366  0.48943863961448875  1.0000
  H   H4        1.0  0.2162093269699454  0.36720886368834704  0.28650288768294124  1.0000
  H   H5        1.0  0.3138811606333538  0.28350796383051513  0.12064983574014333  1.0000
  H   H6        1.0  0.4637699509169476  0.32546954380512916  0.13713667710542343  1.0000
  H   H7        1.0  0.5571802261429452  0.4919400948266584  0.5299435103987937  1.0000
  C   C13       1.0  0.9955090133536884  0.130592316314323  0.5715028573718486  1.0000
  C   C14       1.0  0.9447238091774717  0.21318155342138856  0.4819588790807776  1.0000
  C   C15       1.0  0.8880431837304402  0.1470677553666031  0.40268439000829154  1.0000
  C   C16       1.0  0.8843558939646097  0.9958670478117956  0.41029092101455455  1.0000
  C   C17       1.0  0.9352034258700201  0.9123181562505056  0.4970246315892338  1.0000
  C   C18       1.0  0.9918800572705759  0.9774337301091026  0.5772655234798056  1.0000
  C   C19       1.0  0.8357426442357694  0.2372942823499422  0.3048848855902948  1.0000
  F   F1        1.0  0.8143332203421585  0.3692232243277407  0.35216402682409687  1.0000
  F   F2        1.0  0.7630148822796168  0.1676880954112352  0.2780395896373289  1.0000
  F   F3        1.0  0.8806897773320098  0.261011261373862  0.19095702661236927  1.0000
  H   H8        1.0  0.09443115057257856  0.20676351829208373  0.8513675496186361  1.0000
  H   H9        1.0  0.9480495542764291  0.3300707741229791  0.4759017862403488  1.0000
  H   H10       1.0  0.8427120771646877  0.941817529865626  0.3480080083708421  1.0000
  H   H11       1.0  0.9318029035577949  0.7956319502904117  0.4987851771385521  1.0000
  H   H12       1.0  0.17073595301032674  0.8570775108501596  0.7328599648949239  1.0000
  C   C20       1.0  0.9937007498720172  0.5541592886722948  0.19303240788707623  1.0000
  C   C21       1.0  0.9082848332830644  0.5903618784687006  0.19016043808525887  1.0000
  C   C22       1.0  0.8654867005763247  0.6105462054217969  0.07131092617404634  1.0000
  C   C23       1.0  0.9082946634323963  0.5900329292008861  0.9550242090263072  1.0000
  C   C24       1.0  0.9936883607825258  0.5538667144492249  0.9557359623586478  1.0000
  C   C25       1.0  0.0360090792228136  0.5366564900239239  0.07525016586300026  1.0000
  N   N4        1.0  0.777752425668534  0.6453957225793203  0.06689589870610013  1.0000
  C   C26       1.0  0.7360081124865401  0.7361704587585611  0.1551211131026189  1.0000
  O   O1        1.0  0.777033171158187  0.8122755611409962  0.22774622261804844  1.0000
  C   C27       1.0  0.6430868271659332  0.7490554965500522  0.15444571470623836  1.0000
  H   H13       1.0  0.8747068161525944  0.6000395164292704  0.28049559267810253  1.0000
  H   H14       1.0  0.8746385776972633  0.6036674437891634  0.8638741281829043  1.0000
  H   H15       1.0  0.10189267806453593  0.5087734459665292  0.07665387539244195  1.0000
  H   H16       1.0  0.7430960095509471  0.6102914715481678  0.9898311720934486  1.0000
  H   H17       1.0  0.615882696213809  0.641978102021932  0.14144536467392732  1.0000
  H   H18       1.0  0.6200933565121075  0.7881307347264537  0.24784257450647118  1.0000
  H   H19       1.0  0.6227385418716058  0.8266088581659203  0.07318629750649742  1.0000
  Zn  Zn1       1.0  0.9024008877891323  0.5562555904778306  0.5747447127973857  1.0000
  Zn  Zn2       1.0  0.08498022281767659  0.5517699650432915  0.5740230558438544  1.0000
  C   C28       1.0  0.9937134374575328  0.5481778717433268  0.8115295522571169  1.0000
  C   C29       1.0  0.9936696591115627  0.5598494540724548  0.33723834834460337  1.0000
  C   C30       1.0  0.9925618146386718  0.8173647719938903  0.5710013009497819  1.0000
  C   C31       1.0  0.994821227051411  0.2906608229533289  0.5777666573451784  1.0000
  O   O2        1.0  0.06294715784819283  0.5600505635266937  0.3853612714404891  1.0000
  O   O3        1.0  0.06300943407678156  0.5445711887517264  0.7628585270002058  1.0000
  O   O4        1.0  0.062078550030197244  0.7619430374665863  0.5686302761864535  1.0000
  O   O5        1.0  0.06387797955020136  0.3426787266945659  0.5795894252003961  1.0000
  O   O6        1.0  0.9235030687512343  0.7653468303588516  0.5691783436802897  1.0000
  O   O7        1.0  0.9244339453714591  0.5479767140448504  0.7634065370402482  1.0000
  O   O8        1.0  0.9243716694390185  0.563456039170493  0.3859077198079328  1.0000
  O   O9        1.0  0.9253024911802299  0.34608419198792917  0.5801359708611313  1.0000
