data_image0
_chemical_formula_structural       NC9NC5H8C6BrH5C7OH5Zn2C4O8
_chemical_formula_sum              "N2 C31 H18 Br1 O9 Zn2"
_cell_length_a       17.807436237873137
_cell_length_b       10.302969083221269
_cell_length_c       9.274081674992354
_cell_angle_alpha    86.07102864227298
_cell_angle_beta     89.07685020002327
_cell_angle_gamma    88.39001038669201

_space_group_name_H-M_alt    "P 1"
_space_group_IT_number       1

loop_
  _space_group_symop_operation_xyz
  'x, y, z'

loop_
  _atom_site_type_symbol
  _atom_site_label
  _atom_site_symmetry_multiplicity
  _atom_site_fract_x
  _atom_site_fract_y
  _atom_site_fract_z
  _atom_site_occupancy
  N   N1        1.0  0.7122090225945544  0.37421657779460316  0.39852241812999645  1.0000
  C   C1        1.0  0.6516581571752694  0.33893806374942503  0.38628668019443846  1.0000
  C   C2        1.0  0.5763395357453106  0.2950554771956564  0.37106675074491857  1.0000
  C   C3        1.0  0.5585973034733483  0.22271031508575123  0.2545214236390869  1.0000
  C   C4        1.0  0.48546708267279254  0.1799914930824224  0.23965214168950275  1.0000
  C   C5        1.0  0.4290304836213874  0.2092401298202884  0.3412921677884351  1.0000
  C   C6        1.0  0.3513116375650537  0.163956648985496  0.325581068243616  1.0000
  C   C7        1.0  0.2890490150453841  0.24592206460736277  0.3543713532136279  1.0000
  C   C8        1.0  0.21577644392589046  0.20300039364401748  0.339517256199406  1.0000
  C   C9        1.0  0.15246252110771802  0.28765960272229263  0.36871144726502747  1.0000
  N   N2        1.0  0.10157111787163808  0.3557197596809172  0.3921827705326484  1.0000
  C   C10       1.0  0.20418303481533648  0.07785517959138444  0.2958447377810236  1.0000
  C   C11       1.0  0.26558831541382  0.9958758399643635  0.26704514086841025  1.0000
  C   C12       1.0  0.33874212811784027  0.038401257997436655  0.281674435265042  1.0000
  C   C13       1.0  0.4474633912750348  0.28208148974200986  0.4580808235940353  1.0000
  C   C14       1.0  0.5206470010398544  0.3246085656666946  0.4727773447610617  1.0000
  H   H1        1.0  0.6012306977481855  0.19958145522764445  0.17492561934177764  1.0000
  H   H2        1.0  0.47283027921807375  0.12557385311565628  0.1476166163039221  1.0000
  H   H3        1.0  0.2974504360561235  0.343617819871209  0.3864227302006038  1.0000
  H   H4        1.0  0.14775324791871347  0.043733873877726634  0.2840852019519611  1.0000
  H   H5        1.0  0.2564925413573165  0.8989890271946053  0.23366139735342228  1.0000
  H   H6        1.0  0.3854463163668714  0.972504400622148  0.260532119729046  1.0000
  H   H7        1.0  0.4055425727764366  0.3046832211868491  0.5391134241372262  1.0000
  H   H8        1.0  0.5338156175640854  0.3802369471321274  0.5636567426543289  1.0000
  C   C15       1.0  0.9068936327500222  0.9837205535259548  0.39535883510124936  1.0000
  C   C16       1.0  0.9847131338729574  0.9773052293734972  0.4183832938927101  1.0000
  C   C17       1.0  0.023315795563571433  0.8571850311126608  0.4298044777905232  1.0000
  C   C18       1.0  0.9847131936821047  0.7422228647351284  0.4183830194205853  1.0000
  C   C19       1.0  0.9068936445874691  0.746205569552862  0.3953587393498261  1.0000
  C   C20       1.0  0.8683596823339544  0.8675374845023421  0.38395775898600903  1.0000
  Br  Br1       1.0  0.1291637116266247  0.8501134443933319  0.46112209559879774  1.0000
  H   H9        1.0  0.877603126308942  0.3134368806359944  0.3866919982775201  1.0000
  H   H10       1.0  0.015691605302122547  0.06523490479509353  0.42754905421937117  1.0000
  H   H11       1.0  0.01569169565337481  0.6501539611455791  0.42754840347065803  1.0000
  H   H12       1.0  0.8083422896677521  0.8715471360854933  0.3662006035470924  1.0000
  H   H13       1.0  0.8776029047662962  0.42040291606472546  0.3866941317887125  1.0000
  C   C21       1.0  0.9081615788998749  0.3614995262136993  0.9720684194623316  1.0000
  C   C22       1.0  0.9691787560545122  0.4151029814402092  0.03960100651635745  1.0000
  C   C23       1.0  0.025941311544937628  0.47848627278918787  0.9581938372367628  1.0000
  C   C24       1.0  0.021671450433222054  0.48861891438272287  0.8071406564012951  1.0000
  C   C25       1.0  0.9622286286154641  0.43420041756777666  0.7383796084586032  1.0000
  C   C26       1.0  0.9056257038611424  0.36842660273685945  0.8186491221025518  1.0000
  C   C27       1.0  0.08871030468444396  0.5345909431427207  0.03261675104000905  1.0000
  O   O1        1.0  0.1404149370580099  0.5926214587159864  0.962435161808286  1.0000
  H   H14       1.0  0.7301516267718147  0.28562035805528074  0.08633558189450219  1.0000
  H   H15       1.0  0.06468868657193005  0.5375649550501829  0.7418323798153992  1.0000
  H   H16       1.0  0.9615317624007169  0.44094136683284857  0.6213171948751031  1.0000
  H   H17       1.0  0.7869639113733417  0.3119487974668993  0.5454968309955799  1.0000
  H   H18       1.0  0.09090058139224033  0.5262333256693061  0.14948827900664385  1.0000
  Zn  Zn1       1.0  0.8245704864431593  0.3688753996693921  0.39670126918367554  1.0000
  Zn  Zn2       1.0  0.989209600329068  0.3610504519658184  0.394015769704122  1.0000
  C   C28       1.0  0.9061033577071057  0.3619452937454326  0.6586273042054165  1.0000
  C   C29       1.0  0.9076785264953655  0.36798211169715533  0.13208984683465208  1.0000
  C   C30       1.0  0.9069069819759545  0.6020328678845217  0.38961478314584874  1.0000
  C   C31       1.0  0.9068748458164702  0.12789298105113245  0.4011024456603609  1.0000
  O   O2        1.0  0.9699960953913274  0.36718253579337445  0.18477536661833893  1.0000
  O   O3        1.0  0.9687430680036809  0.3568049325933371  0.6039031375145367  1.0000
  O   O4        1.0  0.969391158018324  0.5506787373270654  0.3866736371891659  1.0000
  O   O5        1.0  0.9693479495202492  0.17330874213269043  0.40200475978164185  1.0000
  O   O6        1.0  0.8444320810687517  0.5566171121741419  0.38871228001500246  1.0000
  O   O7        1.0  0.8437839912809284  0.36274486661896854  0.6059417034830796  1.0000
  O   O8        1.0  0.8450370239097416  0.373122410394632  0.1868121995505443  1.0000
  O   O9        1.0  0.8443888777118713  0.17924860833252504  0.4040417007847621  1.0000
