data_image0
_chemical_formula_structural       NC6NCNCH5C6ClH5C6NH7Zn2C4O8
_chemical_formula_sum              "N4 C24 H17 Cl1 Zn2 O8"
_cell_length_a       14.933214217465613
_cell_length_b       10.30297070629231
_cell_length_c       9.274774538082514
_cell_angle_alpha    85.06361778746081
_cell_angle_beta     90.31607823643775
_cell_angle_gamma    90.03245333812676

_space_group_name_H-M_alt    "P 1"
_space_group_IT_number       1

loop_
  _space_group_symop_operation_xyz
  'x, y, z'

loop_
  _atom_site_type_symbol
  _atom_site_label
  _atom_site_symmetry_multiplicity
  _atom_site_fract_x
  _atom_site_fract_y
  _atom_site_fract_z
  _atom_site_occupancy
  N   N1        1.0  0.8371660693335421  0.43409613641701067  0.4071999810138389  1.0000
  C   C1        1.0  0.7596720297134412  0.4350012095497646  0.40620827360515754  1.0000
  C   C2        1.0  0.6632688762811015  0.43612960557382024  0.4049717370296273  1.0000
  C   C3        1.0  0.6158077089504166  0.34916841383317876  0.5002760603147001  1.0000
  C   C4        1.0  0.5222701769675592  0.3501517572747508  0.49919840336555504  1.0000
  C   C5        1.0  0.4752916664910425  0.43804646798785996  0.4028710348669411  1.0000
  C   C6        1.0  0.3787241373911311  0.43613156345096665  0.40496966368080356  1.0000
  N   N2        1.0  0.301245166694009  0.43453411293640976  0.40672001010699543  1.0000
  C   C7        1.0  0.5228470136853448  0.5261057414467023  0.3063634060397964  1.0000
  N   N3        1.0  0.477153753291183  0.6174621094102571  0.20624249897544633  1.0000
  C   C8        1.0  0.6168685687607723  0.5242450637818239  0.30840271414887566  1.0000
  H   H1        1.0  0.6510916745219208  0.2806053628268186  0.5754170668079419  1.0000
  H   H2        1.0  0.48647072715413864  0.28216547034170136  0.5737071837400185  1.0000
  H   H3        1.0  0.5132398187776706  0.6819867573026178  0.13552726041984298  1.0000
  H   H4        1.0  0.407391974186951  0.6223230468774872  0.200915269858148  1.0000
  H   H5        1.0  0.653795311568977  0.5915472980831933  0.2346434519626812  1.0000
  C   C9        1.0  0.06920990708881104  0.05306761378014801  0.40696623362348516  1.0000
  C   C10       1.0  0.1617816843678339  0.049794154116841634  0.4346688824307834  1.0000
  C   C11       1.0  0.2077133290914297  0.9312131076818627  0.4484140964902672  1.0000
  C   C12       1.0  0.16178168339555699  0.8146861859777069  0.43466881455625606  1.0000
  C   C13       1.0  0.06920991695867817  0.815552554954982  0.4069663162305943  1.0000
  C   C14       1.0  0.023375273813899478  0.9353349979365999  0.39324999804592764  1.0000
  Cl  Cl1       1.0  0.32335753431810654  0.9286272943618599  0.4830212056560171  1.0000
  H   H6        1.0  0.03433973686051495  0.38160379335371025  0.39653032300348867  1.0000
  H   H7        1.0  0.19859972948050564  0.13901748513339518  0.4456867752102731  1.0000
  H   H8        1.0  0.1985996936745369  0.7238162930837416  0.44568667155620245  1.0000
  H   H9        1.0  0.9519811097840474  0.9369312624501186  0.3718848381156443  1.0000
  H   H10       1.0  0.034339733526765004  0.4885758245399214  0.3965305954922831  1.0000
  C   C15       1.0  0.06760285221757915  0.43762908589392646  0.9831515964181157  1.0000
  C   C16       1.0  0.13105480510023249  0.5143027421114901  0.04982248644264286  1.0000
  C   C17       1.0  0.19852414905831636  0.5802857456430636  0.9689877950340353  1.0000
  C   C18       1.0  0.2030879816465303  0.5698945765885937  0.8200056595623355  1.0000
  C   C19       1.0  0.13992332556549347  0.4960811652150607  0.7516319099611097  1.0000
  C   C20       1.0  0.07081698260465652  0.4309910126269487  0.8307808985115348  1.0000
  N   N4        1.0  0.2630041186348022  0.6567797533731091  0.03866286702634226  1.0000
  H   H11       1.0  0.9337505695026372  0.1837124533067085  0.10921033120534407  1.0000
  H   H12       1.0  0.12944289866958703  0.5204585934130046  0.16584428304749754  1.0000
  H   H13       1.0  0.2551793837043126  0.620103950766574  0.7564210177484743  1.0000
  H   H14       1.0  0.14391644275028181  0.49247362382898063  0.6354547306202685  1.0000
  H   H15       1.0  0.9779125792732248  0.26391896691045935  0.5647951925480861  1.0000
  H   H16       1.0  0.26040374342166617  0.6649187474892592  0.15003547950836604  1.0000
  H   H17       1.0  0.31380301859525006  0.7059669666239461  0.9793682465224748  1.0000
  Zn  Zn1       1.0  0.9710893044136516  0.434218978059846  0.407069814811704  1.0000
  Zn  Zn2       1.0  0.1673219618925177  0.43440052776531113  0.4068620281853872  1.0000
  C   C21       1.0  0.07020745039860413  0.4270737460379097  0.6705608142541868  1.0000
  C   C22       1.0  0.06820595929928125  0.4415473987580918  0.14337116812720518  1.0000
  C   C23       1.0  0.06918351318413718  0.6714716762938076  0.4012151031924083  1.0000
  C   C24       1.0  0.06922982984496717  0.19714790803206883  0.41271695620460114  1.0000
  O   O1        1.0  0.14287763838327927  0.4429256535798194  0.19706346607461356  1.0000
  O   O2        1.0  0.14447181625104477  0.4258323070849601  0.6167103956107316  1.0000
  O   O3        1.0  0.14364397580995392  0.6231867139192679  0.39921182932581134  1.0000
  O   O4        1.0  0.1437054114531251  0.24557125681826686  0.41456192421812865  1.0000
  O   O5        1.0  0.9947057878884402  0.6230482489464096  0.39936991884227857  1.0000
  O   O6        1.0  0.9955336280337078  0.4256954025217457  0.6168684081748976  1.0000
  O   O7        1.0  0.9939394436458345  0.4427887173638396  0.19721974345668114  1.0000
  O   O8        1.0  0.9947672171223212  0.24543431046904998  0.4147183098049183  1.0000
