data_image0
_chemical_formula_structural       NC8NH4C6NCH9C7NH4Zn2C4O8
_chemical_formula_sum              "N4 C26 H17 Zn2 O8"
_cell_length_a       13.859017124695912
_cell_length_b       9.273386996610926
_cell_length_c       9.275157849593906
_cell_angle_alpha    86.01375275156522
_cell_angle_beta     89.74086887057864
_cell_angle_gamma    89.39861590222965

_space_group_name_H-M_alt    "P 1"
_space_group_IT_number       1

loop_
  _space_group_symop_operation_xyz
  'x, y, z'

loop_
  _atom_site_type_symbol
  _atom_site_label
  _atom_site_symmetry_multiplicity
  _atom_site_fract_x
  _atom_site_fract_y
  _atom_site_fract_z
  _atom_site_occupancy
  N   N1        1.0  0.9024278867200476  0.5635325086591535  0.40779813948330323  1.0000
  C   C1        1.0  0.830407626931997  0.5401241286901247  0.35168280791879036  1.0000
  C   C2        1.0  0.7408186738549545  0.5110075198654724  0.28188254676369473  1.0000
  C   C3        1.0  0.6527981638972454  0.539393251573258  0.3499290183087982  1.0000
  C   C4        1.0  0.5655883471812229  0.5110087405469228  0.28188196555170353  1.0000
  C   C5        1.0  0.5665815666960003  0.45423079393233257  0.14576755222382065  1.0000
  C   C6        1.0  0.6544179573557324  0.4259541650987726  0.07798301002658437  1.0000
  C   C7        1.0  0.7414469384200718  0.45422845498563924  0.14576873422745162  1.0000
  C   C8        1.0  0.47516778324947495  0.5401250507773635  0.3516823084672984  1.0000
  N   N2        1.0  0.40247901071166586  0.5635328293036188  0.40779792298216555  1.0000
  H   H1        1.0  0.6521705853627315  0.5833415806540552  0.4552848338673172  1.0000
  H   H2        1.0  0.4996051606129703  0.43189013037976415  0.09220752680870081  1.0000
  H   H3        1.0  0.6550443256952244  0.3820955899807974  0.9728405565522915  1.0000
  H   H4        1.0  0.8090614017400068  0.4318856995795876  0.0922097113170448  1.0000
  C   C9        1.0  0.15542300821916255  0.13988552053164915  0.40850620002010474  1.0000
  C   C10       1.0  0.1727681405344912  0.22210555237983076  0.27820462755132325  1.0000
  C   C11       1.0  0.1810283161042763  0.1563470117075094  0.1478950039493605  1.0000
  C   C12       1.0  0.17207252076753976  0.006014159061764384  0.1445552384864892  1.0000
  C   C13       1.0  0.15642917970943016  0.9228268524123288  0.2744041718456849  1.0000
  C   C14       1.0  0.1494931390497414  0.9871688458386552  0.4071023917338279  1.0000
  N   N3        1.0  0.17952534089370853  0.9351932688879752  0.011555244192825493  1.0000
  C   C15       1.0  0.19603418509678397  0.011734670775981127  0.8709249574684715  1.0000
  H   H5        1.0  0.17440417699942357  0.40431008551114245  0.6451026500451444  1.0000
  H   H6        1.0  0.17769502078111457  0.3387344124645969  0.27643659149835154  1.0000
  H   H7        1.0  0.1934992679490657  0.22400588523131157  0.05000600255455079  1.0000
  H   H8        1.0  0.1518818733568614  0.8064038731439795  0.27213075672688203  1.0000
  H   H9        1.0  0.18393414670021935  0.8591891371217925  0.7581022928464494  1.0000
  H   H10       1.0  0.17269446573465452  0.8228549372751142  0.014543610190986603  1.0000
  H   H11       1.0  0.13629544574651528  0.09006691760990071  0.8458861121225789  1.0000
  H   H12       1.0  0.26587227808742336  0.06928870849101365  0.8711574765610486  1.0000
  H   H13       1.0  0.19873043815234115  0.9334759875303754  0.7856099659171099  1.0000
  C   C16       1.0  0.15376694349473286  0.5594493285740345  0.984613267434471  1.0000
  C   C17       1.0  0.23660338919055812  0.6064798339595938  0.054231343830752676  1.0000
  C   C18       1.0  0.3144108250439848  0.664854453008849  0.9742564291023239  1.0000
  C   C19       1.0  0.310287144053184  0.6771266022273323  0.8235771502340343  1.0000
  C   C20       1.0  0.22944263706762213  0.6289278792575819  0.752619466789842  1.0000
  C   C21       1.0  0.15114925076357122  0.5676050179444185  0.8309953260916623  1.0000
  C   C22       1.0  0.39817891260864946  0.7138940491363523  0.047178768470827574  1.0000
  N   N4        1.0  0.46550701063256783  0.7533086612972265  0.1057960357701484  1.0000
  H   H14       1.0  0.9193390831671593  0.5108071403225536  0.09253156156512321  1.0000
  H   H15       1.0  0.3700514345768311  0.7227600644384882  0.7606787216942865  1.0000
  H   H16       1.0  0.22917609812830841  0.6365125767411508  0.6355424602712914  1.0000
  H   H17       1.0  0.9943638401304267  0.5287976761246655  0.5536531839280556  1.0000
  Zn  Zn1       1.0  0.04673184361839833  0.5635288297067396  0.4078064099181471  1.0000
  Zn  Zn2       1.0  0.25817509198391697  0.5635248537860709  0.40780149181952074  1.0000
  C   C23       1.0  0.15168209780020914  0.5603162190038302  0.6710204912340461  1.0000
  C   C24       1.0  0.15322713357884354  0.5667392860843706  0.14458754887877712  1.0000
  C   C25       1.0  0.15062682150085127  0.8269589392130061  0.4016250210789911  1.0000
  C   C26       1.0  0.15428234962038911  0.3000948333402264  0.4139830987388744  1.0000
  O   O1        1.0  0.2332876232972774  0.5691780597365533  0.19827452314986327  1.0000
  O   O2        1.0  0.2321021500273932  0.5578733353885545  0.6173293711999741  1.0000
  O   O3        1.0  0.2312489147400636  0.7731907185744642  0.3997906205718871  1.0000
  O   O4        1.0  0.23414078669531202  0.35386068583093205  0.4158131657094526  1.0000
  O   O5        1.0  0.07076607675181192  0.7731929976647328  0.3997947360223113  1.0000
  O   O6        1.0  0.07161930014176288  0.557877347016646  0.6173334069394505  1.0000
  O   O7        1.0  0.07280477918639837  0.5691820043960436  0.19827682634390054  1.0000
  O   O8        1.0  0.07365794231853683  0.35386462121298806  0.41581557696608296  1.0000
