data_image0
_chemical_formula_structural       NC8NC6H8C7NC2NH8C12H10Zn2C4O8
_chemical_formula_sum              "N4 C39 H26 Zn2 O8"
_cell_length_a       17.457602349358154
_cell_length_b       9.273995741505848
_cell_length_c       10.299141136925906
_cell_angle_alpha    85.68706710251877
_cell_angle_beta     92.89850146643516
_cell_angle_gamma    92.2639659462817

_space_group_name_H-M_alt    "P 1"
_space_group_IT_number       1

loop_
  _space_group_symop_operation_xyz
  'x, y, z'

loop_
  _atom_site_type_symbol
  _atom_site_label
  _atom_site_symmetry_multiplicity
  _atom_site_fract_x
  _atom_site_fract_y
  _atom_site_fract_z
  _atom_site_occupancy
  N   N1        1.0  0.7308573784650867  0.6141339681497446  0.6307439867998033  1.0000
  C   C1        1.0  0.6695006258088068  0.5631268505418652  0.6199898605823149  1.0000
  C   C2        1.0  0.5931702790303147  0.49968034036604414  0.6066212874229873  1.0000
  C   C3        1.0  0.5349003732407152  0.5442657358139049  0.6816453804962084  1.0000
  C   C4        1.0  0.4600209978663288  0.483171847656523  0.6688976393055599  1.0000
  C   C5        1.0  0.3981747002783342  0.5302473837664099  0.7483506161836835  1.0000
  C   C6        1.0  0.3237265346921057  0.550778282278285  0.6926378401437188  1.0000
  C   C7        1.0  0.2654555435718009  0.5951593525317795  0.7677693449543177  1.0000
  C   C8        1.0  0.18957236622998525  0.6163638852788131  0.7098427405913807  1.0000
  N   N2        1.0  0.1285751697912783  0.6334052434478842  0.6632698826386036  1.0000
  C   C9        1.0  0.2811421341568969  0.6192794287373579  0.8991229132395628  1.0000
  C   C10       1.0  0.3548080249062084  0.5991804671148231  0.9552244840740651  1.0000
  C   C11       1.0  0.4130685986966043  0.5549992445654794  0.8805512773179854  1.0000
  C   C12       1.0  0.44469577167793  0.376740585007745  0.5796907391771828  1.0000
  C   C13       1.0  0.502955727407541  0.33246460175327064  0.5050675167841561  1.0000
  C   C14       1.0  0.5770511383097552  0.39368313595834237  0.5183655894047354  1.0000
  H   H1        1.0  0.5477121097079224  0.6277653055271062  0.7485067394125193  1.0000
  H   H2        1.0  0.3112682737928247  0.534182417759197  0.5905601616874843  1.0000
  H   H3        1.0  0.23648039136439095  0.6535633233625844  0.9580560585529386  1.0000
  H   H4        1.0  0.36676186514470877  0.6175065869504046  0.05693353608777341  1.0000
  H   H5        1.0  0.46947444740180344  0.5383329275494796  0.9266166153447684  1.0000
  H   H6        1.0  0.3879358378834167  0.3263884400463337  0.5689022589770336  1.0000
  H   H7        1.0  0.49066424837853556  0.25020549433016037  0.4370110818141051  1.0000
  H   H8        1.0  0.6217078065799548  0.358433082336183  0.4599410064961258  1.0000
  C   C15       1.0  0.927424578912516  0.20016985241501392  0.6458707625329876  1.0000
  C   C16       1.0  0.9408736089815237  0.2840938175819303  0.5295180069773249  1.0000
  C   C17       1.0  0.9611906703370982  0.21999841697430852  0.41859829522694647  1.0000
  C   C18       1.0  0.9689065277496748  0.06992570334476313  0.42088486221286625  1.0000
  C   C19       1.0  0.9538457738877738  0.98464637649303  0.5360299222149776  1.0000
  C   C20       1.0  0.9320152464813461  0.047358526102982745  0.648154882755785  1.0000
  C   C21       1.0  0.9913742288270037  0.004054070071876079  0.3020330533901705  1.0000
  N   N3        1.0  0.9941443393800439  0.07850907927422512  0.18424534884837418  1.0000
  C   C22       1.0  0.01714585909584021  0.9817612025928373  0.10444407748433206  1.0000
  C   C23       1.0  0.028110987140342224  0.8513568970661249  0.17428773667298447  1.0000
  N   N4        1.0  0.01193620865520839  0.8655334410012151  0.2985384352918272  1.0000
  H   H9        1.0  0.8652297491490301  0.4617005460136401  0.8277023111704971  1.0000
  H   H10       1.0  0.9375334881924084  0.40077713792931335  0.525056002985471  1.0000
  H   H11       1.0  0.9720027884722431  0.28874934163641286  0.3312561173460926  1.0000
  H   H12       1.0  0.9564448025788697  0.8682096563807513  0.53804230759504  1.0000
  H   H13       1.0  0.9330659652485594  0.7493123642274637  0.8642185087883012  1.0000
  H   H14       1.0  0.025614164795416013  0.005224952958706953  0.0015894376720293473  1.0000
  H   H15       1.0  0.046950822075480646  0.7531701033054262  0.13732761972209295  1.0000
  H   H16       1.0  0.016123409854309715  0.7851722809400618  0.3747975722933006  1.0000
  C   C24       1.0  0.9296333502993298  0.6238830970833513  0.26561303454028873  1.0000
  C   C25       1.0  0.009877702497454783  0.6433025770161891  0.2703952757647057  1.0000
  C   C26       1.0  0.050653913285389374  0.6530268932474297  0.15569334911850974  1.0000
  C   C27       1.0  0.01010111460253715  0.6430695370494581  0.03514729253773807  1.0000
  C   C28       1.0  0.9298064968923436  0.6236453299347071  0.028412668294037543  1.0000
  C   C29       1.0  0.8900670105110305  0.6141693353667406  0.14413205930878403  1.0000
  C   C30       1.0  0.13554437391265525  0.6735725662448545  0.1617972476859446  1.0000
  C   C31       1.0  0.18078887276247335  0.596905589924001  0.08309630321817019  1.0000
  C   C32       1.0  0.2606869436335464  0.6164233576180779  0.08907951838008898  1.0000
  C   C33       1.0  0.29626147788641255  0.71246593064537  0.17335950388618526  1.0000
  C   C34       1.0  0.25200992622820073  0.7891905857425108  0.2518969936429325  1.0000
  C   C35       1.0  0.17209370512358924  0.7700335034303113  0.24638292535612116  1.0000
  H   H17       1.0  0.8987624967571739  0.6164863324146945  0.5912439677418078  1.0000
  H   H18       1.0  0.04095350829512334  0.6489251021592854  0.36369836309717285  1.0000
  H   H19       1.0  0.041137964124118756  0.6524702615543574  0.9462774904374629  1.0000
  H   H20       1.0  0.8281725262558409  0.5991946446704401  0.13972748725932993  1.0000
  H   H21       1.0  0.7782096929322218  0.5878958182174893  0.8083445089164032  1.0000
  H   H22       1.0  0.15447612151304146  0.5205673541514024  0.018263881941746  1.0000
  H   H23       1.0  0.2950574631953351  0.5567255558571023  0.02852348300060248  1.0000
  H   H24       1.0  0.3581148572490434  0.7274342018452338  0.17780949719000883  1.0000
  H   H25       1.0  0.27963146718354004  0.8638900690090656  0.3169128244586257  1.0000
  H   H26       1.0  0.13884161372304438  0.8319565836181417  0.30693119494310306  1.0000
  Zn  Zn1       1.0  0.8456301226374265  0.6196913712203713  0.6401377463869959  1.0000
  Zn  Zn2       1.0  0.01380234969580885  0.6278360101536646  0.6538867245528805  1.0000
  C   C36       1.0  0.9297408975740734  0.6179436058410545  0.88421154404681  1.0000
  C   C37       1.0  0.9296934210860219  0.6295856845050276  0.4098132094154392  1.0000
  C   C38       1.0  0.9311423868418751  0.8872232975111726  0.6425472422800276  1.0000
  C   C39       1.0  0.9282918650574419  0.3603042569510126  0.6514775710622458  1.0000
  O   O1        1.0  0.9935340310218508  0.6345840798277016  0.4634257539817253  1.0000
  O   O2        1.0  0.9935391107535465  0.6191257149188252  0.8410337789684379  1.0000
  O   O3        1.0  0.9946699710374048  0.8365724293618908  0.6458880791830044  1.0000
  O   O4        1.0  0.9924031133860173  0.41713737295475384  0.6585713517208315  1.0000
  O   O5        1.0  0.8670293015582977  0.8303900056414893  0.6354531145203663  1.0000
  O   O6        1.0  0.8658984506462978  0.6129450243045271  0.8305987497270967  1.0000
  O   O7        1.0  0.8658933703388572  0.6284033394352035  0.4529891630818885  1.0000
  O   O8        1.0  0.8647624526660783  0.41095662221434504  0.6481348581686432  1.0000
