data_image0
_chemical_formula_structural       NC9NC5H8C6NCOCH9C8NH11Zn2C4O8
_chemical_formula_sum              "N4 C34 H28 O9 Zn2"
_cell_length_a       17.807436237873137
_cell_length_b       10.300268703208214
_cell_length_c       9.275652972338538
_cell_angle_alpha    85.93999847967777
_cell_angle_beta     89.8368236096327
_cell_angle_gamma    88.37019024828581

_space_group_name_H-M_alt    "P 1"
_space_group_IT_number       1

loop_
  _space_group_symop_operation_xyz
  'x, y, z'

loop_
  _atom_site_type_symbol
  _atom_site_label
  _atom_site_symmetry_multiplicity
  _atom_site_fract_x
  _atom_site_fract_y
  _atom_site_fract_z
  _atom_site_occupancy
  N   N1        1.0  0.7008087164695354  0.3784226379829516  0.398696119940936  1.0000
  C   C1        1.0  0.6401799153964302  0.34316380240016575  0.3864618291262347  1.0000
  C   C2        1.0  0.5647643504643864  0.29930569373175664  0.37124369973779037  1.0000
  C   C3        1.0  0.54622698575815  0.22721972172844865  0.2547114653005267  1.0000
  C   C4        1.0  0.47300202432081123  0.18452485524222872  0.2398439415405156  1.0000
  C   C5        1.0  0.4172656424751602  0.21353824079906755  0.34147263813823076  1.0000
  C   C6        1.0  0.33944672134757076  0.1682800319412907  0.3257633967051685  1.0000
  C   C7        1.0  0.2773676878189028  0.2501988607693699  0.3545502793837014  1.0000
  C   C8        1.0  0.2040005221648545  0.2073010537887663  0.33969793940958315  1.0000
  C   C9        1.0  0.140872454830069  0.2919134426138479  0.36888867640540335  1.0000
  N   N2        1.0  0.0901304749718251  0.35993595642726994  0.392357222705503  1.0000
  C   C10       1.0  0.192128785753974  0.08222628759793003  0.2960305841144317  1.0000
  C   C11       1.0  0.2533504154611338  0.00029355325788449945  0.2672343905607446  1.0000
  C   C12       1.0  0.3265973403793424  0.0427955374014859  0.28186195384440005  1.0000
  C   C13       1.0  0.43649527356907797  0.28611996338746626  0.45824817303509446  1.0000
  C   C14       1.0  0.5097724622274474  0.32862344500962326  0.47294295564194494  1.0000
  H   H1        1.0  0.5883120744208721  0.20427502963592237  0.1751245338894707  1.0000
  H   H2        1.0  0.45973676372436084  0.13031263528681336  0.14781874828790942  1.0000
  H   H3        1.0  0.2859722023860884  0.3478445064216411  0.3865978518036497  1.0000
  H   H4        1.0  0.1356241395850097  0.048123835759844136  0.2842724396514247  1.0000
  H   H5        1.0  0.244042130186267  0.9034602583934825  0.23385459700225963  1.0000
  H   H6        1.0  0.3731678512681002  0.9769313388575505  0.26072215175500135  1.0000
  H   H7        1.0  0.3951328473712488  0.30853394557415337  0.5392717430021918  1.0000
  H   H8        1.0  0.5235612620796283  0.3840495023792217  0.563812146226651  1.0000
  C   C15       1.0  0.8955495368936623  0.9878279225316768  0.3955339107053861  1.0000
  C   C16       1.0  0.90762245167606  0.9957449658852973  0.2455078087994043  1.0000
  C   C17       1.0  0.9147319816432764  0.8823871090921362  0.1702007492414055  1.0000
  C   C18       1.0  0.9074526491663729  0.7605937249514624  0.24554653142870084  1.0000
  C   C19       1.0  0.8953968677377144  0.7505204648643726  0.3955318113195083  1.0000
  C   C20       1.0  0.8897921077056097  0.8647196273891373  0.4698166296713107  1.0000
  N   N3        1.0  0.9259214234395327  0.8889559571089556  0.01625730796129132  1.0000
  C   C21       1.0  0.9697170442481365  0.9855209917568549  0.9380959469442054  1.0000
  O   O1        1.0  0.012397621939536306  0.05688769245897319  0.003960140072322817  1.0000
  C   C22       1.0  0.969110350125653  0.9954704568009923  0.7766424019751984  1.0000
  H   H9        1.0  0.8898657236148458  0.31231646841973393  0.4522532259211598  1.0000
  H   H10       1.0  0.9100070803254204  0.09013041049407725  0.18683229092679743  1.0000
  H   H11       1.0  0.9118829133492431  0.6736683844033138  0.1864740483812044  1.0000
  H   H12       1.0  0.8805011276481174  0.8578031979361036  0.5855332112375469  1.0000
  H   H13       1.0  0.8897165545661254  0.41937032489016124  0.45204236526511404  1.0000
  H   H14       1.0  0.9050006240400116  0.8141790933817386  0.9586843277068802  1.0000
  H   H15       1.0  0.9114535758653456  0.9809288761596726  0.7367169758548302  1.0000
  H   H16       1.0  0.9875687124272937  0.09300264104884873  0.7343134201624397  1.0000
  H   H17       1.0  0.007728336861073217  0.9196739862758019  0.7363365213197612  1.0000
  C   C23       1.0  0.8938013259722549  0.36672257025037985  0.9722893684579996  1.0000
  C   C24       1.0  0.8450577129065052  0.4539829200488681  0.039229618641885906  1.0000
  C   C25       1.0  0.8022441759821383  0.5485394891077524  0.9572260981354019  1.0000
  C   C26       1.0  0.8071597557927804  0.5546328036525918  0.8063606496495241  1.0000
  C   C27       1.0  0.8542493075280422  0.46750880195544164  0.7380392527717614  1.0000
  C   C28       1.0  0.8971451144409467  0.3716258019339456  0.8187763593024737  1.0000
  C   C29       1.0  0.7495004766149106  0.6398870577349154  0.030628051411134557  1.0000
  C   C30       1.0  0.672271604836395  0.5801042818235549  0.0526732113044155  1.0000
  N   N4        1.0  0.6213026736599725  0.6702839542465471  0.12171044034412472  1.0000
  H   H18       1.0  0.9489033131069865  0.1711655838396644  0.26800060754270505  1.0000
  H   H19       1.0  0.841485063813976  0.45053956691921343  0.15611533997094565  1.0000
  H   H20       1.0  0.7738348674324397  0.6261629073678842  0.7413196182635713  1.0000
  H   H21       1.0  0.8556044901748873  0.47302172785339036  0.6209972809952751  1.0000
  H   H22       1.0  0.00019091890969247179  0.24779245742625333  0.546619168598582  1.0000
  H   H23       1.0  0.7730221996433343  0.6615882884704836  0.1369592418277723  1.0000
  H   H24       1.0  0.7434675321419698  0.73392928568458  0.9644162191804541  1.0000
  H   H25       1.0  0.6487892110038703  0.5594445836467614  0.9459242199296307  1.0000
  H   H26       1.0  0.6775932181933555  0.4868429557319238  0.1207797963545365  1.0000
  H   H27       1.0  0.5682513315666506  0.6291941473290568  0.12697729823946768  1.0000
  H   H28       1.0  0.6388925950305764  0.6759485228694653  0.2285439350480587  1.0000
  Zn  Zn1       1.0  0.8131585985876109  0.37308436417746543  0.3968751866188107  1.0000
  Zn  Zn2       1.0  0.977780623580524  0.3652637131831344  0.3941900049682958  1.0000
  C   C31       1.0  0.8965124067084307  0.36552562030906827  0.6587722412803356  1.0000
  C   C32       1.0  0.8944286133579363  0.37282401101336426  0.1322930624425529  1.0000
  C   C33       1.0  0.8953991817253228  0.6063222358162297  0.38978887400637846  1.0000
  C   C34       1.0  0.8955417827828753  0.13202583838963156  0.40127650747812155  1.0000
  O   O2        1.0  0.9571123384187993  0.37189814849709424  0.18497275136861857  1.0000
  O   O3        1.0  0.958772988080003  0.36051480759781246  0.6040541467204783  1.0000
  O   O4        1.0  0.9578732085787991  0.554961168598203  0.3868481882780921  1.0000
  O   O5        1.0  0.9580120613169176  0.17745179882918505  0.40217860266077277  1.0000
  O   O6        1.0  0.8329271046737694  0.5608962812015892  0.38888658983507307  1.0000
  O   O7        1.0  0.8338268835556942  0.36645147998794375  0.6060924714245886  1.0000
  O   O8        1.0  0.8321662271084885  0.37783476559359297  0.18700934322841611  1.0000
  O   O9        1.0  0.8330659504322445  0.18338840726337646  0.4042153025795423  1.0000
