data_image0
_chemical_formula_structural       NC8NC6H8C7NC2NH6C6NO2H3Zn2C4O8
_chemical_formula_sum              "N5 C33 H17 O10 Zn2"
_cell_length_a       17.457602349358154
_cell_length_b       9.273995741505848
_cell_length_c       9.273395971720356
_cell_angle_alpha    85.10796789348095
_cell_angle_beta     92.78021970675468
_cell_angle_gamma    92.2639659462817

_space_group_name_H-M_alt    "P 1"
_space_group_IT_number       1

loop_
  _space_group_symop_operation_xyz
  'x, y, z'

loop_
  _atom_site_type_symbol
  _atom_site_label
  _atom_site_symmetry_multiplicity
  _atom_site_fract_x
  _atom_site_fract_y
  _atom_site_fract_z
  _atom_site_occupancy
  N   N1        1.0  0.7328219599602581  0.6296903881980076  0.47822321923392214  1.0000
  C   C1        1.0  0.6714806371119616  0.5788054505937779  0.4662711960786956  1.0000
  C   C2        1.0  0.5951694712983091  0.5155108237308711  0.4514135039964899  1.0000
  C   C3        1.0  0.5367919224211329  0.5592438538837579  0.534794494648505  1.0000
  C   C4        1.0  0.46193083725413425  0.4982947956301455  0.5206267887088355  1.0000
  C   C5        1.0  0.3999705421035174  0.544467648917766  0.6089299943988253  1.0000
  C   C6        1.0  0.32560231210844  0.5656315125857387  0.5470113990796879  1.0000
  C   C7        1.0  0.2672235237883185  0.6091589972157824  0.6305117660107532  1.0000
  C   C8        1.0  0.1914234583948254  0.6310216469115465  0.5661327450984296  1.0000
  N   N2        1.0  0.13049308377324334  0.648592129608228  0.5143721589383521  1.0000
  C   C9        1.0  0.2827216508668897  0.6317867365147598  0.776496744977599  1.0000
  C   C10       1.0  0.35630704818995423  0.6110503925525781  0.8388474427561061  1.0000
  C   C11       1.0  0.41467476162316613  0.5677175488012458  0.755856423479032  1.0000
  C   C12       1.0  0.4467336033648704  0.39287703228041904  0.4214831749574499  1.0000
  C   C13       1.0  0.5051006270207202  0.3494488599405652  0.3385477077775454  1.0000
  C   C14       1.0  0.5791769581108759  0.4105163118049182  0.3533270462999613  1.0000
  H   H1        1.0  0.5495077275305793  0.6419837969279703  0.609103508118897  1.0000
  H   H2        1.0  0.313290510246937  0.5501953751215682  0.43356333720399265  1.0000
  H   H3        1.0  0.237975351960977  0.6654010786571622  0.8419944249518525  1.0000
  H   H4        1.0  0.3681149582886188  0.6282209733796892  0.951885817067456  1.0000
  H   H5        1.0  0.47101451669081074  0.5505278733036316  0.8070529573130965  1.0000
  H   H6        1.0  0.3899891486687563  0.3426474576258445  0.40949297114598715  1.0000
  H   H7        1.0  0.49290679402100424  0.2679629567094943  0.262910499307607  1.0000
  H   H8        1.0  0.623917452819184  0.37593003277575576  0.28839457725170226  1.0000
  C   C15       1.0  0.9293674568085062  0.21555441382251653  0.49503495922753715  1.0000
  C   C16       1.0  0.9429834275140883  0.3008002883487837  0.3657217262924257  1.0000
  C   C17       1.0  0.963459634282247  0.23796507108962706  0.2424467212942818  1.0000
  C   C18       1.0  0.971172210973655  0.08786637926742924  0.24498798787503426  1.0000
  C   C19       1.0  0.9559462492529169  0.0012788639523213503  0.3729590006307843  1.0000
  C   C20       1.0  0.933954847166735  0.0627171371160491  0.4975735065014013  1.0000
  C   C21       1.0  0.9938104382798479  0.02334504765012579  0.11289733333358631  1.0000
  N   N3        1.0  0.9967495483059386  0.09913826898425125  0.981989313136173  1.0000
  C   C22       1.0  0.019865565310409627  0.003297032175726412  0.8932990166052961  1.0000
  C   C23       1.0  0.03073048305159753  0.872099217407812  0.9709225273384132  1.0000
  N   N4        1.0  0.014377432117107736  0.884864121707676  0.10901345140907015  1.0000
  H   H9        1.0  0.8669117387288489  0.4750192790286711  0.6971206364564329  1.0000
  H   H10       1.0  0.9743970692498604  0.3077083095293931  0.1453755403030983  1.0000
  H   H11       1.0  0.934695562108958  0.762216228654567  0.7377043557323951  1.0000
  H   H12       1.0  0.028481444816577998  0.027929336826118437  0.7789874480224416  1.0000
  H   H13       1.0  0.04962334763285158  0.7743323357006503  0.929845440768743  1.0000
  H   H14       1.0  0.018455218211987038  0.8036365647446457  0.1937670569374274  1.0000
  C   C24       1.0  0.932121814476197  0.6435878505412993  0.07242050613216365  1.0000
  C   C25       1.0  0.863908656770564  0.6732607745445123  0.1368889709792498  1.0000
  C   C26       1.0  0.7954068585373648  0.6892842836220554  0.05428091831399073  1.0000
  C   C27       1.0  0.7931739710123958  0.675929696670472  0.9047501204330342  1.0000
  C   C28       1.0  0.861359507154413  0.6487264420773927  0.838847656513028  1.0000
  C   C29       1.0  0.9312004678527739  0.6346837472532489  0.9201880085826204  1.0000
  N   N5        1.0  0.7221411126693683  0.6913523205208179  0.8202027020130971  1.0000
  O   O1        1.0  0.6556247516531557  0.719182464606926  0.8850084841609038  1.0000
  O   O2        1.0  0.719633007048819  0.6793487588774103  0.6869493992549693  1.0000
  H   H15       1.0  0.09915323332513289  0.4899724556120033  0.20362119653155286  1.0000
  H   H16       1.0  0.7438947918183825  0.7107480874177654  0.10804127035717268  1.0000
  H   H17       1.0  0.04511645695173685  0.5355467556068357  0.6588319852437121  1.0000
  Zn  Zn1       1.0  0.847581226151799  0.6351410666907887  0.48866334517536547  1.0000
  Zn  Zn2       1.0  0.015733726447748172  0.6431295004458533  0.5039438153945193  1.0000
  C   C30       1.0  0.9313418088221957  0.6306203249779256  0.7599244055551653  1.0000
  C   C31       1.0  0.9319749896988537  0.6476521479209638  0.2326830690071226  1.0000
  C   C32       1.0  0.9330900332591093  0.9026456181664674  0.4913412336549615  1.0000
  C   C33       1.0  0.9302266984152469  0.37562511816821437  0.5012663074573576  1.0000
  O   O3        1.0  0.9957386774141856  0.6520414392812752  0.2922674890806766  1.0000
  O   O4        1.0  0.9952019726065656  0.6322929861831494  0.7119370900289257  1.0000
  O   O5        1.0  0.9966128240878073  0.8519567940311069  0.49505420477085565  1.0000
  O   O6        1.0  0.9943277687273824  0.43237764016280644  0.5091502609255281  1.0000
  O   O7        1.0  0.8689871264899861  0.8458929242494251  0.48345689442229367  1.0000
  O   O8        1.0  0.8675762844732585  0.6262308502412647  0.7003397079082696  1.0000
  O   O9        1.0  0.8681129909457705  0.645979271303537  0.28066837134913863  1.0000
  O   O10       1.0  0.8667020820823494  0.42631546073116866  0.49755125138514605  1.0000
