data_image0
_chemical_formula_structural       NC12NC2H8C7OC3NC3H11C7OC4NC3H9Zn2C4O8
_chemical_formula_sum              "N4 C45 H28 O10 Zn2"
_cell_length_a       17.80743265337812
_cell_length_b       10.298746005989749
_cell_length_c       10.29937507404574
_cell_angle_alpha    85.54279281073399
_cell_angle_beta     91.52722468557046
_cell_angle_gamma    89.44452832379845

_space_group_name_H-M_alt    "P 1"
_space_group_IT_number       1

loop_
  _space_group_symop_operation_xyz
  'x, y, z'

loop_
  _atom_site_type_symbol
  _atom_site_label
  _atom_site_symmetry_multiplicity
  _atom_site_fract_x
  _atom_site_fract_y
  _atom_site_fract_z
  _atom_site_occupancy
  N   N1        1.0  0.7076377467560718  0.407285506062522  0.6014159569849997  1.0000
  C   C1        1.0  0.6568248138983888  0.43687048011660157  0.5327178936601835  1.0000
  C   C2        1.0  0.5936085099213059  0.4736720390755327  0.447266150938582  1.0000
  C   C3        1.0  0.6053478277673355  0.5277409257467256  0.3206476016480737  1.0000
  C   C4        1.0  0.5440385933795548  0.5630379413408748  0.2375917761214914  1.0000
  C   C5        1.0  0.4708358022318723  0.5445297844179119  0.28049460242315827  1.0000
  C   C6        1.0  0.4581196719938768  0.4903419235392011  0.40758129694407486  1.0000
  C   C7        1.0  0.5202862237670304  0.4550481678052192  0.4906206106041382  1.0000
  C   C8        1.0  0.3803483990357054  0.4707185600977762  0.4533443988306556  1.0000
  C   C9        1.0  0.36155769458994014  0.49786364891466905  0.5803947886729952  1.0000
  C   C10       1.0  0.288324958951591  0.4793970549465357  0.6233381827518079  1.0000
  C   C11       1.0  0.2329398872349367  0.43353079126206606  0.540069156520564  1.0000
  C   C12       1.0  0.1575704160442115  0.4145108440039087  0.5844134683745579  1.0000
  N   N2        1.0  0.09697869855340191  0.3992200856135746  0.620063244510126  1.0000
  C   C13       1.0  0.2510390522746588  0.40621658936921  0.41356173653554684  1.0000
  C   C14       1.0  0.324218948641906  0.42469805775454583  0.3703624494910662  1.0000
  H   H1        1.0  0.6618167980327494  0.5425777586941192  0.2862109519031746  1.0000
  H   H2        1.0  0.5532460229213335  0.6051721038855405  0.13981368768662805  1.0000
  H   H3        1.0  0.4242028526223723  0.5741903091230309  0.21490458012554048  1.0000
  H   H4        1.0  0.5117770617741687  0.4115286206095876  0.5882741269950671  1.0000
  H   H5        1.0  0.4032337023265387  0.53502364911173  0.6459730612620804  1.0000
  H   H6        1.0  0.2748780098353615  0.501210917634147  0.7213517934518403  1.0000
  H   H7        1.0  0.20864625436893572  0.37032383838491456  0.34839654262774933  1.0000
  H   H8        1.0  0.3371373505362956  0.4013484123632123  0.2726520466660776  1.0000
  C   C15       1.0  0.9022759198412453  0.02185140101277705  0.6107208634482024  1.0000
  C   C16       1.0  0.9374276633658959  0.02967700332431367  0.4898954331697199  1.0000
  C   C17       1.0  0.9544121433283664  0.9165272671427256  0.42807339055623467  1.0000
  C   C18       1.0  0.9374282299265071  0.7944404102225204  0.4898463213060405  1.0000
  C   C19       1.0  0.902347703824178  0.7846440885663294  0.6107698578684584  1.0000
  C   C20       1.0  0.8848133217223135  0.8989148095443623  0.6702766928055286  1.0000
  C   C21       1.0  0.9921705675268687  0.9245860886747939  0.3010612989474266  1.0000
  O   O1        1.0  0.03804195799502841  0.8356676619574506  0.2780450513828534  1.0000
  C   C22       1.0  0.977892385445756  0.033458448717097466  0.2001678832288716  1.0000
  C   C23       1.0  0.9067567966407128  0.09432885192110207  0.18465297161097993  1.0000
  C   C24       1.0  0.8935988122459577  0.1963097079270315  0.08811227168179991  1.0000
  N   N3        1.0  0.8212605608772084  0.25804686871040783  0.07344317036792347  1.0000
  C   C25       1.0  0.9516229741617195  0.23702728290799316  0.00575385382704097  1.0000
  C   C26       1.0  0.022072939954150165  0.17600703926931183  0.019379784998516673  1.0000
  C   C27       1.0  0.03517250927030058  0.07445198557989041  0.11561346754386403  1.0000
  H   H9        1.0  0.836898189143646  0.21433812570543265  0.8399341693403386  1.0000
  H   H10       1.0  0.9523705081391166  0.12390219937316732  0.44438753783444535  1.0000
  H   H11       1.0  0.9509804934214311  0.7069866089992578  0.44279568606198283  1.0000
  H   H12       1.0  0.8577213771738055  0.8921305289686622  0.7634132906244258  1.0000
  H   H13       1.0  0.8363456909540601  0.5588099586100908  0.8394647196610541  1.0000
  H   H14       1.0  0.8612573877794558  0.06184246530919579  0.24643887706951806  1.0000
  H   H15       1.0  0.7776065328839222  0.22847269237723666  0.13430595880518292  1.0000
  H   H16       1.0  0.8108433046821462  0.3339056858271292  0.0017031210786704375  1.0000
  H   H17       1.0  0.9421603390020772  0.3156037783857628  0.9308106579696465  1.0000
  H   H18       1.0  0.0666520293967694  0.20747778940861042  0.9552174022381332  1.0000
  H   H19       1.0  0.09027037049255471  0.028666138958026492  0.12478014948700734  1.0000
  C   C28       1.0  0.9023373678872032  0.4033895724915666  0.2293598393212886  1.0000
  C   C29       1.0  0.9601734120484281  0.49531028759580153  0.22369192045119138  1.0000
  C   C30       1.0  0.9887607736674906  0.5427649584576029  0.10354786414372441  1.0000
  C   C31       1.0  0.9600517549656198  0.4950750519902793  0.9884607633469935  1.0000
  C   C32       1.0  0.9022862419813614  0.40310592313186505  0.9921309297362639  1.0000
  C   C33       1.0  0.8736286247893281  0.35804946870262655  0.1130680384326066  1.0000
  C   C34       1.0  0.05037098763672687  0.6388157741352358  0.09752691347216792  1.0000
  O   O2        1.0  0.09837927828104776  0.6331358421936464  0.010191025275015258  1.0000
  C   C35       1.0  0.057507636298396156  0.7413221266624903  0.19050135088062814  1.0000
  C   C36       1.0  0.12895256122545296  0.7864070713884523  0.22568250110059185  1.0000
  C   C37       1.0  0.1362416724296085  0.8842761889533478  0.312254197783961  1.0000
  C   C38       1.0  0.20961019875142628  0.9291119393089831  0.34855857418890324  1.0000
  N   N4        1.0  0.2685902277654346  0.9651492138777922  0.3777394410699193  1.0000
  C   C39       1.0  0.07209292198843387  0.9384606140455259  0.36337842073453097  1.0000
  C   C40       1.0  0.0008984552638342491  0.8953823015913486  0.3277084329853095  1.0000
  C   C41       1.0  0.9934599581161813  0.7977862860418323  0.24140515646450544  1.0000
  H   H20       1.0  0.7939838877707688  0.22844429054318208  0.4475284986079371  1.0000
  H   H21       1.0  0.9836308313831886  0.529028563239448  0.3130006926456388  1.0000
  H   H22       1.0  0.9824168290301833  0.5308506759519291  0.895788929215994  1.0000
  H   H23       1.0  0.8290415103009937  0.287184639305359  0.11663378284344318  1.0000
  H   H24       1.0  0.8805284825404027  0.3669667991761618  0.6661665556638671  1.0000
  H   H25       1.0  0.17889249737572865  0.7446489701331076  0.1866912479144196  1.0000
  H   H26       1.0  0.07711160701379716  0.014241071547500985  0.4303025139026886  1.0000
  H   H27       1.0  0.9513328948793507  0.9381114282914564  0.36656885646803605  1.0000
  H   H28       1.0  0.937656110017566  0.7675460905770544  0.2134272744493058  1.0000
  Zn  Zn1       1.0  0.819993137728029  0.40495452958434264  0.6068046483969225  1.0000
  Zn  Zn2       1.0  0.984623303380669  0.40154046379254904  0.6146851459300351  1.0000
  C   C42       1.0  0.9022937616123173  0.39798543358751726  0.8479504208936229  1.0000
  C   C43       1.0  0.9023244773983716  0.40851116121931547  0.37353958706541657  1.0000
  C   C44       1.0  0.9023306235585447  0.6404620214602685  0.6055850264193325  1.0000
  C   C45       1.0  0.9022875591238676  0.1660330140506141  0.6159050479920332  1.0000
  O   O3        1.0  0.9647964405871122  0.4089287267842894  0.42491823488681235  1.0000
  O   O4        1.0  0.9647722848040255  0.39497569141595346  0.8025525144322856  1.0000
  O   O5        1.0  0.9648012089910437  0.590778619621537  0.6068407033902801  1.0000
  O   O6        1.0  0.9647674602303689  0.21312580907092227  0.6206299458614251  1.0000
  O   O7        1.0  0.8398489246981338  0.5933691854724393  0.6008598457694743  1.0000
  O   O8        1.0  0.8398200006591975  0.3975678177292748  0.7965715876630954  1.0000
  O   O9        1.0  0.8398441565925995  0.4115208084174767  0.41893574664839983  1.0000
  O   O10       1.0  0.8398151762253863  0.21571788137836245  0.6146475549943471  1.0000
