data_image0
_chemical_formula_structural       NC5NC4H6C7NH5C7ONH5Zn2C4O8
_chemical_formula_sum              "N4 C27 H16 O9 Zn2"
_cell_length_a       13.854160002989762
_cell_length_b       9.275154477615127
_cell_length_c       9.273042158839658
_cell_angle_alpha    86.38948304707893
_cell_angle_beta     90.09323775389821
_cell_angle_gamma    89.43370676253429

_space_group_name_H-M_alt    "P 1"
_space_group_IT_number       1

loop_
  _space_group_symop_operation_xyz
  'x, y, z'

loop_
  _atom_site_type_symbol
  _atom_site_label
  _atom_site_symmetry_multiplicity
  _atom_site_fract_x
  _atom_site_fract_y
  _atom_site_fract_z
  _atom_site_occupancy
  N   N1        1.0  0.8968534785739397  0.5612154567311638  0.4163102094484443  1.0000
  C   C1        1.0  0.8242939285081601  0.5857994967721023  0.35736976232573325  1.0000
  C   C2        1.0  0.7340288231693133  0.616382702439485  0.284045588177396  1.0000
  C   C3        1.0  0.6467256384884771  0.5876618320471809  0.35564465291390346  1.0000
  C   C4        1.0  0.5588864106797096  0.61638271652138  0.28404556506398637  1.0000
  C   C5        1.0  0.4691857882110891  0.585799350454687  0.3573698533538374  1.0000
  N   N2        1.0  0.39707990839579455  0.5612153932495705  0.41631020910978545  1.0000
  C   C6        1.0  0.5583790125256289  0.674430905742992  0.14086881200746904  1.0000
  C   C7        1.0  0.645635144852205  0.7053002617243374  0.06917485163862991  1.0000
  C   C8        1.0  0.645081792358711  0.7634686176497325  0.9145112012847544  1.0000
  C   C9        1.0  0.733456101478024  0.6744309034679299  0.14086872173297316  1.0000
  H   H1        1.0  0.6471443953599202  0.5426223973415221  0.46646038933211975  1.0000
  H   H2        1.0  0.4903052843737072  0.6956261484269537  0.08531124236220178  1.0000
  H   H3        1.0  0.7094612111631268  0.8313614715401649  0.8909974519786171  1.0000
  H   H4        1.0  0.5797527335583965  0.8313614741014849  0.8909975170644184  1.0000
  H   H5        1.0  0.6456073310724226  0.6722144018491651  0.842604886009223  1.0000
  H   H6        1.0  0.8011282426250036  0.6956262599827225  0.08531115739079054  1.0000
  C   C10       1.0  0.14976275181784524  0.13780856555309784  0.414642252819138  1.0000
  C   C11       1.0  0.12313871339727896  0.21964972609897335  0.28755346688703143  1.0000
  C   C12       1.0  0.08867047432845543  0.15234425003825658  0.16719676271580905  1.0000
  C   C13       1.0  0.08025931459812294  0.002279676069615984  0.17251138329710258  1.0000
  C   C14       1.0  0.10777499496102871  0.919200343371976  0.29670328167607574  1.0000
  C   C15       1.0  0.14417996937041733  0.9846113348333789  0.4179906663619839  1.0000
  C   C16       1.0  0.06076072450464798  0.23775109755250057  0.038576225433074145  1.0000
  N   N3        1.0  0.03832902453728313  0.3064026437502907  0.9351982593121475  1.0000
  H   H7        1.0  0.16883940510047685  0.21820439118242338  0.7684554777268493  1.0000
  H   H8        1.0  0.12707625919639787  0.3365641014650371  0.2832766308430583  1.0000
  H   H9        1.0  0.053253995521586495  0.9491792920605323  0.0800096971008808  1.0000
  H   H10       1.0  0.1027063797934748  0.8027314125711725  0.296576429563544  1.0000
  H   H11       1.0  0.16111961503007796  0.6883367894657784  0.655055591467546  1.0000
  C   C17       1.0  0.14653918003444888  0.5567538379338925  0.9930339125464753  1.0000
  C   C18       1.0  0.05782472484107658  0.5659353082738662  0.06575101962578733  1.0000
  C   C19       1.0  0.9707613544678005  0.5890632121631724  0.9895863037475515  1.0000
  C   C20       1.0  0.9729590459287425  0.6012681104491503  0.8381358632383562  1.0000
  C   C21       1.0  0.06010731029236412  0.5899697292945854  0.7644009548783978  1.0000
  C   C22       1.0  0.14740356541868804  0.5656660008034848  0.8395989911420885  1.0000
  C   C23       1.0  0.8784601223921769  0.5990168496443786  0.06948567682782225  1.0000
  O   O1        1.0  0.872379543548051  0.5432206537173103  0.19663567291366046  1.0000
  N   N4        1.0  0.795874688144254  0.6721650016853498  0.006238447149375715  1.0000
  H   H12       1.0  0.38035953299064507  0.6118276933026083  0.09321175105474655  1.0000
  H   H13       1.0  0.907226875445892  0.6155240081762925  0.7755690963063273  1.0000
  H   H14       1.0  0.30505032470196425  0.5960711760277753  0.5567974424910598  1.0000
  H   H15       1.0  0.800112615472148  0.734427350489548  0.9088188125105945  1.0000
  H   H16       1.0  0.7306365052674337  0.6720027233785892  0.06248026313438081  1.0000
  Zn  Zn1       1.0  0.0412080602458067  0.561211665900254  0.41631852693091553  1.0000
  Zn  Zn2       1.0  0.2527254177723739  0.5612075099282428  0.4163136829414  1.0000
  C   C24       1.0  0.14727586816159  0.5582374723777215  0.6795573284140326  1.0000
  C   C25       1.0  0.14665990777012827  0.5641835241381195  0.15307503007431844  1.0000
  C   C26       1.0  0.14522439695831646  0.8244870972127263  0.41161377044815683  1.0000
  C   C27       1.0  0.1487113182964115  0.2979321678200295  0.4210186580402974  1.0000
  O   O2        1.0  0.22697020142084567  0.5666691272578663  0.2067844279689861  1.0000
  O   O3        1.0  0.22750236144246289  0.5557476228866292  0.6258438348095728  1.0000
  O   O4        1.0  0.2258446919572945  0.7707475779267383  0.40947752195983433  1.0000
  O   O5        1.0  0.22862779855112048  0.35166918139567827  0.42315063278471987  1.0000
  O   O6        1.0  0.06530560728654877  0.7707499944357268  0.40948157708167304  1.0000
  O   O7        1.0  0.06696326526819574  0.5557517708816104  0.6258478199253859  1.0000
  O   O8        1.0  0.06643110387260265  0.5666732067641849  0.20678667988272648  1.0000
  O   O9        1.0  0.06808870117725972  0.3516732517269836  0.4231529927265431  1.0000
