data_image0
_chemical_formula_structural       NC8NH4C6ClH5C7F3H5Zn2C4O8
_chemical_formula_sum              "N2 C25 H14 Cl1 F3 Zn2 O8"
_cell_length_a       13.859017124695912
_cell_length_b       9.276545438789551
_cell_length_c       9.272721663655245
_cell_angle_alpha    85.91497059500672
_cell_angle_beta     90.51616873928766
_cell_angle_gamma    89.40963735980037

_space_group_name_H-M_alt    "P 1"
_space_group_IT_number       1

loop_
  _space_group_symop_operation_xyz
  'x, y, z'

loop_
  _atom_site_type_symbol
  _atom_site_label
  _atom_site_symmetry_multiplicity
  _atom_site_fract_x
  _atom_site_fract_y
  _atom_site_fract_z
  _atom_site_occupancy
  N   N1        1.0  0.8881850245904361  0.5692796238214579  0.4103707881306369  1.0000
  C   C1        1.0  0.8156515405859927  0.5461133832755787  0.3541707568289316  1.0000
  C   C2        1.0  0.7254242025959798  0.5172979645707252  0.2842651409960224  1.0000
  C   C3        1.0  0.638026037699979  0.5453900734570345  0.35241432166281594  1.0000
  C   C4        1.0  0.5501938708162166  0.5172991870223649  0.2842645621748576  1.0000
  C   C5        1.0  0.5499422041976979  0.46110857744848227  0.14794470372060875  1.0000
  C   C6        1.0  0.637158645347725  0.43312444128386307  0.08005784739621769  1.0000
  C   C7        1.0  0.7248075863264111  0.46110623482939994  0.14794588118265817  1.0000
  C   C8        1.0  0.4604116924975355  0.5461143069479657  0.35417025914854405  1.0000
  N   N2        1.0  0.38823614666085  0.5692799451929147  0.41037057222064277  1.0000
  H   H1        1.0  0.6383620309651222  0.5888837891799894  0.45792915854243604  1.0000
  H   H2        1.0  0.4824759446820538  0.4389990261968247  0.09430383948133825  1.0000
  H   H3        1.0  0.6368233933796053  0.38971955848120765  0.9747566963229887  1.0000
  H   H4        1.0  0.7919322050228363  0.4389945886640658  0.09430601535474746  1.0000
  C   C9        1.0  0.14112587156487533  0.14584334577079083  0.4101329862539749  1.0000
  C   C10       1.0  0.14068467269883578  0.22875973866014898  0.27703972462687654  1.0000
  C   C11       1.0  0.1314825753289608  0.16296126443035508  0.1468432648926452  1.0000
  C   C12       1.0  0.12251031672367652  0.013375051795197372  0.14773702622670992  1.0000
  C   C13       1.0  0.12442536695481167  0.9289067523078852  0.2783873587911234  1.0000
  C   C14       1.0  0.13530470487572321  0.992705263915817  0.4106208706844594  1.0000
  Cl  Cl1       1.0  0.1297375093227513  0.2686734662318466  0.9822218921045973  1.0000
  H   H5        1.0  0.19184793827306668  0.41005449836506447  0.6368384712283426  1.0000
  H   H6        1.0  0.1451885803613988  0.34546453979435343  0.2741848211946709  1.0000
  H   H7        1.0  0.11496904546891473  0.9620971271239571  0.04700927090859675  1.0000
  H   H8        1.0  0.11969205876919453  0.8126316389518303  0.2757358171825284  1.0000
  H   H9        1.0  0.10437209501399325  0.6952574727814912  0.6437905486724196  1.0000
  C   C15       1.0  0.135678393822813  0.5669355462562444  0.9869323504663288  1.0000
  C   C16       1.0  0.17755505009947448  0.44899314981421234  0.0695867265208423  1.0000
  C   C17       1.0  0.227829745419168  0.33962773068886176  0.00361869714248986  1.0000
  C   C18       1.0  0.23328480217840308  0.34626771854304894  0.8524727014308744  1.0000
  C   C19       1.0  0.19085693501085355  0.46120796946081  0.7688482941054771  1.0000
  C   C20       1.0  0.14075218171853884  0.5716130447040213  0.8338214711737981  1.0000
  C   C21       1.0  0.2700002353024833  0.21214907241597758  0.09389259616349466  1.0000
  F   F1        1.0  0.302206745095561  0.25405732017493166  0.22614967637254102  1.0000
  F   F2        1.0  0.3473230477791176  0.15250638909863268  0.024738290620430987  1.0000
  F   F3        1.0  0.1998748905382206  0.10835796436543356  0.11686853808572639  1.0000
  H   H10       1.0  0.07215600350827933  0.9103022940133607  0.06334957830808063  1.0000
  H   H11       1.0  0.17277237599440176  0.44387036904457217  0.18642941070398011  1.0000
  H   H12       1.0  0.26953076638683404  0.2615631608309048  0.7985160296454197  1.0000
  H   H13       1.0  0.19498842432715957  0.46166914673014664  0.6521939407272015  1.0000
  H   H14       1.0  0.9659268955294086  0.8148185225674642  0.7126707999113511  1.0000
  Zn  Zn1       1.0  0.03248905610764187  0.569275912776501  0.4103790551253268  1.0000
  Zn  Zn2       1.0  0.2439322592170532  0.569271959047901  0.41037412530510403  1.0000
  C   C22       1.0  0.13983044086021934  0.5649845091853078  0.6737380016337424  1.0000
  C   C23       1.0  0.13659317175953656  0.5735651827479906  0.14701532132054695  1.0000
  C   C24       1.0  0.1363656184150308  0.8325985650411216  0.4047825016024662  1.0000
  C   C25       1.0  0.14005793442285097  0.3059493949036427  0.41597089723306063  1.0000
  O   O1        1.0  0.21714181646752603  0.5757823581867543  0.2007387542501029  1.0000
  O   O2        1.0  0.21976229984005546  0.562763242872907  0.6200104113663285  1.0000
  O   O3        1.0  0.21696333918463395  0.7788649857195502  0.40282694307525024  1.0000
  O   O4        1.0  0.21994070425306148  0.3596806250593083  0.41792211443098926  1.0000
  O   O5        1.0  0.056480538916389614  0.7788672467679705  0.40283106599354035  1.0000
  O   O6        1.0  0.05927948719844145  0.5627672359127378  0.6200144583974796  1.0000
  O   O7        1.0  0.05665899384897566  0.5757862914033178  0.2007410675854575  1.0000
  O   O8        1.0  0.05945788234915318  0.35968454855955195  0.41792453587063444  1.0000
