data_image0
_chemical_formula_structural       NC6NC3H6C6NCH9C6ClH3Zn2C4O8
_chemical_formula_sum              "N3 C26 H18 Cl1 Zn2 O8"
_cell_length_a       14.934028789175542
_cell_length_b       9.273386996610926
_cell_length_c       10.302974078461048
_cell_angle_alpha    85.46621229036245
_cell_angle_beta     89.97499619632823
_cell_angle_gamma    89.3610420342759

_space_group_name_H-M_alt    "P 1"
_space_group_IT_number       1

loop_
  _space_group_symop_operation_xyz
  'x, y, z'

loop_
  _atom_site_type_symbol
  _atom_site_label
  _atom_site_symmetry_multiplicity
  _atom_site_fract_x
  _atom_site_fract_y
  _atom_site_fract_z
  _atom_site_occupancy
  N   N1        1.0  0.8329032856587254  0.5780361185565117  0.5651598933978819  1.0000
  C   C1        1.0  0.7554243747993017  0.5769375401817227  0.5645501344339893  1.0000
  C   C2        1.0  0.659036737195525  0.57556585759861  0.5637889642509832  1.0000
  C   C3        1.0  0.6105810770508449  0.6823934137860372  0.6229730340739636  1.0000
  C   C4        1.0  0.5170764975377374  0.681292048590608  0.6223627443576386  1.0000
  C   C5        1.0  0.471114675416896  0.5734176442640047  0.5625987686917662  1.0000
  C   C6        1.0  0.37445389112510535  0.5757321985345139  0.5638822310418312  1.0000
  N   N2        1.0  0.296961854111089  0.5775690891577594  0.5649011159505979  1.0000
  C   C7        1.0  0.5195743536861335  0.46511215220487556  0.5025954004356745  1.0000
  C   C8        1.0  0.47201903231117015  0.34783025121008965  0.43762064447417015  1.0000
  C   C9        1.0  0.6137027098583275  0.4673373559422618  0.5038282438980172  1.0000
  H   H1        1.0  0.6450792565265456  0.7665636187640061  0.6696051220243603  1.0000
  H   H2        1.0  0.4804989375526858  0.7648140209050823  0.6686355718014787  1.0000
  H   H3        1.0  0.4289495102988841  0.3969195400065091  0.3577455918673899  1.0000
  H   H4        1.0  0.42968403264280447  0.28496003314522156  0.5098668614164542  1.0000
  H   H5        1.0  0.519970732381915  0.27186507466452325  0.39552898026515826  1.0000
  H   H6        1.0  0.6517661210116923  0.3849264748325245  0.458171239960063  1.0000
  C   C10       1.0  0.06769043872059255  0.1541458291982527  0.5656669228432637  1.0000
  C   C11       1.0  0.08341311700908477  0.23760561561068627  0.4482726428309607  1.0000
  C   C12       1.0  0.0907047295106109  0.17309539887872338  0.3308758083166341  1.0000
  C   C13       1.0  0.08238396570416578  0.022803109027994095  0.32787173192719044  1.0000
  C   C14       1.0  0.06823928852901638  0.9383788200930206  0.444857360965345  1.0000
  C   C15       1.0  0.06218335853677903  0.001448228398743806  0.5644053351502123  1.0000
  N   N3        1.0  0.08891861242498272  0.9532572297185519  0.2080516297339747  1.0000
  C   C16       1.0  0.10383555118779039  0.031138725564659804  0.08135291126117926  1.0000
  H   H7        1.0  0.08598446650276846  0.4162721167388873  0.7788007158544515  1.0000
  H   H8        1.0  0.08798029724983175  0.35424691247464857  0.4466773168926146  1.0000
  H   H9        1.0  0.10199709010707275  0.24168616053170422  0.24268369433832304  1.0000
  H   H10       1.0  0.06401276155796998  0.8219820045028116  0.4428116519820471  1.0000
  H   H11       1.0  0.09515282284460191  0.8700530654567832  0.8805942366061035  1.0000
  H   H12       1.0  0.08258798499185355  0.840896478333988  0.21074730399876682  1.0000
  H   H13       1.0  0.04832480089965772  0.10976815818154419  0.05882696011269672  1.0000
  H   H14       1.0  0.16864752797258115  0.08862524389744841  0.08152626284135665  1.0000
  H   H15       1.0  0.10609286302850136  0.9536998669797349  0.00449345213158403  1.0000
  C   C17       1.0  0.06493691569783767  0.5777970576695426  0.1837936228786432  1.0000
  C   C18       1.0  0.05033490297692242  0.42797056752675594  0.19325908950788093  1.0000
  C   C19       1.0  0.04308982849341312  0.3536307438981865  0.08099880466953513  1.0000
  C   C20       1.0  0.05033494249559545  0.427970648963279  0.9581511903931239  1.0000
  C   C21       1.0  0.06493691389782641  0.577796983201625  0.9462786420642213  1.0000
  C   C22       1.0  0.07216675787152704  0.6519799182694939  0.0597536521662112  1.0000
  Cl  Cl1       1.0  0.02484844857981793  0.16646186411389596  0.094326963912418  1.0000
  H   H16       1.0  0.044527353710624995  0.3683810736311359  0.28754895633301447  1.0000
  H   H17       1.0  0.04452741641677124  0.368381052982135  0.8723479902548652  1.0000
  H   H18       1.0  0.08342822818690962  0.7675306045006796  0.051525275191478974  1.0000
  Zn  Zn1       1.0  0.9668206029375154  0.5778974779805836  0.5650927129413874  1.0000
  Zn  Zn2       1.0  0.16304464370712768  0.5776959120001426  0.564978928198407  1.0000
  C   C23       1.0  0.06497225916068425  0.5720496685697272  0.8021611786372176  1.0000
  C   C24       1.0  0.0648951184131894  0.5835455395267239  0.3279105859738378  1.0000
  C   C25       1.0  0.06321972000488935  0.841290058081202  0.5594703275730116  1.0000
  C   C26       1.0  0.06664760187715779  0.3143034167683332  0.5706015088734147  1.0000
  O   O1        1.0  0.13934713261241355  0.5853919953285309  0.37623438396792847  1.0000
  O   O2        1.0  0.13944975866417408  0.5700491404943244  0.7537506485544381  1.0000
  O   O3        1.0  0.1380335572946494  0.7874641610653914  0.5577760675905641  1.0000
  O   O4        1.0  0.1407632669568898  0.36797698514661203  0.572208867612874  1.0000
  O   O5        1.0  0.9891019127261086  0.7876164049044696  0.5578627735589179  1.0000
  O   O6        1.0  0.990518102825814  0.5702031176506737  0.7538372827194189  1.0000
  O   O7        1.0  0.9904154771603982  0.5855459222107589  0.3763194573246411  1.0000
  O   O8        1.0  0.9918316115682776  0.3681309017100465  0.572294038320513  1.0000
