data_image0
_chemical_formula_structural       NC10NC5H10C13OH12C12OCH12Zn2C4O8
_chemical_formula_sum              "N2 C45 H34 O10 Zn2"
_cell_length_a       19.4436361288709
_cell_length_b       10.299150109392551
_cell_length_c       10.299794127170987
_cell_angle_alpha    85.55695120171342
_cell_angle_beta     89.69815743819765
_cell_angle_gamma    89.39953782186458

_space_group_name_H-M_alt    "P 1"
_space_group_IT_number       1

loop_
  _space_group_symop_operation_xyz
  'x, y, z'

loop_
  _atom_site_type_symbol
  _atom_site_label
  _atom_site_symmetry_multiplicity
  _atom_site_fract_x
  _atom_site_fract_y
  _atom_site_fract_z
  _atom_site_occupancy
  N   N1        1.0  0.6474912025853687  0.40900803220112336  0.5616865221932683  1.0000
  C   C1        1.0  0.5886535348488835  0.41891231814147417  0.5760665733057284  1.0000
  C   C2        1.0  0.5153220903632068  0.4312642963742341  0.5940539947660788  1.0000
  C   C3        1.0  0.47314400240393745  0.39925430269287204  0.4993950239844784  1.0000
  C   C4        1.0  0.39723750254309065  0.4096940088030179  0.5047193931043072  1.0000
  C   C5        1.0  0.357502180802392  0.38495609375842776  0.6117954312772749  1.0000
  C   C6        1.0  0.28138099543027056  0.38887157710028153  0.5988353087898552  1.0000
  C   C7        1.0  0.2408076967707288  0.44654789417658475  0.6925827168227803  1.0000
  C   C8        1.0  0.1691437017634488  0.45018475923874307  0.6820380609553187  1.0000
  C   C9        1.0  0.1370583177378657  0.3957492965162277  0.5780326431889705  1.0000
  C   C10       1.0  0.063265067937688  0.399447392364789  0.5673326916469779  1.0000
  N   N2        1.0  0.0039403001980704  0.4024204673910061  0.5587306399843905  1.0000
  C   C11       1.0  0.1769068472763305  0.3373658758997214  0.48466868899712273  1.0000
  C   C12       1.0  0.24858728174670752  0.33367475455205264  0.4949615963987357  1.0000
  C   C13       1.0  0.3856415213696665  0.3445067307303064  0.742897859378537  1.0000
  C   C14       1.0  0.44429739528002615  0.38763725076411887  0.7901239513718907  1.0000
  C   C15       1.0  0.48848804244399285  0.4854948608203574  0.7157271568709632  1.0000
  H   H1        1.0  0.49524847730006893  0.37012487687446693  0.4091018125718009  1.0000
  H   H2        1.0  0.3725355424106098  0.43218007943689735  0.4115575867446448  1.0000
  H   H3        1.0  0.2646702534382868  0.4898511691726459  0.7734131270597764  1.0000
  H   H4        1.0  0.1387906723803196  0.49551103819527026  0.7549406752254207  1.0000
  H   H5        1.0  0.1525723725271077  0.2942583109318515  0.40417268209390755  1.0000
  H   H6        1.0  0.2782750832231106  0.28610498770366416  0.4227560319097258  1.0000
  H   H7        1.0  0.3546869819142584  0.28029176590992844  0.8071633668648273  1.0000
  H   H8        1.0  0.4594528550277238  0.35357823614142103  0.8880654897604834  1.0000
  H   H9        1.0  0.45836332481179143  0.5762134305730773  0.6904461388180463  1.0000
  H   H10       1.0  0.5317684040162126  0.5110898704701248  0.7788008858480324  1.0000
  C   C16       1.0  0.8257838563736427  0.024313391835118152  0.5603521593923912  1.0000
  C   C17       1.0  0.8245086090897629  0.012571864238120517  0.6971666673859018  1.0000
  C   C18       1.0  0.8238022022465071  0.8894850909178279  0.7662713417648217  1.0000
  C   C19       1.0  0.8243760236295545  0.7773188659881569  0.6968043899092646  1.0000
  C   C20       1.0  0.8256542251073659  0.7871049574845714  0.5600762520975597  1.0000
  C   C21       1.0  0.8263525634309331  0.9110629668453964  0.4926491498019936  1.0000
  C   C22       1.0  0.8224471438514583  0.8780457214035197  0.9109155103729916  1.0000
  C   C23       1.0  0.7801505007796183  0.7859665999429332  0.979284285095341  1.0000
  C   C24       1.0  0.7788526053909068  0.7752839950881529  0.11539449215554021  1.0000
  C   C25       1.0  0.8202790062863088  0.8555146730568559  0.18559275374867557  1.0000
  C   C26       1.0  0.8619175847971171  0.9485597744089705  0.11787197567666628  1.0000
  C   C27       1.0  0.8632314457368679  0.9594178811525707  0.9817613475239666  1.0000
  C   C28       1.0  0.817438155865575  0.8464164557669919  0.33169532563491366  1.0000
  O   O1        1.0  0.7660290209904506  0.9305534561086523  0.3723602911348224  1.0000
  H   H11       1.0  0.8277441014394323  0.25377716950696705  0.30211206969269355  1.0000
  H   H12       1.0  0.8231083081384141  0.09938493625625847  0.7501842235845149  1.0000
  H   H13       1.0  0.824765222302069  0.6822028416582091  0.7496320528088434  1.0000
  H   H14       1.0  0.8273365322709464  0.9193275165754969  0.38718666201662644  1.0000
  H   H15       1.0  0.8260995730250951  0.46339441904048506  0.5074861988590793  1.0000
  H   H16       1.0  0.7472611314560567  0.7235523824578662  0.9274509133598472  1.0000
  H   H17       1.0  0.7453918838877205  0.7045857260355122  0.16604502278559996  1.0000
  H   H18       1.0  0.8935400030223514  0.012550568694994489  0.17046202222797543  1.0000
  H   H19       1.0  0.8967151627154719  0.030561365810948714  0.9319172293986898  1.0000
  H   H20       1.0  0.8680275964251016  0.873321028602333  0.3714438256650555  1.0000
  H   H21       1.0  0.806258528853149  0.744611498441613  0.3695987358141841  1.0000
  H   H22       1.0  0.7662778786461456  0.9208964734101611  0.4689801084048472  1.0000
  C   C29       1.0  0.8257422584619488  0.4055952838705596  0.17886261073613907  1.0000
  C   C30       1.0  0.758353865384283  0.3577141742076215  0.1822459127176137  1.0000
  C   C31       1.0  0.7241887025052166  0.33355538420282405  0.06681351046473294  1.0000
  C   C32       1.0  0.7583070673693743  0.3579415235906487  0.9469413269026714  1.0000
  C   C33       1.0  0.825695845467921  0.4058231336057885  0.9415657597092078  1.0000
  C   C34       1.0  0.8590367908754425  0.4293790033638232  0.058049313998423946  1.0000
  C   C35       1.0  0.6528975703257306  0.28289275045936835  0.07144753542972104  1.0000
  C   C36       1.0  0.6036514071864066  0.3324737684570374  0.9806899125685348  1.0000
  C   C37       1.0  0.536648829741158  0.28477818813154765  0.9853145637323713  1.0000
  C   C38       1.0  0.5179184105980515  0.1871827739980274  0.08019215375931421  1.0000
  C   C39       1.0  0.5664862729615646  0.13620958497285707  0.17181849384887582  1.0000
  C   C40       1.0  0.6335822358942751  0.18454303554191015  0.1667414602929227  1.0000
  O   O2        1.0  0.5503138445110161  0.037927878483593025  0.2688100600365577  1.0000
  C   C41       1.0  0.4843962097419888  0.9798679104739965  0.2854154141762435  1.0000
  H   H23       1.0  0.8514292845524075  0.423781555366628  0.5050309311731169  1.0000
  H   H24       1.0  0.7319331833630082  0.3407722602908292  0.2747483592244786  1.0000
  H   H25       1.0  0.7325280028064695  0.33782189000232693  0.8578310506831127  1.0000
  H   H26       1.0  0.9110243931400258  0.4663164210351078  0.05467084528415488  1.0000
  H   H27       1.0  0.8513600011970585  0.4241296320017209  0.6120601568703057  1.0000
  H   H28       1.0  0.6167186239005532  0.409304406816521  0.9072348583072398  1.0000
  H   H29       1.0  0.4990376736007343  0.32387167825324203  0.9152746325660285  1.0000
  H   H30       1.0  0.4656727851191008  0.15211130342070622  0.08146694035647606  1.0000
  H   H31       1.0  0.6708905072042775  0.14370498648875896  0.2366107724429969  1.0000
  H   H32       1.0  0.47022827946051293  0.9316702149331098  0.19668996789737678  1.0000
  H   H33       1.0  0.4861762092458588  0.905353361023338  0.369099592721124  1.0000
  H   H34       1.0  0.4452101724213068  0.054856258305195464  0.3059904548868124  1.0000
  Zn  Zn1       1.0  0.75035471383168  0.40710353388034676  0.5608410314920409  1.0000
  Zn  Zn2       1.0  0.9010767816195054  0.40431436033232515  0.5595868152175587  1.0000
  C   C42       1.0  0.8257039436659602  0.40060596597948916  0.7974004322191166  1.0000
  C   C43       1.0  0.8257291973792619  0.41081353657014597  0.3230275276623402  1.0000
  C   C44       1.0  0.8256755024568698  0.642919672994613  0.554953478987092  1.0000
  C   C45       1.0  0.825757587418416  0.16849827009442753  0.5654745511222907  1.0000
  O   O3        1.0  0.8829230541543589  0.41150068680478635  0.37093462425546875  1.0000
  O   O4        1.0  0.8829046490598413  0.39780091764290515  0.7485410410196307  1.0000
  O   O5        1.0  0.8828809112819768  0.5934723152048285  0.5527634168602149  1.0000
  O   O6        1.0  0.8829467405053414  0.21582929945653162  0.5667121514692599  1.0000
  O   O7        1.0  0.7684847035117999  0.5955885957093601  0.5537156956615108  1.0000
  O   O8        1.0  0.7685084410255564  0.3999187585612513  0.749493250014172  1.0000
  O   O9        1.0  0.7685268462685693  0.41361848199614676  0.37188527193627235  1.0000
  O   O10       1.0  0.7685505326123897  0.217947085387443  0.5676628965168593  1.0000
