data_image0
_chemical_formula_structural       NC8NC6H8C7OCH10C9H10Zn2C4O8
_chemical_formula_sum              "N2 C35 H28 O9 Zn2"
_cell_length_a       17.457602349358154
_cell_length_b       10.300832083147542
_cell_length_c       9.272679976505534
_cell_angle_alpha    86.00090220550724
_cell_angle_beta     93.25957942520282
_cell_angle_gamma    91.68357009181102

_space_group_name_H-M_alt    "P 1"
_space_group_IT_number       1

loop_
  _space_group_symop_operation_xyz
  'x, y, z'

loop_
  _atom_site_type_symbol
  _atom_site_label
  _atom_site_symmetry_multiplicity
  _atom_site_fract_x
  _atom_site_fract_y
  _atom_site_fract_z
  _atom_site_occupancy
  N   N1        1.0  0.7167380292507866  0.44140448628677564  0.47420058930635034  1.0000
  C   C1        1.0  0.6556194334000243  0.3953964122001153  0.4624297351796128  1.0000
  C   C2        1.0  0.5795853557266907  0.3381681602962763  0.44779738660872453  1.0000
  C   C3        1.0  0.5213599654256668  0.3789417656458089  0.5309543571900617  1.0000
  C   C4        1.0  0.4467663551609747  0.32383662392020196  0.517003513745341  1.0000
  C   C5        1.0  0.3849679784658156  0.36688950681494314  0.6050699487694997  1.0000
  C   C6        1.0  0.3101927592128095  0.38489781455510613  0.5431385054417814  1.0000
  C   C7        1.0  0.2519678170674811  0.4254883993159544  0.6264154274586926  1.0000
  C   C8        1.0  0.1757453694428273  0.4440842930039293  0.5620235230472073  1.0000
  N   N2        1.0  0.11447543904353107  0.45902901368390636  0.5102526020958307  1.0000
  C   C9        1.0  0.2680279920095364  0.4483179741160861  0.7721883982324553  1.0000
  C   C10       1.0  0.3420200660891505  0.4307018015537436  0.8345501119589454  1.0000
  C   C11       1.0  0.4002352602580204  0.39029501594645893  0.7517814113776042  1.0000
  C   C12       1.0  0.4316809743286086  0.22726874489686535  0.418304730690763  1.0000
  C   C13       1.0  0.48989626228079797  0.1867770805476241  0.3355918487795233  1.0000
  C   C14       1.0  0.563707343981399  0.24199910722387835  0.35015335774481704  1.0000
  H   H1        1.0  0.5339715006046986  0.4546765512707901  0.6049175099692041  1.0000
  H   H2        1.0  0.297432402861579  0.369090421450847  0.42984802224291174  1.0000
  H   H3        1.0  0.2234052673154997  0.4796813673700149  0.8375125740721299  1.0000
  H   H4        1.0  0.35426509896137054  0.44806363822249584  0.9474254958358139  1.0000
  H   H5        1.0  0.45690983311569866  0.3756835931133102  0.8029875348318707  1.0000
  H   H6        1.0  0.3751554752013661  0.18184998570142533  0.4064935420913587  1.0000
  H   H7        1.0  0.4777935839475888  0.11214880057888443  0.2602975524899007  1.0000
  H   H8        1.0  0.6083322478481592  0.209770300192881  0.2853971118168246  1.0000
  C   C15       1.0  0.9156323826727457  0.06888222806102709  0.4923802013496778  1.0000
  C   C16       1.0  0.8937310219611649  0.07626441307810784  0.3440058994772017  1.0000
  C   C17       1.0  0.8818088964947504  0.9627979283791366  0.26964782291499656  1.0000
  C   C18       1.0  0.8936742207827358  0.8410001971726099  0.3436198369958081  1.0000
  C   C19       1.0  0.9155884911281043  0.8315416662917459  0.49208615961115565  1.0000
  C   C20       1.0  0.9262593262286088  0.946000923810424  0.5656615484076857  1.0000
  C   C21       1.0  0.8605714413425067  0.971983466354845  0.11002862234965426  1.0000
  O   O1        1.0  0.9284334581594423  0.9803080456823253  0.033763756925353494  1.0000
  C   C22       1.0  0.9092683564093624  0.9890105602531107  0.8837030082995491  1.0000
  H   H9        1.0  0.9248909497396444  0.3935189940920458  0.5488567947195035  1.0000
  H   H10       1.0  0.8858707174895809  0.17018302119192932  0.2856594031883357  1.0000
  H   H11       1.0  0.8857742248521412  0.753767734901904  0.28500824562118177  1.0000
  H   H12       1.0  0.9431571083035881  0.9395448652694377  0.6800905897543046  1.0000
  H   H13       1.0  0.9577682337939725  0.6065133400101264  0.7717931382613692  1.0000
  H   H14       1.0  0.8251484350324451  0.05951007931742258  0.0827165079264307  1.0000
  H   H15       1.0  0.8251780321301068  0.8844195253101244  0.08238861638450379  1.0000
  H   H16       1.0  0.9631013125312522  0.995474474406023  0.8252591627636843  1.0000
  H   H17       1.0  0.8764682981158709  0.0782470492748748  0.850665572745521  1.0000
  H   H18       1.0  0.876480321956764  0.900762974317877  0.8503094075112902  1.0000
  C   C23       1.0  0.9140546084782609  0.44707661359851475  0.06873063708581251  1.0000
  C   C24       1.0  0.9662137910746579  0.36906188256418987  0.1537552595522811  1.0000
  C   C25       1.0  0.022151676536437785  0.30173758227819425  0.09025115980395015  1.0000
  C   C26       1.0  0.027821938046016747  0.31021624741310877  0.9398997478212143  1.0000
  C   C27       1.0  0.9747416716066091  0.386427757746533  0.8534080294374107  1.0000
  C   C28       1.0  0.9171662293266512  0.4533473008993061  0.9157357451799996  1.0000
  C   C29       1.0  0.09091696770047487  0.23478728508065008  0.8795003626798558  1.0000
  C   C30       1.0  0.07264647703669214  0.17454951672334548  0.7357670090126622  1.0000
  C   C31       1.0  0.12661949922447388  0.2932154480983864  0.7427965780787487  1.0000
  H   H19       1.0  0.7984955020592112  0.5297550045720891  0.33117354117606324  1.0000
  H   H20       1.0  0.964999239360612  0.3624577343165636  0.27072226253377174  1.0000
  H   H21       1.0  0.06188454607740246  0.24348638310124307  0.159507882848559  1.0000
  H   H22       1.0  0.9764580445936817  0.39211755587887925  0.7367825674964368  1.0000
  H   H23       1.0  0.7429260154544479  0.56779059217357  0.7851929507945399  1.0000
  H   H24       1.0  0.1310308985933606  0.17814845489138098  0.9553448897860924  1.0000
  H   H25       1.0  0.01564027764670707  0.19418347649802303  0.6809097804407376  1.0000
  H   H26       1.0  0.10246091074051658  0.08238482538331614  0.7242110282638436  1.0000
  H   H27       1.0  0.10243584781147957  0.3848746132919481  0.6920960981637472  1.0000
  H   H28       1.0  0.1879877660973427  0.27039768535488484  0.7353460594466785  1.0000
  Zn  Zn1       1.0  0.8315164849392734  0.44648712343959424  0.48461274967267665  1.0000
  Zn  Zn2       1.0  0.9996970130941966  0.4539358170789723  0.49985225304322123  1.0000
  C   C32       1.0  0.9165766598620448  0.446988700837021  0.7556354412066746  1.0000
  C   C33       1.0  0.914638675123221  0.45343596054160273  0.22882986884128995  1.0000
  C   C34       1.0  0.9155717045254359  0.6873400776593084  0.48639443352306017  1.0000
  C   C35       1.0  0.9156435734438731  0.2130830215841866  0.49807094881441416  1.0000
  O   O2        1.0  0.9786583275056124  0.4583912906527359  0.2883439478351906  1.0000
  O   O3        1.0  0.980202135447997  0.44768577413901767  0.7076873778821249  1.0000
  O   O4        1.0  0.9793897664401303  0.6417725235770635  0.49027328076923254  1.0000
  O   O5        1.0  0.9794706387270772  0.26430454716180196  0.505757931611676  1.0000
  O   O6        1.0  0.8517428019146049  0.6361183908162489  0.478707065896141  1.0000
  O   O7        1.0  0.8525551705466403  0.4420332009728157  0.696121085511443  1.0000
  O   O8        1.0  0.851011356288083  0.45273865940020264  0.27677592158244657  1.0000
  O   O9        1.0  0.8518236679041611  0.2586519074216407  0.49419001348725816  1.0000
