data_image0
_chemical_formula_structural       NC10NC3NH7C12ClH9C16H10Zn2C4O8
_chemical_formula_sum              "N3 C45 H26 Cl1 Zn2 O8"
_cell_length_a       19.210446455230148
_cell_length_b       10.299768534541528
_cell_length_c       10.299151387937775
_cell_angle_alpha    85.58714147101236
_cell_angle_beta     89.97931430287453
_cell_angle_gamma    89.96529235611058

_space_group_name_H-M_alt    "P 1"
_space_group_IT_number       1

loop_
  _space_group_symop_operation_xyz
  'x, y, z'

loop_
  _atom_site_type_symbol
  _atom_site_label
  _atom_site_symmetry_multiplicity
  _atom_site_fract_x
  _atom_site_fract_y
  _atom_site_fract_z
  _atom_site_occupancy
  N   N1        1.0  0.6558608223574013  0.4195502818785361  0.5674134525726746  1.0000
  C   C1        1.0  0.5956324494017341  0.4217578372421753  0.5676447504861173  1.0000
  C   C2        1.0  0.5208282285408737  0.4244948015558123  0.5679312998807602  1.0000
  C   C3        1.0  0.4852263139848138  0.5407286358440757  0.5830509681056557  1.0000
  C   C4        1.0  0.4125608521096154  0.5408801471707374  0.5829983809594637  1.0000
  C   C5        1.0  0.3756615289486545  0.4252037863140243  0.5680178311188302  1.0000
  C   C6        1.0  0.29833929486502514  0.42384728243993686  0.5678671471405659  1.0000
  C   C7        1.0  0.2605994729556101  0.5273887433769364  0.5045123457034568  1.0000
  C   C8        1.0  0.1878210052548803  0.5259865028626385  0.5044031763997381  1.0000
  C   C9        1.0  0.15178097510203012  0.4213002832956674  0.5675978291300972  1.0000
  C   C10       1.0  0.076851353820487  0.4199981778063617  0.5674609121323906  1.0000
  N   N2        1.0  0.016613420109363695  0.4189512407998799  0.5673508657391517  1.0000
  C   C11       1.0  0.18879715254109522  0.3178845012140066  0.6309276306028313  1.0000
  C   C12       1.0  0.2615774411323126  0.3190125017066274  0.6310870272123221  1.0000
  C   C13       1.0  0.41387343879569  0.3107902814179333  0.553186450880726  1.0000
  N   N3        1.0  0.484643583468237  0.31323526239382343  0.5533521792716842  1.0000
  H   H1        1.0  0.5133339853442591  0.6301649619649394  0.5951054547006527  1.0000
  H   H2        1.0  0.3852986396174934  0.630898903520176  0.5964476308287485  1.0000
  H   H3        1.0  0.287337851355785  0.6086188011028397  0.4535271988071508  1.0000
  H   H4        1.0  0.1596855112109044  0.6063894301026258  0.4547483673876551  1.0000
  H   H5        1.0  0.16141924034914207  0.236518160530601  0.6804828897186261  1.0000
  H   H6        1.0  0.28906795512569156  0.23872935502239745  0.6821795710573382  1.0000
  H   H7        1.0  0.3876013871654871  0.2199086072303218  0.5396908955628772  1.0000
  C   C14       1.0  0.8361747933739625  0.03788548640267009  0.5673800495253432  1.0000
  C   C15       1.0  0.8407738870369293  0.04738436254236645  0.4309099073858029  1.0000
  C   C16       1.0  0.843171203876729  0.9350580435011283  0.3617667782913323  1.0000
  C   C17       1.0  0.8409068336330883  0.8120964310584472  0.4309253743231944  1.0000
  C   C18       1.0  0.8363061024224081  0.8006060285733697  0.5673954546969477  1.0000
  C   C19       1.0  0.8339663592726574  0.9140572954020209  0.6348585588334679  1.0000
  C   C20       1.0  0.848037587110186  0.9461607288636505  0.21739274445420054  1.0000
  C   C21       1.0  0.8084445820909323  0.039734254753714726  0.14293558242045568  1.0000
  C   C22       1.0  0.8130869812649179  0.04998852420101007  0.007054612869947569  1.0000
  C   C23       1.0  0.8572553432466506  0.9671907801145387  0.9439389539803572  1.0000
  C   C24       1.0  0.8968371012264376  0.8739288619243406  0.016884892819464925  1.0000
  C   C25       1.0  0.892318316584371  0.8632821423319359  0.15278048423148216  1.0000
  Cl  Cl1       1.0  0.8630023624692832  0.980302455931531  0.7734524371698841  1.0000
  H   H8        1.0  0.8343865962290787  0.361719755194095  0.6193786446669924  1.0000
  H   H9        1.0  0.8434632123610929  0.14236939582029806  0.3781766897692216  1.0000
  H   H10       1.0  0.8417795876381684  0.7252382325401532  0.3779789159421403  1.0000
  H   H11       1.0  0.830417665246149  0.905961162174484  0.7401389915102501  1.0000
  H   H12       1.0  0.834580723663533  0.46877385759592927  0.6194018399456396  1.0000
  H   H13       1.0  0.7732441970862154  0.10378889545096849  0.18968529935702083  1.0000
  H   H14       1.0  0.7821867393329069  0.12212941558612724  0.9509480427637245  1.0000
  H   H15       1.0  0.9312613583221627  0.8098281621409967  0.9684458273964567  1.0000
  H   H16       1.0  0.9241020276702143  0.7914324449918008  0.2073925913275767  1.0000
  C   C26       1.0  0.836280757856512  0.4190769654096558  0.18601678623731477  1.0000
  C   C27       1.0  0.7691270088562572  0.47314095567934245  0.18112106421054697  1.0000
  C   C28       1.0  0.7350371826217474  0.5007265241667849  0.06148288755334886  1.0000
  C   C29       1.0  0.7690059809957075  0.47351874692136975  0.9458087586495454  1.0000
  C   C30       1.0  0.8362001209600036  0.4194145456508113  0.948758783696543  1.0000
  C   C31       1.0  0.8694245295955049  0.3925286765155435  0.0692894704819853  1.0000
  C   C32       1.0  0.6639966491709833  0.557919989228878  0.05734921414467543  1.0000
  C   C33       1.0  0.6463330506498118  0.6577606029360858  0.9620495240679294  1.0000
  C   C34       1.0  0.5794582213179237  0.7115518994660468  0.958287183716755  1.0000
  C   C35       1.0  0.5293697283995836  0.6663124822344317  0.049522960379676066  1.0000
  C   C36       1.0  0.5464025362675323  0.5670312489624019  0.14466067837432783  1.0000
  C   C37       1.0  0.6132573799662268  0.5131523936937019  0.14867258536729855  1.0000
  C   C38       1.0  0.46053169121998433  0.7217367462620228  0.045521628057922266  1.0000
  C   C39       1.0  0.40288080642159396  0.7681537296890106  0.042170483582754104  1.0000
  C   C40       1.0  0.33537221981783544  0.8225076014511552  0.03824632679544315  1.0000
  C   C41       1.0  0.277730651556556  0.8689173215302026  0.03489583039340238  1.0000
  H   H17       1.0  0.8620961535332438  0.3982190993266148  0.5153803359661668  1.0000
  H   H18       1.0  0.7435541185527687  0.49557756226578875  0.27042980989783527  1.0000
  H   H19       1.0  0.7425960748247162  0.4929414026253313  0.8534408396574139  1.0000
  H   H20       1.0  0.9212210990773725  0.35082417899050844  0.07235019251681196  1.0000
  H   H21       1.0  0.9628505206948684  0.31653766335107036  0.7470926952302217  1.0000
  H   H22       1.0  0.6845007107519961  0.695398839029777  0.8914972561178082  1.0000
  H   H23       1.0  0.5668828142099147  0.7886211853007365  0.8844384949667448  1.0000
  H   H24       1.0  0.5079651510175472  0.5310346405434931  0.21554443471708673  1.0000
  H   H25       1.0  0.6250100341679546  0.43532284528891774  0.22212838413528035  1.0000
  H   H26       1.0  0.22711659548777643  0.9096688251499063  0.031953825298983725  1.0000
  Zn  Zn1       1.0  0.7599662271549805  0.4193739508622165  0.5674028904022932  1.0000
  Zn  Zn2       1.0  0.9125079964257493  0.41911699407737  0.5673720635302222  1.0000
  C   C42       1.0  0.8362129264363022  0.4141771475966024  0.8045840928187612  1.0000
  C   C43       1.0  0.8362629631644156  0.4243154331974317  0.3301909882774636  1.0000
  C   C44       1.0  0.8362782404774916  0.6564333611177258  0.5622173805878492  1.0000
  C   C45       1.0  0.8361975967954607  0.18205765950691255  0.5725577697262942  1.0000
  O   O1        1.0  0.8941457965879914  0.42597033139281487  0.3785654687776707  1.0000
  O   O2        1.0  0.8941057661838215  0.412326245268437  0.7561858415680238  1.0000
  O   O3        1.0  0.8941577275865453  0.6079512033470003  0.5604730068419228  1.0000
  O   O4        1.0  0.8940937831449876  0.2303453826489641  0.5742782061392815  1.0000
  O   O5        1.0  0.7783803883807238  0.6081455623797205  0.5604967477969225  1.0000
  O   O6        1.0  0.7783284272507474  0.41252216455965035  0.7562095133087945  1.0000
  O   O7        1.0  0.7783684578584751  0.4261662047372574  0.3785875791083373  1.0000
  O   O8        1.0  0.7783164444007331  0.23054124674779208  0.5743004138381274  1.0000
