data_image0
_chemical_formula_structural       NC5NC4H6C7NH5C6NCH6Zn2C4O8
_chemical_formula_sum              "N4 C27 H17 Zn2 O8"
_cell_length_a       13.854160002989762
_cell_length_b       9.275154477615127
_cell_length_c       9.273390368590327
_cell_angle_alpha    86.39388611738053
_cell_angle_beta     89.99084465989662
_cell_angle_gamma    89.43370676253429

_space_group_name_H-M_alt    "P 1"
_space_group_IT_number       1

loop_
  _space_group_symop_operation_xyz
  'x, y, z'

loop_
  _atom_site_type_symbol
  _atom_site_label
  _atom_site_symmetry_multiplicity
  _atom_site_fract_x
  _atom_site_fract_y
  _atom_site_fract_z
  _atom_site_occupancy
  N   N1        1.0  0.8987488198790993  0.5610653164962724  0.41638120459582884  1.0000
  C   C1        1.0  0.8262598090468501  0.5856437687430429  0.3574433997113615  1.0000
  C   C2        1.0  0.7360824572167776  0.6162200229804196  0.28412251260861954  1.0000
  C   C3        1.0  0.6486935836178113  0.5875059404707315  0.3557183676343716  1.0000
  C   C4        1.0  0.5609400447548356  0.6162200370601236  0.28412248949624574  1.0000
  C   C5        1.0  0.47115166864083813  0.5856436224342576  0.35744349073538473  1.0000
  N   N2        1.0  0.3989752497013594  0.5610652530146467  0.41638120425718506  1.0000
  C   C6        1.0  0.5606039988539712  0.6742546525430759  0.14095215490295665  1.0000
  C   C7        1.0  0.647945933668653  0.7051172116453137  0.0692614084989438  1.0000
  C   C8        1.0  0.647577680811888  0.7632709048274546  0.9146046915538183  1.0000
  C   C9        1.0  0.7356810879144053  0.6742546502594553  0.14095206463250753  1.0000
  H   H1        1.0  0.6489797175199401  0.5424770115477038  0.4665291362996944  1.0000
  H   H2        1.0  0.4925967613476234  0.6954446281434168  0.0853970758450946  1.0000
  H   H3        1.0  0.7119852405947739  0.8311615295187939  0.8910919963443273  1.0000
  H   H4        1.0  0.5822767629121499  0.8311615320862848  0.8910920614272118  1.0000
  H   H5        1.0  0.6481892761575592  0.6720098720156711  0.8427015997627616  1.0000
  H   H6        1.0  0.8034197197006125  0.6954447396911296  0.08539699087749253  1.0000
  C   C10       1.0  0.1516600893138708  0.13765826718913288  0.41471332273926365  1.0000
  C   C11       1.0  0.12518814925678276  0.21948737920108075  0.2876302340637422  1.0000
  C   C12       1.0  0.09086395167520563  0.15217049283517503  0.16727892535696176  1.0000
  C   C13       1.0  0.08244643146950172  0.002106422714186041  0.17259330768940506  1.0000
  C   C14       1.0  0.10981348042986402  0.9190388639137484  0.29677963867621426  1.0000
  C   C15       1.0  0.1460732995245173  0.9844613539126391  0.4180615861762529  1.0000
  C   C16       1.0  0.06310813339686794  0.23756514659923147  0.03866415399761336  1.0000
  N   N3        1.0  0.04080015496284959  0.30620689214527275  0.9352908222021621  1.0000
  H   H7        1.0  0.17031330309245304  0.21808763575155776  0.7685106865722886  1.0000
  H   H8        1.0  0.12913081352295075  0.33640134910568853  0.2833535897458299  1.0000
  H   H9        1.0  0.05555181732248515  0.9489972691689367  0.08009576824647002  1.0000
  H   H10       1.0  0.10474501707742534  0.8025699210868483  0.2966527922503297  1.0000
  H   H11       1.0  0.16272922867148898  0.6882092832643631  0.6551158839105973  1.0000
  C   C17       1.0  0.148941093430809  0.5565635693840878  0.9931238827249942  1.0000
  C   C18       1.0  0.23761140134320857  0.5536987135608133  0.06671504988103982  1.0000
  C   C19       1.0  0.3246470002032613  0.5642372110052951  0.9913419388997444  1.0000
  C   C20       1.0  0.3252228496906349  0.578031173083444  0.8397684908986434  1.0000
  C   C21       1.0  0.23715690853635865  0.5784644494614231  0.7653581074831095  1.0000
  C   C22       1.0  0.14879231306692378  0.5655560546229124  0.839650973015067  1.0000
  N   N4        1.0  0.41387888435287135  0.5902298080486317  0.7590284610721967  1.0000
  C   C23       1.0  0.5091786452356672  0.590399729815086  0.8260173401889834  1.0000
  H   H12       1.0  0.39115948536395917  0.5629104608218927  0.05245770402797101  1.0000
  H   H13       1.0  0.9245876462920779  0.4535404607470288  0.7437169629762863  1.0000
  H   H14       1.0  0.41068403158130884  0.5997854899303265  0.6461904099860978  1.0000
  H   H15       1.0  0.5148327127895864  0.6828918911140685  0.8958515842102299  1.0000
  H   H16       1.0  0.5216323718136749  0.48733480877496377  0.8911637673359243  1.0000
  H   H17       1.0  0.5656722009046298  0.6012998077715637  0.7411698773218314  1.0000
  Zn  Zn1       1.0  0.04310339159670096  0.5610615264538941  0.4163895217054361  1.0000
  Zn  Zn2       1.0  0.2546207549204979  0.5610573700226527  0.41638467793307177  1.0000
  C   C24       1.0  0.1488561584125485  0.5581122890406469  0.6796165224699908  1.0000
  C   C25       1.0  0.14887028584032547  0.5640084281373334  0.15315782577789028  1.0000
  C   C26       1.0  0.1471253589064061  0.8243365117363122  0.4116849761319614  1.0000
  C   C27       1.0  0.1506010245857028  0.2977824739652193  0.4210894421128848  1.0000
  O   O1        1.0  0.22911630071567124  0.5664991231265006  0.20686481593674833  1.0000
  O   O2        1.0  0.2291469353704907  0.5556173472918442  0.6259054367849464  1.0000
  O   O3        1.0  0.227748210542436  0.7705967899252766  0.40954882340941157  1.0000
  O   O4        1.0  0.23051495331812621  0.3515196896607471  0.4232213212831222  1.0000
  O   O5        1.0  0.06720912101856835  0.7705992068187069  0.4095528783494635  1.0000
  O   O6        1.0  0.06860783442688367  0.5556214956646306  0.6259094217221111  1.0000
  O   O7        1.0  0.0685772004723646  0.5665032028463097  0.2068670677495381  1.0000
  O   O8        1.0  0.06997585311991483  0.3515237602157848  0.4232236811191512  1.0000
