data_image0
_chemical_formula_structural       NC10NC5H10C7OC6H10C7OC6OCH11Zn2C4O8
_chemical_formula_sum              "N2 C46 H31 O11 Zn2"
_cell_length_a       19.4436361288709
_cell_length_b       10.299379429549807
_cell_length_c       10.299362532796529
_cell_angle_alpha    85.55652278512687
_cell_angle_beta     89.71996928525026
_cell_angle_gamma    89.41578640036583

_space_group_name_H-M_alt    "P 1"
_space_group_IT_number       1

loop_
  _space_group_symop_operation_xyz
  'x, y, z'

loop_
  _atom_site_type_symbol
  _atom_site_label
  _atom_site_symmetry_multiplicity
  _atom_site_fract_x
  _atom_site_fract_y
  _atom_site_fract_z
  _atom_site_occupancy
  N   N1        1.0  0.6474130089476342  0.4089542482043574  0.5615921997697491  1.0000
  C   C1        1.0  0.5885797284770261  0.418858518073671  0.5759725387571992  1.0000
  C   C2        1.0  0.5152537662998921  0.43121047705537197  0.5939603213160676  1.0000
  C   C3        1.0  0.47305178584711405  0.3991998231144223  0.4992985493054747  1.0000
  C   C4        1.0  0.397147928217669  0.4096393669426346  0.5046228400721139  1.0000
  C   C5        1.0  0.3574304738184003  0.3849036056140475  0.6117037112459618  1.0000
  C   C6        1.0  0.2813072642979186  0.388818807011121  0.5987429786301746  1.0000
  C   C7        1.0  0.2407615315918126  0.44649517841378095  0.6924924516119108  1.0000
  C   C8        1.0  0.1690959574888865  0.4501318036654714  0.6819472870103861  1.0000
  C   C9        1.0  0.1369814266843106  0.39569606018421055  0.5779393175049589  1.0000
  C   C10       1.0  0.0631865756850064  0.3993939125134854  0.5672388495271328  1.0000
  N   N2        1.0  0.0038605206951312972  0.40236679176516055  0.558636382682977  1.0000
  C   C11       1.0  0.17680236130247282  0.3373126072313384  0.48457333256208246  1.0000
  C   C12       1.0  0.248484315965707  0.3336217232254577  0.49486674040467155  1.0000
  C   C13       1.0  0.3855901639448008  0.3444571141047738  0.7428123342690249  1.0000
  C   C14       1.0  0.44426203977078293  0.38758733659775274  0.7900390821283746  1.0000
  C   C15       1.0  0.48845239593766937  0.48544158813624133  0.7156367267450314  1.0000
  H   H1        1.0  0.4951336812269927  0.37006973507400037  0.40900262751267213  1.0000
  H   H2        1.0  0.3724305672442977  0.432123541505929  0.41145680245531663  1.0000
  H   H3        1.0  0.2646468902989118  0.48979864858551947  0.7733248177602302  1.0000
  H   H4        1.0  0.1387644360358239  0.4954581139199117  0.7548514941339282  1.0000
  H   H5        1.0  0.152445181336693  0.2942048475129919  0.4040753773871217  1.0000
  H   H6        1.0  0.2781504128689236  0.2860519871689798  0.42265967139109856  1.0000
  H   H7        1.0  0.3546389290861088  0.28024458147390635  0.8070820905665973  1.0000
  H   H8        1.0  0.45943212466713723  0.35353055583462845  0.8879853533876823  1.0000
  H   H9        1.0  0.45833621548559045  0.5761576901412662  0.6903522497899754  1.0000
  H   H10       1.0  0.5317493187947067  0.5110369392632581  0.778712205761471  1.0000
  C   C16       1.0  0.8256475805896993  0.024268468077184524  0.5602682902619707  1.0000
  C   C17       1.0  0.867356020468886  0.01364466308651836  0.6716667879748811  1.0000
  C   C18       1.0  0.8877479710343249  0.8910592474823628  0.7287094757823189  1.0000
  C   C19       1.0  0.8672722643630644  0.7784240504430848  0.6713912032383698  1.0000
  C   C20       1.0  0.8256325324164827  0.7870424791243512  0.5599715108619612  1.0000
  C   C21       1.0  0.8049123661741031  0.9104372759847391  0.505254712248823  1.0000
  C   C22       1.0  0.9323861894412027  0.8797468386815762  0.845535480151257  1.0000
  O   O1        1.0  0.9760218871174996  0.7881579189208391  0.8575296971030977  1.0000
  C   C23       1.0  0.9275186714333604  0.9722353763494701  0.9487594311919477  1.0000
  C   C24       1.0  0.9863598317205124  0.0006355080195705705  0.01983333890405292  1.0000
  C   C25       1.0  0.982113674203567  0.08650496253987106  0.11835969902126198  1.0000
  C   C26       1.0  0.91911410074301  0.1439720287799886  0.14764001125491188  1.0000
  C   C27       1.0  0.8601678099755508  0.115265687155115  0.0788110486624114  1.0000
  C   C28       1.0  0.8641377562923886  0.029480962158873445  0.9801993130390003  1.0000
  H   H11       1.0  0.747808986798488  0.2517101667239412  0.3488847612347127  1.0000
  H   H12       1.0  0.8846628598273653  0.10092612527019315  0.7133597945100509  1.0000
  H   H13       1.0  0.8833792452766617  0.6838388149939005  0.714694340922322  1.0000
  H   H14       1.0  0.7727586259141251  0.917823329994602  0.41937425812450413  1.0000
  H   H15       1.0  0.8101150303798669  0.462936729200432  0.5165330998159445  1.0000
  H   H16       1.0  0.0356977880540299  0.9572718453640844  0.9983771243180596  1.0000
  H   H17       1.0  0.027713410322273594  0.10844965176082177  0.1720770093770334  1.0000
  H   H18       1.0  0.9159211368554827  0.2103257859956913  0.22400660744665934  1.0000
  H   H19       1.0  0.8112727060281301  0.15906054775349987  0.10226339342945544  1.0000
  H   H20       1.0  0.8175886115199058  0.006869934193651783  0.9296495846164865  1.0000
  C   C29       1.0  0.825586379985574  0.4055359201440605  0.17875351751165325  1.0000
  C   C30       1.0  0.760299350549159  0.3480584940829863  0.18260539516259294  1.0000
  C   C31       1.0  0.7270738846399893  0.32039738186674227  0.06737860471218782  1.0000
  C   C32       1.0  0.7604930357012653  0.34821848182946835  0.947349425542714  1.0000
  C   C33       1.0  0.8256937387190004  0.40577500423305457  0.9414863085125997  1.0000
  C   C34       1.0  0.8578077087641368  0.4343583080648885  0.0577308110758361  1.0000
  C   C35       1.0  0.6584822080248826  0.25836370954298515  0.0737748379084817  1.0000
  O   O2        1.0  0.6444316962873806  0.17941223517547944  0.1698187430547286  1.0000
  C   C36       1.0  0.6058328522547217  0.28588945817440875  0.9712862771656313  1.0000
  C   C37       1.0  0.6005413192655197  0.40936688129640597  0.903428734927866  1.0000
  C   C38       1.0  0.5501980356135846  0.4344782602227362  0.8081411974178125  1.0000
  C   C39       1.0  0.503934180133619  0.3376633545339405  0.7795140375703205  1.0000
  C   C40       1.0  0.5085023944707583  0.2143928645523525  0.8482957184676625  1.0000
  C   C41       1.0  0.5588395170723771  0.18915439307506016  0.9436557615888235  1.0000
  O   O3        1.0  0.4544216541105556  0.36773964687158306  0.6829287110263138  1.0000
  C   C42       1.0  0.4042757321057014  0.2788999871436473  0.644006857272793  1.0000
  H   H21       1.0  0.9489003808246664  0.5135021779657347  0.378792359759007  1.0000
  H   H22       1.0  0.7348341532511427  0.32578687046161187  0.275359492833062  1.0000
  H   H23       1.0  0.7359066996595707  0.3235913478385864  0.8585089923656586  1.0000
  H   H24       1.0  0.9081054757886087  0.4787547892193522  0.053940626951876056  1.0000
  H   H25       1.0  0.8508215019036391  0.42736990975295264  0.6118001584141806  1.0000
  H   H26       1.0  0.6348218172547097  0.4869885570216459  0.9249382178179836  1.0000
  H   H27       1.0  0.47343183399263095  0.13747161759422966  0.8288892958051914  1.0000
  H   H28       1.0  0.5614502168434552  0.0934594069615491  0.9951217847649441  1.0000
  H   H29       1.0  0.3719684984118065  0.3281949179056647  0.5661724062659269  1.0000
  H   H30       1.0  0.3706910773773285  0.24730580430645846  0.7278475630966916  1.0000
  H   H31       1.0  0.42991638352599393  0.19310128206220778  0.605171620481924  1.0000
  Zn  Zn1       1.0  0.7502760635406358  0.40704978134822284  0.5607467282478069  1.0000
  Zn  Zn2       1.0  0.9009974593299181  0.4042606536445708  0.5594925394413184  1.0000
  C   C43       1.0  0.8256720039742932  0.4005558600078005  0.7973154913562474  1.0000
  C   C44       1.0  0.825603164754817  0.41075618328650415  0.3229238894652089  1.0000
  C   C45       1.0  0.8256311045310042  0.6428603900607506  0.5548525075632409  1.0000
  C   C46       1.0  0.8256440128079661  0.1684500938099942  0.5653869435314539  1.0000
  O   O4        1.0  0.8828067821993983  0.41144402577265643  0.37083282739412127  1.0000
  O   O5        1.0  0.8828624384447932  0.39775015423161914  0.7484542796808078  1.0000
  O   O6        1.0  0.882828640760961  0.5934141413002443  0.5526637106929425  1.0000
  O   O7        1.0  0.8828405284383398  0.21578004891603175  0.5666232994323187  1.0000
  O   O8        1.0  0.7684329429983979  0.5955303870299662  0.5536159686779679  1.0000
  O   O9        1.0  0.7684667406385534  0.3998679603381046  0.7494064678137571  1.0000
  O   O10       1.0  0.7684110842200434  0.41356178613013417  0.3717834541539595  1.0000
  O   O11       1.0  0.7684448304700591  0.21789780001471318  0.5675740235629869  1.0000
