data_image0
_chemical_formula_structural       NC5N2C2NH4C7NH5C9H8Zn2C4O8
_chemical_formula_sum              "N5 C27 H17 Zn2 O8"
_cell_length_a       13.87973921873968
_cell_length_b       9.275154477615127
_cell_length_c       9.273585224739813
_cell_angle_alpha    86.3668502262391
_cell_angle_beta     90.10207289864502
_cell_angle_gamma    89.4337086285363

_space_group_name_H-M_alt    "P 1"
_space_group_IT_number       1

loop_
  _space_group_symop_operation_xyz
  'x, y, z'

loop_
  _atom_site_type_symbol
  _atom_site_label
  _atom_site_symmetry_multiplicity
  _atom_site_fract_x
  _atom_site_fract_y
  _atom_site_fract_z
  _atom_site_occupancy
  N   N1        1.0  0.8950332483263185  0.5618447188965667  0.4163627108677139  1.0000
  C   C1        1.0  0.8216985773830267  0.5858018053191947  0.35982652279066385  1.0000
  C   C2        1.0  0.7306195664377032  0.6155588430389463  0.2896024667128152  1.0000
  C   C3        1.0  0.6444646372225094  0.5856102564723453  0.36267259037110433  1.0000
  C   C4        1.0  0.5577401657561288  0.6155587788281005  0.2896025063560881  1.0000
  C   C5        1.0  0.46722145648515884  0.5858016596030025  0.35982641899944307  1.0000
  N   N2        1.0  0.3943378173292447  0.5618446941671076  0.4163626997776937  1.0000
  N   N3        1.0  0.5588356250775697  0.6727822089054176  0.15109095380603965  1.0000
  C   C6        1.0  0.6433572984207853  0.7026975600327323  0.08206346633616746  1.0000
  C   C7        1.0  0.6427853803414629  0.761644230323467  0.9285675580762311  1.0000
  N   N4        1.0  0.7284385240590524  0.6727821623603507  0.1510909643710634  1.0000
  H   H1        1.0  0.6448986662143019  0.5398209204853079  0.4732068299575094  1.0000
  H   H2        1.0  0.7073142819027023  0.8292751612508963  0.90644259520431  1.0000
  H   H3        1.0  0.643298616204363  0.670988621495866  0.8559967579189554  1.0000
  H   H4        1.0  0.577309474336118  0.8292730901950228  0.9064418210751691  1.0000
  C   C8        1.0  0.14747625420029853  0.13843850376226152  0.41469479310326807  1.0000
  C   C9        1.0  0.1208878478705977  0.22033015647117726  0.2876102267623524  1.0000
  C   C10       1.0  0.08647040872135635  0.15307249744016005  0.16725751926777654  1.0000
  C   C11       1.0  0.07807531184713179  0.0030058114788926744  0.1725719640145602  1.0000
  C   C12       1.0  0.10555341068272472  0.9198771376259074  0.2967597388868435  1.0000
  C   C13       1.0  0.14190411430497174  0.9852399423917255  0.41804309588215216  1.0000
  C   C14       1.0  0.05859849853645604  0.23853044562878042  0.03864125249622675  1.0000
  N   N5        1.0  0.036197210859148836  0.3072230636794807  0.9352667187723731  1.0000
  H   H5        1.0  0.16655515034953572  0.21869375708113378  0.7684962743233441  1.0000
  H   H6        1.0  0.12481768501565926  0.33724623127219955  0.2833335324023467  1.0000
  H   H7        1.0  0.051109983535195795  0.9499421778331498  0.08007334954889034  1.0000
  H   H8        1.0  0.1004941231486407  0.8034082569571106  0.2966328913148266  1.0000
  H   H9        1.0  0.1588376003652523  0.688871209796914  0.6551001521118242  1.0000
  C   C15       1.0  0.1442140573861852  0.5575512849263398  0.9931004454860991  1.0000
  C   C16       1.0  0.23040625406992965  0.5254384584754557  0.06893024770480038  1.0000
  C   C17       1.0  0.3178169473692176  0.506302744520484  0.9965942145501305  1.0000
  C   C18       1.0  0.318246620420537  0.5200905047127304  0.8445895056886119  1.0000
  C   C19       1.0  0.2331018973413263  0.5494924364304479  0.7677452652069885  1.0000
  C   C20       1.0  0.14516631025960547  0.5661271307149622  0.8396373951225318  1.0000
  C   C21       1.0  0.40733416275100875  0.4732376961273943  0.0879786844485988  1.0000
  C   C22       1.0  0.48332187235133484  0.37430887552089454  0.027349579813349182  1.0000
  C   C23       1.0  0.5022360073670793  0.5355229275974429  0.03189090440333353  1.0000
  H   H10       1.0  0.229993126800643  0.518480129251927  0.18607224310754833  1.0000
  H   H11       1.0  0.3836778895579622  0.5070627823835929  0.7836036694856126  1.0000
  H   H12       1.0  0.0011751742034753468  0.6685745015483906  0.5513723490999336  1.0000
  H   H13       1.0  0.40106303316140623  0.46393877781318027  0.20770376524514722  1.0000
  H   H14       1.0  0.4706074029793143  0.3372064174710554  0.9176250399611168  1.0000
  H   H15       1.0  0.5237514599572146  0.30680172737687195  0.11060395230571252  1.0000
  H   H16       1.0  0.5009678154523338  0.5961716959540972  0.9249115606414269  1.0000
  H   H17       1.0  0.5537109238488302  0.5622644229581193  0.11780413308379067  1.0000
  Zn  Zn1       1.0  0.03912179721602116  0.5618409323802915  0.41637101866106785  1.0000
  Zn  Zn2       1.0  0.250249345078595  0.5618367894970422  0.4163661610396896  1.0000
  C   C24       1.0  0.1450219563261288  0.5587621572079495  0.6796010767911296  1.0000
  C   C25       1.0  0.14435147966286754  0.5649173852978038  0.15313625152058075  1.0000
  C   C26       1.0  0.14294594303319755  0.8251182384268395  0.4116664115382702  1.0000
  C   C27       1.0  0.14642743239803102  0.2985595725680139  0.4210709867712241  1.0000
  O   O1        1.0  0.22451944533902135  0.5673816534082126  0.2068438616571575  1.0000
  O   O2        1.0  0.22509492100942663  0.5562936528268279  0.6258893606124061  1.0000
  O   O3        1.0  0.22341743562626792  0.7713795721476977  0.40953022869121947  1.0000
  O   O4        1.0  0.2261968584892109  0.3522957433081826  0.42320288554792973  1.0000
  O   O5        1.0  0.06317421175791638  0.7713819785720575  0.4095342941469102  1.0000
  O   O6        1.0  0.06485168565135302  0.5562977907649942  0.6258933560643951  1.0000
  O   O7        1.0  0.06427620842629755  0.5673857235463335  0.20684612396459623  1.0000
  O   O8        1.0  0.06595362176196717  0.3522998042283698  0.4232052558798653  1.0000
