data_image0
_chemical_formula_structural       NC12NC2H8C6H6C12H9Zn2C4O8
_chemical_formula_sum              "N2 C36 H23 Zn2 O8"
_cell_length_a       19.240039667572717
_cell_length_b       10.681118228259551
_cell_length_c       14.99406129037835
_cell_angle_alpha    85.558233291821
_cell_angle_beta     89.99161824904662
_cell_angle_gamma    89.9983060793227

_space_group_name_H-M_alt    "P 1"
_space_group_IT_number       1

loop_
  _space_group_symop_operation_xyz
  'x, y, z'

loop_
  _atom_site_type_symbol
  _atom_site_label
  _atom_site_symmetry_multiplicity
  _atom_site_fract_x
  _atom_site_fract_y
  _atom_site_fract_z
  _atom_site_occupancy
  N   N1        1.0  0.6545668055966588  0.37059097384546025  0.016003492516818322  1.0000
  C   C1        1.0  0.5944184367844648  0.37059105483178345  0.01600343623564704  1.0000
  C   C2        1.0  0.519600399652197  0.37059116793601476  0.016003341922641526  1.0000
  C   C3        1.0  0.4831196085052596  0.3084227467454046  0.08703646648634067  1.0000
  C   C4        1.0  0.41044885538327414  0.30831582078801634  0.08709591031879604  1.0000
  C   C5        1.0  0.3732681647312292  0.3705912572071557  0.01600318552804503  1.0000
  C   C6        1.0  0.4104631524482048  0.43286687392518614  0.9449105943745117  1.0000
  C   C7        1.0  0.48313383588407716  0.43275972087208503  0.9449701223475653  1.0000
  C   C8        1.0  0.2960630743003186  0.3705911813599554  0.016003119983881268  1.0000
  C   C9        1.0  0.2588737793696174  0.26137295016450657  0.04476138475334823  1.0000
  C   C10       1.0  0.1862030964446635  0.2614760375132965  0.04469865532220288  1.0000
  C   C11       1.0  0.1497307873743966  0.37059105679689575  0.01600316182017592  1.0000
  C   C12       1.0  0.074912750201773  0.37059094710318696  0.01600333262481235  1.0000
  N   N2        1.0  0.014764433333999596  0.3705909077267999  0.01600347578921335  1.0000
  C   C13       1.0  0.18620598916368386  0.4797061492029186  0.9873076319890501  1.0000
  C   C14       1.0  0.25887669085062576  0.47980941024864  0.9872447908749924  1.0000
  H   H1        1.0  0.5108289420459645  0.2602905679982459  0.14249712416921  1.0000
  H   H2        1.0  0.3833499162145713  0.26095316889734654  0.1433228446078374  1.0000
  H   H3        1.0  0.3833755608323329  0.48022955190482236  0.8886836251578885  1.0000
  H   H4        1.0  0.5108542737864449  0.4808918029230493  0.8895096541087832  1.0000
  H   H5        1.0  0.2859660247377936  0.17539981879549682  0.06616823337097599  1.0000
  H   H6        1.0  0.15848712953427047  0.17636992198295817  0.06681508573870955  1.0000
  H   H7        1.0  0.1584921326255361  0.564812241071895  0.9651912115667012  1.0000
  H   H8        1.0  0.28597092430191207  0.5657826179690678  0.9658379115055491  1.0000
  C   C15       1.0  0.8346689658865932  0.002840947792542626  0.016007310453604817  1.0000
  C   C16       1.0  0.8651723084709148  0.9283233722340042  0.08685353711446409  1.0000
  C   C17       1.0  0.8651722978493637  0.797441134060689  0.08685349632880406  1.0000
  C   C18       1.0  0.8346689542130292  0.7383313517470229  0.016007349017208905  1.0000
  C   C19       1.0  0.8041908624082196  0.8128375239620914  0.9452196678419997  1.0000
  C   C20       1.0  0.8041908729954835  0.9437297820587347  0.9452197040483428  1.0000
  H   H9        1.0  0.8038216423506994  0.30934142130360515  0.9443629622122467  1.0000
  H   H10       1.0  0.8890823086913126  0.9710956145303977  0.14238612552494312  1.0000
  H   H11       1.0  0.8890822232405611  0.7425915859356208  0.14238610976695254  1.0000
  H   H12       1.0  0.7802777446570467  0.770110825159322  0.8896798285908927  1.0000
  H   H13       1.0  0.7802777264394696  0.9985352641936592  0.8896798213371224  1.0000
  H   H14       1.0  0.8038218982704268  0.44741207042874376  0.944362720895255  1.0000
  C   C21       1.0  0.83469834725401  0.37060204949123976  0.754040632250349  1.0000
  C   C22       1.0  0.8725994257512129  0.27983822654304735  0.7114456358378235  1.0000
  C   C23       1.0  0.8725633174285914  0.2797892667837619  0.6182275167426186  1.0000
  C   C24       1.0  0.8346861169433418  0.37053632088611804  0.5655470119987058  1.0000
  C   C25       1.0  0.7968241081317963  0.4612934086834293  0.6082418864548178  1.0000
  C   C26       1.0  0.7968128144333142  0.4612797212280919  0.7014670318838792  1.0000
  C   C27       1.0  0.8346695759490238  0.37052734197240506  0.4664736458246294  1.0000
  C   C28       1.0  0.8386100270816512  0.4839531320269116  0.4125206607158378  1.0000
  C   C29       1.0  0.8386237635430398  0.4839530552758534  0.31929620866544495  1.0000
  C   C30       1.0  0.8346395707540236  0.3705701915948329  0.27797405684466003  1.0000
  C   C31       1.0  0.8306685215818288  0.2570999969879799  0.33183005492489603  1.0000
  C   C32       1.0  0.8307133614199849  0.25709499480947984  0.42505116259901177  1.0000
  H   H15       1.0  0.9024819696035027  0.20891436973693134  0.7501162861747761  1.0000
  H   H16       1.0  0.9029756803518237  0.2096539596002001  0.5872895690007507  1.0000
  H   H17       1.0  0.7664008180126627  0.5314184621380686  0.5695823868550365  1.0000
  H   H18       1.0  0.7669366912839747  0.5322224117146186  0.7322948481158509  1.0000
  H   H19       1.0  0.8426299661129495  0.5727560369485256  0.4424171995730206  1.0000
  H   H20       1.0  0.8419379648684264  0.5728941197611318  0.2796528437103776  1.0000
  H   H21       1.0  0.838572276141235  0.4853199465100792  0.058850609750169564  1.0000
  H   H22       1.0  0.8273432739200095  0.16816820600439047  0.30197344004996785  1.0000
  H   H23       1.0  0.8267056489299642  0.16829424183276065  0.4647524355242517  1.0000
  Zn  Zn1       1.0  0.7585120688591173  0.37058761106626203  0.01600863157532695  1.0000
  Zn  Zn2       1.0  0.9108191880260578  0.3705840548830961  0.01600561723646166  1.0000
  C   C33       1.0  0.8346491241494417  0.3655873119756814  0.1789393959352168  1.0000
  C   C34       1.0  0.834683795914872  0.37558593403300744  0.8530749404019093  1.0000
  C   C35       1.0  0.834665770890785  0.5993081999884725  0.01245245629697611  1.0000
  C   C36       1.0  0.8346670971964594  0.14186354143531263  0.01956192760191301  1.0000
  O   O1        1.0  0.8924786703213102  0.3772517582462407  0.8863106149809783  1.0000
  O   O2        1.0  0.8924518290727034  0.3639178439812938  0.14570117674350347  1.0000
  O   O3        1.0  0.8924644922544094  0.5526504168175116  0.01126179507839309  1.0000
  O   O4        1.0  0.8924659551750059  0.1885191943737623  0.02074992975933743  1.0000
  O   O5        1.0  0.7768652497352249  0.5526524715781729  0.011264319048787665  1.0000
  O   O6        1.0  0.7768525865556437  0.36392140332943557  0.1457036531484719  1.0000
  O   O7        1.0  0.7768794279708117  0.37725527401969433  0.8863120188418403  1.0000
  O   O8        1.0  0.7768667128141614  0.1885227011860535  0.020751400503286832  1.0000
