data_image0
_chemical_formula_structural       NC8NC6H8C8H6C8NH11Zn2C4O8
_chemical_formula_sum              "N3 C34 H25 Zn2 O8"
_cell_length_a       17.457602349358154
_cell_length_b       9.27514070457351
_cell_length_c       9.275652972338536
_cell_angle_alpha    86.0727604772434
_cell_angle_beta     93.30040864466163
_cell_angle_gamma    92.27341969939751

_space_group_name_H-M_alt    "P 1"
_space_group_IT_number       1

loop_
  _space_group_symop_operation_xyz
  'x, y, z'

loop_
  _atom_site_type_symbol
  _atom_site_label
  _atom_site_symmetry_multiplicity
  _atom_site_fract_x
  _atom_site_fract_y
  _atom_site_fract_z
  _atom_site_occupancy
  N   N1        1.0  0.7251137246343696  0.6031355595636025  0.479679092001156  1.0000
  C   C1        1.0  0.6637064577981329  0.5520490905438649  0.46774476968768725  1.0000
  C   C2        1.0  0.5873133129752501  0.48850394205591297  0.45290908555488246  1.0000
  C   C3        1.0  0.52936939989204  0.533677276281265  0.5361972166493528  1.0000
  C   C4        1.0  0.4544300924086122  0.4724893960909889  0.5220505550473666  1.0000
  C   C5        1.0  0.39292901975910294  0.5201875943223155  0.6102554333770732  1.0000
  C   C6        1.0  0.3182433237861749  0.5402759691978789  0.548400517359624  1.0000
  C   C7        1.0  0.2602987693419695  0.5852458495802155  0.6318079181726384  1.0000
  C   C8        1.0  0.1841686109327275  0.6059902900657119  0.5674951209431309  1.0000
  N   N2        1.0  0.12297284168127022  0.6226617358814783  0.5157877791656927  1.0000
  C   C9        1.0  0.2765515371529028  0.6104012542823969  0.7776356245825626  1.0000
  C   C10       1.0  0.3504566647145435  0.5907478409760898  0.8399221420699334  1.0000
  C   C11       1.0  0.4083927870610219  0.5459814078310437  0.7570235287965925  1.0000
  C   C12       1.0  0.438712714351824  0.3653649453666099  0.42302261149125886  1.0000
  C   C13       1.0  0.4966484252674815  0.3205041569666949  0.34017950069510217  1.0000
  C   C14       1.0  0.57080614239042  0.3818210183115316  0.3549371336345035  1.0000
  H   H1        1.0  0.5424753739963388  0.6176959850042221  0.6104191674205885  1.0000
  H   H2        1.0  0.3053452566938061  0.522875291518947  0.4350744639702453  1.0000
  H   H3        1.0  0.23214580640619775  0.6451470698698465  0.8430604339569818  1.0000
  H   H4        1.0  0.36284887479835254  0.6098756699872878  0.9528387723454393  1.0000
  H   H5        1.0  0.4649950607299265  0.5296809512099834  0.8081673798395039  1.0000
  H   H6        1.0  0.38190217440937624  0.31493310521786566  0.41105008458562375  1.0000
  H   H7        1.0  0.4840576813011688  0.23771632979077584  0.26463064216325716  1.0000
  H   H8        1.0  0.6152089007852949  0.3461131691757655  0.2900770305300533  1.0000
  C   C15       1.0  0.9217107663546309  0.18933667632280837  0.4965137269251491  1.0000
  C   C16       1.0  0.9321374212101498  0.2724114103850561  0.365977528375657  1.0000
  C   C17       1.0  0.9492800369354408  0.2070937973219198  0.2412168872037388  1.0000
  C   C18       1.0  0.9564085161196612  0.05753204905408917  0.2446040049860185  1.0000
  C   C19       1.0  0.9449890233385706  0.9728119593064796  0.3726878087286223  1.0000
  C   C20       1.0  0.9263831068699411  0.036449933674813646  0.4989662819537683  1.0000
  C   C21       1.0  0.9745821026119866  0.9904872073932198  0.11590803503472702  1.0000
  C   C22       1.0  0.9897985983319384  0.9343386805099411  0.008162027044481102  1.0000
  H   H9        1.0  0.9357101679644049  0.2688963911371456  0.8519495201787348  1.0000
  H   H10       1.0  0.9288183383424145  0.3890438796212128  0.36126141319131744  1.0000
  H   H11       1.0  0.9577276874778229  0.2735832682721566  0.14233933644094887  1.0000
  H   H12       1.0  0.9488582734113966  0.8563934327477725  0.3728609163640513  1.0000
  H   H13       1.0  0.9328629727957714  0.7398367099211431  0.7381765918721258  1.0000
  H   H14       1.0  0.003155413674557073  0.8850503674023303  0.913583652433998  1.0000
  C   C23       1.0  0.9223223777257189  0.6099982497715286  0.07430600165463153  1.0000
  C   C24       1.0  0.8730476451367211  0.7019035566354856  0.13620700341556957  1.0000
  C   C25       1.0  0.829881001316583  0.8025230129026502  0.04983534099026455  1.0000
  C   C26       1.0  0.8349444268115123  0.8097966989565434  0.8995263352971143  1.0000
  C   C27       1.0  0.8825291924312691  0.7178726397538753  0.836064032748066  1.0000
  C   C28       1.0  0.9257715377627191  0.6157883707192298  0.9211739658125686  1.0000
  C   C29       1.0  0.7765431379545549  0.8985564374136386  0.11777454657089813  1.0000
  C   C30       1.0  0.6972190438918036  0.8242087115686154  0.13119389489310262  1.0000
  N   N3        1.0  0.6456880071385672  0.9191275594887854  0.19495836708962777  1.0000
  H   H15       1.0  0.977411229355221  0.39846120974544874  0.3753998152922624  1.0000
  H   H16       1.0  0.8693737791505524  0.6977113863085155  0.25269149396180873  1.0000
  H   H17       1.0  0.8013315841096379  0.8858168058184441  0.8310785538053982  1.0000
  H   H18       1.0  0.8839494009096076  0.7241353347601822  0.719187887249946  1.0000
  H   H19       1.0  0.03032403378189086  0.4888485786972747  0.6598664128276551  1.0000
  H   H20       1.0  0.8007251201116036  0.9250804533127236  0.22674423274371014  1.0000
  H   H21       1.0  0.7709714416470484  0.002389164785201456  0.051208732630843905  1.0000
  H   H22       1.0  0.6730838588690696  0.7988455813931896  0.021814076622151287  1.0000
  H   H23       1.0  0.7020685402931666  0.7211701457207758  0.19957932644193144  1.0000
  H   H24       1.0  0.5911972355640224  0.868030027542869  0.1942997649568805  1.0000
  H   H25       1.0  0.6637048031702693  0.9272291654090709  0.30373074191140986  1.0000
  Zn  Zn1       1.0  0.8399272841903364  0.6087665811669247  0.49010759347894356  1.0000
  Zn  Zn2       1.0  0.008159250729183663  0.6170189691363799  0.505371048747725  1.0000
  C   C31       1.0  0.9250861466326089  0.6089477452133931  0.7610810008906712  1.0000
  C   C32       1.0  0.923002235989108  0.616839716083798  0.234397954807396  1.0000
  C   C33       1.0  0.9254725963905311  0.8762880156305756  0.4927563159471881  1.0000
  C   C34       1.0  0.9226157195802887  0.3494977104475272  0.5027227064011048  1.0000
  O   O1        1.0  0.9870735224786102  0.6222612203242344  0.29391866025389163  1.0000
  O   O2        1.0  0.9886990224311748  0.6097885215411624  0.7131444865892784  1.0000
  O   O3        1.0  0.9890102309682463  0.8256691389159144  0.4964703313122895  1.0000
  O   O4        1.0  0.986762256151942  0.4063806097123667  0.5105927022372558  1.0000
  O   O5        1.0  0.8613242213582423  0.8194049377763217  0.48488593477316483  1.0000
  O   O6        1.0  0.8610130220627317  0.6035260528060411  0.7015600181836805  1.0000
  O   O7        1.0  0.8593875148232666  0.6159986894757643  0.2823324580839006  1.0000
  O   O8        1.0  0.8590762488768592  0.4001180692863952  0.4990066081446418  1.0000
