data_image0
_chemical_formula_structural       NC10NC5H10C12NCOCH13C12BrH9Zn2C4O8
_chemical_formula_sum              "N3 C45 H32 O9 Br1 Zn2"
_cell_length_a       19.4436361288709
_cell_length_b       10.299155265289647
_cell_length_c       10.299148005577397
_cell_angle_alpha    85.53595772847069
_cell_angle_beta     89.67790826124899
_cell_angle_gamma    89.39615277754326

_space_group_name_H-M_alt    "P 1"
_space_group_IT_number       1

loop_
  _space_group_symop_operation_xyz
  'x, y, z'

loop_
  _atom_site_type_symbol
  _atom_site_label
  _atom_site_symmetry_multiplicity
  _atom_site_fract_x
  _atom_site_fract_y
  _atom_site_fract_z
  _atom_site_occupancy
  N   N1        1.0  0.6477128268153254  0.40962026458116174  0.561639762121666  1.0000
  C   C1        1.0  0.5888721883940373  0.41951830747298074  0.5760218861093416  1.0000
  C   C2        1.0  0.5155370291602893  0.4318624767177326  0.5940118979765305  1.0000
  C   C3        1.0  0.47337745194964465  0.3998934100843266  0.499341502833506  1.0000
  C   C4        1.0  0.397469639054341  0.4103307701883556  0.5046670926403618  1.0000
  C   C5        1.0  0.3577152961526702  0.3855468694336921  0.611751975541841  1.0000
  C   C6        1.0  0.28159638404818704  0.38946791404443615  0.5987908441661709  1.0000
  C   C7        1.0  0.2410039355753543  0.4471035660734157  0.6925513046265894  1.0000
  C   C8        1.0  0.16934177595569042  0.4507449536179562  0.6820058580920021  1.0000
  C   C9        1.0  0.1372773365878743  0.39635455699739663  0.5779865988410897  1.0000
  C   C10       1.0  0.063485948964536  0.40005724189386926  0.5672858455006542  1.0000
  N   N2        1.0  0.0041626782900309  0.40303400621010654  0.558683149248697  1.0000
  C   C11       1.0  0.1771449672845748  0.33801163989334526  0.48460958250823705  1.0000
  C   C12       1.0  0.24882361462571573  0.33431610475299234  0.49490325225954396  1.0000
  C   C13       1.0  0.38583166718810025  0.34504125381893463  0.7428645531130518  1.0000
  C   C14       1.0  0.4444774513042841  0.38815121687439313  0.79009816224564  1.0000
  C   C15       1.0  0.4886787760649578  0.48604036761395264  0.7157006203845468  1.0000
  H   H1        1.0  0.4954995396754552  0.3708030165775691  0.40903748792571143  1.0000
  H   H2        1.0  0.3727841980411124  0.4328568459204576  0.41149765532400795  1.0000
  H   H3        1.0  0.2648501831943145  0.4903718117483574  0.7733925388597023  1.0000
  H   H4        1.0  0.1389738398067457  0.49603960701264493  0.7549186543137574  1.0000
  H   H5        1.0  0.152826733590731  0.2949389592426215  0.40410279749695466  1.0000
  H   H6        1.0  0.2785262645696959  0.2867776746988431  0.42268742405035753  1.0000
  H   H7        1.0  0.3548672649176696  0.2807989401521327  0.8071320656571558  1.0000
  H   H8        1.0  0.45961587226336303  0.3540501976637492  0.8880470258990462  1.0000
  H   H9        1.0  0.4585558786057736  0.5767693629996006  0.6904231936416039  1.0000
  H   H10       1.0  0.5319466692124435  0.5116080848099083  0.7787822471630899  1.0000
  C   C16       1.0  0.8260178322397844  0.024928155684144748  0.5602795267272851  1.0000
  C   C17       1.0  0.8143020433765057  0.03487584000007061  0.4254453651655703  1.0000
  C   C18       1.0  0.808295308210095  0.9227830997377944  0.35696442788114324  1.0000
  C   C19       1.0  0.8141376647450436  0.7996191786910067  0.425138929753756  1.0000
  C   C20       1.0  0.825864272607771  0.7877160418398185  0.5600545958631324  1.0000
  C   C21       1.0  0.8317352229187651  0.9008892367497503  0.6267942717301207  1.0000
  C   C22       1.0  0.7959022673063663  0.9342802022087092  0.21432615904460525  1.0000
  C   C23       1.0  0.8308033060494535  0.02776500519363734  0.13261536437581745  1.0000
  C   C24       1.0  0.8191462974372861  0.03845355427106  0.9983832016798716  1.0000
  C   C25       1.0  0.7727828714309188  0.9549807578127935  0.9430146593569128  1.0000
  C   C26       1.0  0.7370417141554763  0.8633277792805667  0.024664259810574178  1.0000
  C   C27       1.0  0.7487237824481185  0.8523827563541858  0.1588588774818016  1.0000
  N   N3        1.0  0.7589132742458209  0.9655097429327154  0.8055623731386152  1.0000
  C   C28       1.0  0.8091579643276788  0.0015405096202092403  0.7069234139375311  1.0000
  O   O1        1.0  0.8722484328319646  0.002902656364199397  0.7342597973584333  1.0000
  C   C29       1.0  0.7872500692819003  0.028423989553186608  0.5685589239078692  1.0000
  H   H11       1.0  0.8305455761817507  0.3485776444888329  0.6121366410794822  1.0000
  H   H12       1.0  0.8088730993082897  0.13003318775369754  0.3736783958290486  1.0000
  H   H13       1.0  0.8104507546727879  0.7129003484221014  0.3725386627438463  1.0000
  H   H14       1.0  0.8407741712164649  0.8925014721690919  0.7307942135717853  1.0000
  H   H15       1.0  0.8484095111432546  0.5579585962533301  0.8145666176709649  1.0000
  H   H16       1.0  0.8675204371738193  0.09212569644446322  0.17240496205623135  1.0000
  H   H17       1.0  0.8455468400518279  0.11343510588983417  0.9385810728048183  1.0000
  H   H18       1.0  0.7002587901504058  0.799672553795526  0.9840081323918333  1.0000
  H   H19       1.0  0.720112967788863  0.781058200949629  0.21951232480695967  1.0000
  H   H20       1.0  0.710477528139471  0.9375432894542576  0.774889262772585  1.0000
  H   H21       1.0  0.7376026906566164  0.082788037062548  0.564516880209398  1.0000
  H   H22       1.0  0.7808966853828206  0.9349421706244101  0.5233854919864909  1.0000
  H   H23       1.0  0.826418254921358  0.08780430067931858  0.5128362300416298  1.0000
  C   C30       1.0  0.8260347785488431  0.4063723940432998  0.17877808193262656  1.0000
  C   C31       1.0  0.7613276930731679  0.4683524322962238  0.17385973316019943  1.0000
  C   C32       1.0  0.7284229836768734  0.4997261564812514  0.05422857830951444  1.0000
  C   C33       1.0  0.7610981563635673  0.4682838630048208  0.9385846237239952  1.0000
  C   C34       1.0  0.8258472909349318  0.4062717786178629  0.9415560213275063  1.0000
  C   C35       1.0  0.8579167688534948  0.37569592073227864  0.06207969869007157  1.0000
  C   C36       1.0  0.6599711878429686  0.5652954798252514  0.050070470474575135  1.0000
  C   C37       1.0  0.6455034638247477  0.6668882448994593  0.13023843647818878  1.0000
  C   C38       1.0  0.5810455836749762  0.7284927932969298  0.1261302925021659  1.0000
  C   C39       1.0  0.5303227146597577  0.6894832832794173  0.04219821044361493  1.0000
  C   C40       1.0  0.5440994763808502  0.5886902105343514  0.9621832768975653  1.0000
  C   C41       1.0  0.6084989264105449  0.5268647595194624  0.9658994328865003  1.0000
  Br  Br1       1.0  0.4423137034234182  0.7737863792347064  0.036853442147412485  1.0000
  H   H24       1.0  0.8509379462082791  0.3825846302223546  0.5081412470299074  1.0000
  H   H25       1.0  0.735943394913963  0.4907693679668242  0.2634032845889207  1.0000
  H   H26       1.0  0.7363922450312719  0.49383722334532  0.8459656287908448  1.0000
  H   H27       1.0  0.907827953700031  0.3278930906652893  0.06515729260203362  1.0000
  H   H28       1.0  0.9482497862760466  0.28995896966159607  0.7398136717913841  1.0000
  H   H29       1.0  0.6843052441048487  0.699790947259241  0.19481420635929966  1.0000
  H   H30       1.0  0.5706434325553222  0.8067572447394742  0.18799792373638358  1.0000
  H   H31       1.0  0.5048903930668504  0.5579471832947801  0.8973032461412481  1.0000
  H   H32       1.0  0.6177503241240023  0.44793222748269446  0.9042426449993903  1.0000
  Zn  Zn1       1.0  0.7505765543298474  0.4077161400526817  0.5607940610711526  1.0000
  Zn  Zn2       1.0  0.901298941801276  0.4049275208118567  0.559539535169238  1.0000
  C   C42       1.0  0.8258822461097959  0.40111673255605146  0.7973762244353121  1.0000
  C   C43       1.0  0.8259948955438289  0.4115285365885329  0.3229574850956547  1.0000
  C   C44       1.0  0.8258910113806827  0.6435336150688131  0.5549217107994333  1.0000
  C   C45       1.0  0.8259860791390907  0.1691100945928652  0.5654120688619957  1.0000
  O   O2        1.0  0.8831798721329488  0.4121950524726212  0.3708693255212472  1.0000
  O   O3        1.0  0.8830920744220061  0.3983327394421745  0.7485118543011118  1.0000
  O   O4        1.0  0.8830983810959256  0.5940874519389299  0.5527281251539948  1.0000
  O   O5        1.0  0.8831735140497516  0.21644035023123134  0.5666529577139157  1.0000
  O   O6        1.0  0.7687019306472195  0.596203311586341  0.5536806389477509  1.0000
  O   O7        1.0  0.7686956236729994  0.40045015952552454  0.7494642983856825  1.0000
  O   O8        1.0  0.7687834218225809  0.4143124275015866  0.3718202081359152  1.0000
  O   O9        1.0  0.7687770637145092  0.21855771595786513  0.5676039377043085  1.0000
