data_image0
_chemical_formula_structural       NC12NC2H8C9NC2H9C7N4H6Zn2C4O8
_chemical_formula_sum              "N7 C36 H23 Zn2 O8"
_cell_length_a       17.80743265337812
_cell_length_b       9.273595471060368
_cell_length_c       9.274190830515497
_cell_angle_alpha    85.24944154456382
_cell_angle_beta     91.08905223573421
_cell_angle_gamma    88.84631592348521

_space_group_name_H-M_alt    "P 1"
_space_group_IT_number       1

loop_
  _space_group_symop_operation_xyz
  'x, y, z'

loop_
  _atom_site_type_symbol
  _atom_site_label
  _atom_site_symmetry_multiplicity
  _atom_site_fract_x
  _atom_site_fract_y
  _atom_site_fract_z
  _atom_site_occupancy
  N   N1        1.0  0.7052327492777565  0.5730096889850169  0.4481895234306658  1.0000
  C   C1        1.0  0.6545399073334809  0.6063616407727166  0.3719113555735982  1.0000
  C   C2        1.0  0.5914729718427199  0.6478490200877556  0.2770309191735181  1.0000
  C   C3        1.0  0.6034364007029618  0.7088100445331385  0.13644072859612466  1.0000
  C   C4        1.0  0.5422751946474729  0.7486092165211089  0.044219931910540744  1.0000
  C   C5        1.0  0.4689975977236965  0.7277449986130007  0.09185658785140882  1.0000
  C   C6        1.0  0.4560560402569666  0.6666484693923072  0.2329666906829948  1.0000
  C   C7        1.0  0.5180746157637682  0.6268530367349674  0.32516914836568267  1.0000
  C   C8        1.0  0.3782042591254217  0.6445250990820646  0.2837793815795351  1.0000
  C   C9        1.0  0.35869827013593614  0.673757552722289  0.424959537572671  1.0000
  C   C10       1.0  0.2853903021395205  0.6529392026462957  0.47264131763593986  1.0000
  C   C11       1.0  0.23064317736444356  0.6025996253638883  0.380073516571384  1.0000
  C   C12       1.0  0.15519572390532768  0.5811566295589936  0.4293108586649512  1.0000
  N   N2        1.0  0.09454131421156829  0.5639179035925763  0.4688942944653675  1.0000
  C   C13       1.0  0.24945628786982874  0.5731754436310472  0.23949632925052208  1.0000
  C   C14       1.0  0.3227124382441042  0.594012156201325  0.19153029176305475  1.0000
  H   H1        1.0  0.6599655297480239  0.7255359022079557  0.09820436783175279  1.0000
  H   H2        1.0  0.5516533943166928  0.7961077806645839  0.9356531008400872  1.0000
  H   H3        1.0  0.422470786584255  0.7611584736283479  0.019031319594709165  1.0000
  H   H4        1.0  0.5094035712906985  0.5778167556288226  0.43359570913416423  1.0000
  H   H5        1.0  0.3998656099489106  0.7145553227515196  0.4978624414636927  1.0000
  H   H6        1.0  0.2713862858599788  0.6764598923263064  0.5815565861363092  1.0000
  H   H7        1.0  0.2075627290876747  0.5337821110603318  0.1670540442474273  1.0000
  H   H8        1.0  0.3361958433511084  0.5687836360315199  0.08294977977728267  1.0000
  C   C15       1.0  0.9021526784553193  0.14487791272791517  0.4580034561176223  1.0000
  C   C16       1.0  0.894336466371205  0.22963414822354644  0.3256827116237878  1.0000
  C   C17       1.0  0.8798912935567955  0.16615058649680758  0.19714880374761057  1.0000
  C   C18       1.0  0.8728995370906238  0.015842554460163465  0.19735807193303323  1.0000
  C   C19       1.0  0.8818740521767084  0.9298984880121577  0.328778389941909  1.0000
  C   C20       1.0  0.8976285609978198  0.9920383254261712  0.4590931487335452  1.0000
  C   C21       1.0  0.8570113469313441  0.9486212364134847  0.060388933336398054  1.0000
  C   C22       1.0  0.8938692929748665  0.8192726528603467  0.03059983005928601  1.0000
  C   C23       1.0  0.8780663441960681  0.7580776299307785  0.901043511719628  1.0000
  N   N3        1.0  0.8272709078309547  0.8232324318348314  0.8042472183796727  1.0000
  C   C24       1.0  0.7907003153644913  0.9483051796227863  0.8297799510656592  1.0000
  C   C25       1.0  0.8048449656838061  0.01328184663296494  0.9578868315954643  1.0000
  H   H9        1.0  0.9536314899677112  0.40586064033697594  0.6772142078236472  1.0000
  H   H10       1.0  0.8978108894946583  0.34637905851787887  0.321877381799644  1.0000
  H   H11       1.0  0.8744456197672142  0.2349590333164777  0.09715431906408666  1.0000
  H   H12       1.0  0.877238176350239  0.8135047897496902  0.3295633194516303  1.0000
  H   H13       1.0  0.9785162321774749  0.8591280950450674  0.7817026246844953  1.0000
  H   H14       1.0  0.935215958270231  0.7670280813021375  0.10570506153577908  1.0000
  H   H15       1.0  0.9064069081297343  0.6587783910018875  0.8772856629472691  1.0000
  H   H16       1.0  0.7504338429506269  0.9972847940860301  0.7506775282158831  1.0000
  H   H17       1.0  0.7745953480788396  0.11200445201630663  0.9774021528493493  1.0000
  C   C26       1.0  0.9015715678469064  0.5713623412139714  0.03485820215783896  1.0000
  C   C27       1.0  0.9505604515799294  0.4756529342053472  0.11781413991027034  1.0000
  C   C28       1.0  0.9936041904296988  0.37264077366546855  0.05304219446674563  1.0000
  C   C29       1.0  0.9888292113071657  0.3621981979124202  0.9032621418710048  1.0000
  C   C30       1.0  0.9410841051075254  0.4593703394545139  0.818900262047314  1.0000
  C   C31       1.0  0.8982096697872973  0.5655539753396512  0.8822384071502096  1.0000
  C   C32       1.0  0.03456876918238394  0.25081936161793705  0.8367921450245845  1.0000
  N   N4        1.0  0.08453720728526903  0.16016095972886737  0.9104032634831105  1.0000
  N   N5        1.0  0.11264781727746742  0.07878572462768951  0.8126972110854046  1.0000
  N   N6        1.0  0.08149658122505987  0.11700477373503149  0.6840906848514212  1.0000
  N   N7        1.0  0.032617099943537335  0.22406745316661203  0.6963395679118376  1.0000
  H   H18       1.0  0.845588508502197  0.786407109029642  0.29635659196442954  1.0000
  H   H19       1.0  0.9543061507378233  0.47802501580864054  0.23432330670977364  1.0000
  H   H20       1.0  0.0301239622920817  0.299774622958342  0.12098653910838642  1.0000
  H   H21       1.0  0.938431714793021  0.45578029128778036  0.7026991187564997  1.0000
  H   H22       1.0  0.7938089537358364  0.7011106920279087  0.5871826842293117  1.0000
  H   H23       1.0  0.9999548247373233  0.2738813681909064  0.6111201911738484  1.0000
  Zn  Zn1       1.0  0.817578782494835  0.5703820879977701  0.45417278592061283  1.0000
  Zn  Zn2       1.0  0.9821952946449671  0.5665336577754518  0.4629227854214968  1.0000
  C   C33       1.0  0.8988741719378346  0.5609054843046621  0.7220579298322112  1.0000
  C   C34       1.0  0.9009016925279207  0.5760120384849478  0.19503788101234099  1.0000
  C   C35       1.0  0.8985026785949901  0.8319464981386262  0.4531375089543978  1.0000
  C   C36       1.0  0.9012731386483567  0.3049692924116607  0.4639583735973589  1.0000
  O   O1        1.0  0.9631480183124413  0.576105767222733  0.25211621561030895  1.0000
  O   O2        1.0  0.9615679773674211  0.5578898007456576  0.6716202256620831  1.0000
  O   O3        1.0  0.9612671437024871  0.7767588566022873  0.4544650403122574  1.0000
  O   O4        1.0  0.963448796178998  0.35723672373947435  0.4692712898071158  1.0000
  O   O5        1.0  0.836325224785289  0.7796790233486507  0.44782427854146145  1.0000
  O   O6        1.0  0.8366260494971165  0.560811701046247  0.6649793891905499  1.0000
  O   O7        1.0  0.8382060976426214  0.5790276291468441  0.24547364440465524  1.0000
  O   O8        1.0  0.8385068751320406  0.360158574605117  0.46262882676094885  1.0000
