data_image0
_chemical_formula_structural       NC5NC4H6C6NCH9C6SCH8Zn2C4O8
_chemical_formula_sum              "N3 C27 H23 S1 Zn2 O8"
_cell_length_a       13.854160002989762
_cell_length_b       9.273386996610926
_cell_length_c       10.302812801239591
_cell_angle_alpha    85.46621381537472
_cell_angle_beta     89.99986876837025
_cell_angle_gamma    89.39858485477477

_space_group_name_H-M_alt    "P 1"
_space_group_IT_number       1

loop_
  _space_group_symop_operation_xyz
  'x, y, z'

loop_
  _atom_site_type_symbol
  _atom_site_label
  _atom_site_symmetry_multiplicity
  _atom_site_fract_x
  _atom_site_fract_y
  _atom_site_fract_z
  _atom_site_occupancy
  N   N1        1.0  0.8978182386867092  0.57887421766661  0.5656019892773914  1.0000
  C   C1        1.0  0.8253084518548838  0.6040945108276659  0.5123872088433405  1.0000
  C   C2        1.0  0.7351052540019886  0.6354692395742061  0.446185984823312  1.0000
  C   C3        1.0  0.6477411458942026  0.6059761828434254  0.510823905142809  1.0000
  C   C4        1.0  0.5599628415300629  0.6354692539083832  0.4461859639327627  1.0000
  C   C5        1.0  0.47020031152575126  0.6040943634598781  0.5123872915764056  1.0000
  N   N2        1.0  0.39804466853515263  0.5788741541488969  0.565601989293256  1.0000
  C   C6        1.0  0.5595770177821049  0.6950619697637959  0.31692631235531254  1.0000
  C   C7        1.0  0.6468932818069862  0.7267058549069921  0.2521920539747515  1.0000
  C   C8        1.0  0.646473133129107  0.786539816554736  0.11258499248665797  1.0000
  C   C9        1.0  0.7346541068272252  0.6950619684382706  0.3169262310522205  1.0000
  H   H1        1.0  0.6480658528288903  0.5597412480128694  0.6108686665224633  1.0000
  H   H2        1.0  0.491551014359823  0.7168557114463696  0.26677578382322714  1.0000
  H   H3        1.0  0.7108483913057957  0.8547228113783204  0.09106181353928644  1.0000
  H   H4        1.0  0.5811399136338319  0.8547228132556224  0.09106187215225958  1.0000
  H   H5        1.0  0.6471095069286117  0.6959860179839906  0.04827681280718954  1.0000
  H   H6        1.0  0.8023739726513933  0.716855823966976  0.266775706721444  1.0000
  C   C10       1.0  0.1509042497331749  0.15522019246838847  0.5662399796231534  1.0000
  C   C11       1.0  0.1678523295424665  0.23869579688513884  0.4488526315625123  1.0000
  C   C12       1.0  0.17571224255360254  0.1741929140537497  0.3314580265174836  1.0000
  C   C13       1.0  0.16674297462048138  0.023892251003565523  0.3284492621883754  1.0000
  C   C14       1.0  0.15149588231062622  0.9394537319797588  0.4454288330118624  1.0000
  C   C15       1.0  0.1449679584057464  0.0025170499064408633  0.5649753006002572  1.0000
  N   N3        1.0  0.17378692552732344  0.9543529437930864  0.20863092933754232  1.0000
  C   C16       1.0  0.18986646852441158  0.03224944655138761  0.08193854778494836  1.0000
  H   H7        1.0  0.17062406734749141  0.4173648956229884  0.7793873120333397  1.0000
  H   H8        1.0  0.17277546709058517  0.35534168961173984  0.4472598280080062  1.0000
  H   H9        1.0  0.18788471268742518  0.2427950364142115  0.24327083053181806  1.0000
  H   H10       1.0  0.14693994808632183  0.8230526632120635  0.44338073465691624  1.0000
  H   H11       1.0  0.18050698225062245  0.871155073478943  0.8811875396776129  1.0000
  H   H12       1.0  0.1669629010538285  0.8419858220388255  0.21132311487473698  1.0000
  H   H13       1.0  0.13002931859720945  0.11082301852546791  0.05938128284807087  1.0000
  H   H14       1.0  0.25972976580523244  0.08980118458335881  0.08214805107708689  1.0000
  H   H15       1.0  0.19229971501589485  0.9548128571335512  0.005079144706478407  1.0000
  C   C17       1.0  0.14793614289665102  0.5788686384439496  0.1843591669718456  1.0000
  C   C18       1.0  0.11437643476686583  0.722738709117833  0.17294713924094052  1.0000
  C   C19       1.0  0.09743083140481333  0.7941111281016567  0.050293606901102184  1.0000
  C   C20       1.0  0.1143763488106011  0.7227385576750737  0.9377959697777374  1.0000
  C   C21       1.0  0.14793608035691608  0.5788686287216344  0.9468560706158928  1.0000
  C   C22       1.0  0.16452229128280882  0.5076240514235433  0.07067656394396726  1.0000
  S   S1        1.0  0.054750829281502655  0.978033235891436  0.037207749097896356  1.0000
  C   C23       1.0  0.9281399374370896  0.9276280529682028  0.040795114518169744  1.0000
  H   H16       1.0  0.16054743692401496  0.5246324876591428  0.5159742001347157  1.0000
  H   H17       1.0  0.10104519781373278  0.7798843116955021  0.25898089193326856  1.0000
  H   H18       1.0  0.10104500602274435  0.7798841038762057  0.8436305792613593  1.0000
  H   H19       1.0  0.19039094560788644  0.3966411249467452  0.07857276213341269  1.0000
  H   H20       1.0  0.16054564494526713  0.5246317386619819  0.622958615738539  1.0000
  H   H21       1.0  0.9114738127569189  0.8634484051431146  0.9572445882361196  1.0000
  H   H22       1.0  0.9114742159415576  0.8634498631458409  0.13347927809336713  1.0000
  H   H23       1.0  0.8827695748448859  0.027206080304683855  0.03370997338983582  1.0000
  Zn  Zn1       1.0  0.04217281346911018  0.5788703368486834  0.5656095003983764  1.0000
  Zn  Zn2       1.0  0.2536901776388465  0.5788662293054538  0.5656051581925781  1.0000
  C   C24       1.0  0.14797420782753035  0.5731213037762914  0.8027364208461338  1.0000
  C   C25       1.0  0.14789108029016534  0.5846170826379091  0.3284783624065439  1.0000
  C   C26       1.0  0.14608509215287907  0.8423599223193093  0.5600407938151089  1.0000
  C   C27       1.0  0.14978013593247322  0.31537673079193435  0.5711740612430025  1.0000
  O   O1        1.0  0.22814573833435606  0.586538460288619  0.3768444424896235  1.0000
  O   O2        1.0  0.22825634263467218  0.571195720244059  0.754366673025879  1.0000
  O   O3        1.0  0.22672977576170608  0.78860930972559  0.5583882348696438  1.0000
  O   O4        1.0  0.2296722329584755  0.36912488112878683  0.5728227832880243  1.0000
  O   O5        1.0  0.06619068596897493  0.7886116850283229  0.5583918752975805  1.0000
  O   O6        1.0  0.06771724069377781  0.5711998288527204  0.7543702416430332  1.0000
  O   O7        1.0  0.06760663681000056  0.5865425186235003  0.3768464502742961  1.0000
  O   O8        1.0  0.0691331315024599  0.3691289291449414  0.5728248884251823  1.0000
