data_image0
_chemical_formula_structural       NC8NC6H8C6NO2H5C9H10Zn2C4O8
_chemical_formula_sum              "N3 C33 H23 O10 Zn2"
_cell_length_a       17.457602349358154
_cell_length_b       9.273392599741051
_cell_length_c       9.272679976505533
_cell_angle_alpha    86.14793757912345
_cell_angle_beta     93.25957942520282
_cell_angle_gamma    91.0881455882028

_space_group_name_H-M_alt    "P 1"
_space_group_IT_number       1

loop_
  _space_group_symop_operation_xyz
  'x, y, z'

loop_
  _atom_site_type_symbol
  _atom_site_label
  _atom_site_symmetry_multiplicity
  _atom_site_fract_x
  _atom_site_fract_y
  _atom_site_fract_z
  _atom_site_occupancy
  N   N1        1.0  0.7079927328244121  0.600486381508067  0.4774054123847469  1.0000
  C   C1        1.0  0.6471532773882405  0.5494005851784003  0.46553226376744217  1.0000
  C   C2        1.0  0.5714664152478288  0.48585628607221293  0.4507726737288175  1.0000
  C   C3        1.0  0.5129936431268188  0.531129906841233  0.534020300467158  1.0000
  C   C4        1.0  0.438734367050477  0.46994303686686045  0.5199469360842683  1.0000
  C   C5        1.0  0.37667477969134006  0.5177474896857938  0.6081090950179924  1.0000
  C   C6        1.0  0.3017903003445686  0.5377433004150817  0.5462176914159709  1.0000
  C   C7        1.0  0.2433190868026747  0.5828137013644663  0.6295848626613563  1.0000
  C   C8        1.0  0.166983814079888  0.6034619474901923  0.5652343044159343  1.0000
  N   N2        1.0  0.1056232109973863  0.6200560556335375  0.5134966116015529  1.0000
  C   C9        1.0  0.2592407500356194  0.6081628826046033  0.775408592780525  1.0000
  C   C10       1.0  0.33333970504450894  0.5886024854027341  0.8377311386558548  1.0000
  C   C11       1.0  0.3918000554628107  0.5437361687648737  0.7548725975056312  1.0000
  C   C12       1.0  0.42423488333121173  0.3627173575114966  0.42103344371646845  1.0000
  C   C13       1.0  0.48269584250955594  0.3177567944134134  0.3382305325166952  1.0000
  C   C14       1.0  0.5561718808568558  0.37907344945054483  0.3529148223025087  1.0000
  H   H1        1.0  0.5251456798400279  0.6152232298136566  0.6081518421968812  1.0000
  H   H2        1.0  0.2891258506869414  0.5201913102338345  0.4328920620116381  1.0000
  H   H3        1.0  0.2144277372069529  0.6429877248042468  0.8408025020832721  1.0000
  H   H4        1.0  0.3454794000954448  0.6078804767026567  0.9506451248926917  1.0000
  H   H5        1.0  0.44856327881735  0.5275121431833008  0.8060462338783396  1.0000
  H   H6        1.0  0.3679849491243374  0.312285916338062  0.4091212709110019  1.0000
  H   H7        1.0  0.4710459492455805  0.23489209758356333  0.26277030748450225  1.0000
  H   H8        1.0  0.6009923235009931  0.3432876813083605  0.2880869187478443  1.0000
  C   C15       1.0  0.9091472551334543  0.18685037109514946  0.49475675731656166  1.0000
  C   C16       1.0  0.8988985233027587  0.26862104840584156  0.3621308489033488  1.0000
  C   C17       1.0  0.8818961213333817  0.20165605995223368  0.23367059605084028  1.0000
  C   C18       1.0  0.8745819973675897  0.050890126252706176  0.2342451946420494  1.0000
  C   C19       1.0  0.8860238954694168  0.9680016248418645  0.3659740711838759  1.0000
  C   C20       1.0  0.9044761293807864  0.03368136802186039  0.4961583550341533  1.0000
  N   N3        1.0  0.8563703467472815  0.9824138099371212  0.1014478190663286  1.0000
  O   O1        1.0  0.845838365784894  0.06395239886123337  0.9725001022613228  1.0000
  O   O2        1.0  0.8496146862450811  0.84814994728218  0.10106479596530038  1.0000
  H   H9        1.0  0.8948067262031575  0.265503502204091  0.8472936500802088  1.0000
  H   H10       1.0  0.9022372013617481  0.38559308671801173  0.358174427251684  1.0000
  H   H11       1.0  0.8736967007397621  0.26836365058847944  0.13384034282635016  1.0000
  H   H12       1.0  0.8823216807589694  0.851225617745593  0.36666426691257015  1.0000
  H   H13       1.0  0.897438006634187  0.7371955477096687  0.7346580126900542  1.0000
  C   C21       1.0  0.9052748980930142  0.6067845182233236  0.07194807158916716  1.0000
  C   C22       1.0  0.9579074120512949  0.5201596216274278  0.15679923586756073  1.0000
  C   C23       1.0  0.014253767840662011  0.4454050147301811  0.09314544706709649  1.0000
  C   C24       1.0  0.019872587551210914  0.4548194353254409  0.9428128865739708  1.0000
  C   C25       1.0  0.9663299302594723  0.5394420971551057  0.856490617091902  1.0000
  C   C26       1.0  0.908348473396407  0.6137472755361353  0.9189671219483948  1.0000
  C   C27       1.0  0.08342526017889898  0.37106568810672536  0.8822457924504623  1.0000
  C   C28       1.0  0.06552024440114534  0.3041797245721831  0.7383785059475798  1.0000
  C   C29       1.0  0.11877329606333209  0.43594232759001295  0.7456719172030786  1.0000
  H   H14       1.0  0.7892141649314375  0.6985877837585178  0.3345748030630544  1.0000
  H   H15       1.0  0.956732929058152  0.5128266006521598  0.27375155516593663  1.0000
  H   H16       1.0  0.05434005934530231  0.3807248698602317  0.16227265421991843  1.0000
  H   H17       1.0  0.9680117820751826  0.545759854946889  0.7398778058652411  1.0000
  H   H18       1.0  0.7334139086215079  0.7408212030020287  0.7886787811216225  1.0000
  H   H19       1.0  0.12388283046236515  0.3081758627697748  0.9579643886109785  1.0000
  H   H20       1.0  0.008394921753333234  0.3259806038766453  0.6835649315809844  1.0000
  H   H21       1.0  0.09589386017598561  0.2018431946467003  0.7266176059463034  1.0000
  H   H22       1.0  0.09403352971005696  0.5377175385237658  0.6951752325521778  1.0000
  H   H23       1.0  0.1802800029791439  0.4106062620546995  0.7381706654885645  1.0000
  Zn  Zn1       1.0  0.8227403511116342  0.6061299684558146  0.48782887350183546  1.0000
  Zn  Zn2       1.0  0.9908756865156774  0.6144007438302981  0.5030849383202638  1.0000
  C   C30       1.0  0.9077974828615396  0.6066869028912847  0.7588526802445303  1.0000
  C   C31       1.0  0.9058203812767566  0.6138457201791446  0.23206144273580145  1.0000
  C   C32       1.0  0.9053342664630318  0.8735648743701737  0.4901460705364271  1.0000
  C   C33       1.0  0.9082835501371022  0.34696601415868633  0.5007681212601582  1.0000
  O   O3        1.0  0.9698099686557959  0.6193479497296971  0.2915865394256034  1.0000
  O   O4        1.0  0.9714187291609073  0.6074609093116698  0.7109061667948606  1.0000
  O   O5        1.0  0.9694287960671678  0.8229682164291796  0.4939236027455373  1.0000
  O   O6        1.0  0.9717998439270509  0.40384064921565654  0.5085689901517423  1.0000
  O   O7        1.0  0.8418161363238862  0.8166900602495535  0.48234481645662775  1.0000
  O   O8        1.0  0.843806059579414  0.6011844848527101  0.6993273064759675  1.0000
  O   O9        1.0  0.8421972931105519  0.613071460773656  0.28000594509549837  1.0000
  O   O10       1.0  0.8441871688279166  0.3975641508352432  0.4969885039310922  1.0000
