data_image0
_chemical_formula_structural       NC6NC3H6C9H8C6NCH7Zn2C4O8
_chemical_formula_sum              "N3 C29 H21 Zn2 O8"
_cell_length_a       14.934028789175542
_cell_length_b       9.275152443626249
_cell_length_c       9.273390368590327
_cell_angle_alpha    85.97038560770253
_cell_angle_beta     89.96634751040418
_cell_angle_gamma    90.53595971611534

_space_group_name_H-M_alt    "P 1"
_space_group_IT_number       1

loop_
  _space_group_symop_operation_xyz
  'x, y, z'

loop_
  _atom_site_type_symbol
  _atom_site_label
  _atom_site_symmetry_multiplicity
  _atom_site_fract_x
  _atom_site_fract_y
  _atom_site_fract_z
  _atom_site_occupancy
  N   N1        1.0  0.85304939470953  0.560974271477527  0.4042801653613224  1.0000
  C   C1        1.0  0.7755565154976581  0.5598685896872633  0.40360523893546674  1.0000
  C   C2        1.0  0.6791514370331032  0.5584880398426522  0.4027627199130943  1.0000
  C   C3        1.0  0.6320540861789781  0.6660050471270835  0.468271677806676  1.0000
  C   C4        1.0  0.5385355028433516  0.6648965724855642  0.46759616721679337  1.0000
  C   C5        1.0  0.4912020607858618  0.5563259615928946  0.4014453302628907  1.0000
  C   C6        1.0  0.394570705943686  0.5586554674354305  0.40286595757675814  1.0000
  N   N2        1.0  0.31710202489785594  0.5605042275054783  0.4039937327463341  1.0000
  C   C7        1.0  0.5382846378702579  0.4473214741345488  0.33502951545128545  1.0000
  C   C8        1.0  0.4892380804710173  0.32928266496441294  0.2631110357403985  1.0000
  C   C9        1.0  0.6324412874420198  0.44956103960305255  0.3363941106848698  1.0000
  H   H1        1.0  0.6676224873604836  0.7507184818797275  0.519887249323991  1.0000
  H   H2        1.0  0.5030199223090968  0.7489575894332343  0.5188140843218481  1.0000
  H   H3        1.0  0.44679650298958695  0.3774253772328593  0.17435021277074725  1.0000
  H   H4        1.0  0.4460999119425042  0.2672701539781057  0.34342776361924443  1.0000
  H   H5        1.0  0.5362238857217938  0.2528271504633972  0.21652109708400838  1.0000
  H   H6        1.0  0.6694568466279066  0.36661828779266425  0.2858578298197034  1.0000
  C   C10       1.0  0.08243849591628732  0.13712525673596265  0.405609988882895  1.0000
  C   C11       1.0  0.0501405308951941  0.21859594513038447  0.28318736698364955  1.0000
  C   C12       1.0  0.026166039235630642  0.1518530904424369  0.15846717701354152  1.0000
  C   C13       1.0  0.03411308435834323  0.002452484970555829  0.1537001253368251  1.0000
  C   C14       1.0  0.06466008710850746  0.9192844246406008  0.27508902981842476  1.0000
  C   C15       1.0  0.08772146469580547  0.984342277364534  0.4026763520483816  1.0000
  C   C16       1.0  0.009857452232193477  0.9339546028819989  0.02454417202180781  1.0000
  C   C17       1.0  0.9895490286171111  0.8765701956174151  0.9163963101866144  1.0000
  C   C18       1.0  0.9649087708970668  0.8069323655761529  0.7851778465668007  1.0000
  H   H7        1.0  0.21109460836995952  0.22170577333037045  0.6933680555610431  1.0000
  H   H8        1.0  0.04542370927553763  0.3351133903898391  0.28273692495959235  1.0000
  H   H9        1.0  0.002228451943678156  0.2171249637311874  0.06513830780538554  1.0000
  H   H10       1.0  0.06843026545449193  0.8029278412265365  0.27106610574371093  1.0000
  H   H11       1.0  0.1714712145102819  0.6910505642390665  0.5994958298325459  1.0000
  H   H12       1.0  0.9812777139631109  0.6903370682913574  0.7986322615546931  1.0000
  H   H13       1.0  0.8920294986653756  0.8193790376441347  0.7654920204506301  1.0000
  H   H14       1.0  0.002726305084587377  0.8582510120738096  0.6918634848709919  1.0000
  C   C19       1.0  0.08509342850340967  0.5562352809925666  0.9809129674158954  1.0000
  C   C20       1.0  0.16731615446799175  0.5532857314413939  0.05447461508052931  1.0000
  C   C21       1.0  0.24818803880228893  0.5637475396428344  0.9789734403865006  1.0000
  C   C22       1.0  0.24889272721679734  0.5775476177635086  0.8272972830286043  1.0000
  C   C23       1.0  0.16720061114917895  0.5780638465284966  0.7529341202950302  1.0000
  C   C24       1.0  0.08506654644949974  0.565232245872388  0.8273734001843929  1.0000
  N   N3        1.0  0.33128838373069125  0.5896688421851397  0.7464159398114268  1.0000
  C   C25       1.0  0.41969866236576414  0.5897493060617061  0.813348978375305  1.0000
  H   H15       1.0  0.9433288763679307  0.4870852924712681  0.2670801374455176  1.0000
  H   H16       1.0  0.30987428999297917  0.5623576566510109  0.04006096018360706  1.0000
  H   H17       1.0  0.8756907781698549  0.453373246140859  0.7323991810297814  1.0000
  H   H18       1.0  0.32844266598019134  0.5992321374809704  0.6335087956510446  1.0000
  H   H19       1.0  0.4260869797967406  0.6822807925562  0.8824935022296404  1.0000
  H   H20       1.0  0.4299780076044635  0.48662294394980576  0.8792532267413633  1.0000
  H   H21       1.0  0.47224161381293295  0.6006015653759535  0.7283882599408034  1.0000
  Zn  Zn1       1.0  0.9869649488378739  0.5608348497454172  0.4042058369033117  1.0000
  Zn  Zn2       1.0  0.18318642677641958  0.5606319579382832  0.40407988529850236  1.0000
  C   C26       1.0  0.08503377636997175  0.5577848278765092  0.6673941611200707  1.0000
  C   C27       1.0  0.08511975332200533  0.5636837992284496  0.1408916948618253  1.0000
  C   C28       1.0  0.08671843889562081  0.824139158925401  0.39748767491514153  1.0000
  C   C29       1.0  0.08343501302995168  0.2973277359245716  0.4107982639496339  1.0000
  O   O1        1.0  0.15959357718924094  0.5661003002592526  0.194534241030331  1.0000
  O   O2        1.0  0.15948750722938498  0.5552132440003115  0.6136556094844561  1.0000
  O   O3        1.0  0.1608468896524824  0.7702977517990346  0.395704207691423  1.0000
  O   O4        1.0  0.15823412787682778  0.3510158017004934  0.41248553476752403  1.0000
  O   O5        1.0  0.01191718077671577  0.7704510060539336  0.3958001874696848  1.0000
  O   O6        1.0  0.010557809159273289  0.5553682305809233  0.6137515064152341  1.0000
  O   O7        1.0  0.010663878920295298  0.5662552181530971  0.19462840534587844  1.0000
  O   O8        1.0  0.00930442953644838  0.3511707104251005  0.412579807174307  1.0000
