data_image0
_chemical_formula_structural       NC6NC2H4C6NH5C6BrH4Zn2C4O8
_chemical_formula_sum              "N3 C24 H13 Br1 Zn2 O8"
_cell_length_a       14.927258858638513
_cell_length_b       9.274771166103582
_cell_length_c       9.27656775626242
_cell_angle_alpha    86.01325923358289
_cell_angle_beta     90.18620734994761
_cell_angle_gamma    90.59705168739299

_space_group_name_H-M_alt    "P 1"
_space_group_IT_number       1

loop_
  _space_group_symop_operation_xyz
  'x, y, z'

loop_
  _atom_site_type_symbol
  _atom_site_label
  _atom_site_symmetry_multiplicity
  _atom_site_fract_x
  _atom_site_fract_y
  _atom_site_fract_z
  _atom_site_occupancy
  N   N1        1.0  0.8504727730986442  0.5630611878481635  0.4077807082914804  1.0000
  C   C1        1.0  0.7729462817684964  0.563061159435089  0.407780718927223  1.0000
  C   C2        1.0  0.676513774865358  0.5630612740736709  0.40778066888068115  1.0000
  C   C3        1.0  0.6290442901637339  0.5381240489813384  0.2811989588807928  1.0000
  C   C4        1.0  0.5353329787082456  0.5381240733167134  0.28119882543993246  1.0000
  C   C5        1.0  0.48869770976327254  0.5630610966619232  0.4077806878255539  1.0000
  C   C6        1.0  0.3922651358686046  0.5630612113034124  0.40778063777308465  1.0000
  N   N2        1.0  0.3147386445384574  0.5630611828903378  0.40778064840882794  1.0000
  C   C7        1.0  0.5361671274733678  0.5879983217571629  0.5343623978195156  1.0000
  C   C8        1.0  0.6298784389288555  0.5879982974217879  0.5343625312603753  1.0000
  H   H1        1.0  0.6644159515405609  0.5187214806218552  0.1827111235835337  1.0000
  H   H2        1.0  0.49931229729772897  0.5187216781602311  0.1827111182895884  1.0000
  H   H3        1.0  0.5007955332426427  0.6074008808549454  0.6328503411688213  1.0000
  H   H4        1.0  0.6658991211962055  0.6074007910087417  0.6328503482088605  1.0000
  C   C9        1.0  0.07986131569151911  0.13947231857541587  0.408566055293038  1.0000
  C   C10       1.0  0.05897837546877985  0.2215187156676184  0.2797154765118146  1.0000
  C   C11       1.0  0.046457847907855676  0.15519896612247178  0.15004739594909883  1.0000
  C   C12       1.0  0.05486526771163039  0.005446145111493989  0.14829069613457577  1.0000
  C   C13       1.0  0.07408795859377837  0.9220629789382884  0.2753712448062995  1.0000
  C   C14       1.0  0.08535865769644896  0.9866390911268467  0.40700783441123983  1.0000
  N   N3        1.0  0.02612235444290568  0.24033098715060985  0.019780674580049947  1.0000
  H   H5        1.0  0.1813377954979596  0.22222200125048144  0.7239030584232278  1.0000
  H   H6        1.0  0.045655981937759556  0.9529815055934086  0.048524190351600924  1.0000
  H   H7        1.0  0.15008071067652196  0.6916746423385296  0.6215486475324412  1.0000
  H   H8        1.0  0.019950031073594943  0.3524044301795511  0.01973387613452759  1.0000
  H   H9        1.0  0.01700234355530062  0.19190677018148225  0.922383742024396  1.0000
  C   C15       1.0  0.08172797913767994  0.5589103736980445  0.9846678023403989  1.0000
  C   C16       1.0  0.0023457310619805494  0.5936357803342085  0.05521477184771094  1.0000
  C   C17       1.0  0.9270214491436798  0.6402429721737687  0.9764280584798382  1.0000
  C   C18       1.0  0.9296650412180273  0.6530687523718273  0.8259086232516948  1.0000
  C   C19       1.0  0.007280919382400834  0.6167851406850758  0.7536374576151575  1.0000
  C   C20       1.0  0.08349201080148899  0.5672010454372334  0.8309060754388925  1.0000
  Br  Br1       1.0  0.8265775901377268  0.7180180540234742  0.7185389369453365  1.0000
  H   H10       1.0  0.2041173323803237  0.42789312689776887  0.27574297241659623  1.0000
  H   H11       1.0  0.999164019107035  0.5880484237422198  0.1721224522185134  1.0000
  H   H12       1.0  0.8668041297554119  0.6677449863994456  0.03269486318089787  1.0000
  H   H13       1.0  0.2307956458025483  0.5523061568545833  0.5515387312244324  1.0000
  Zn  Zn1       1.0  0.9844498751546971  0.5630574028108009  0.4077890237476227  1.0000
  Zn  Zn2       1.0  0.18076150133313662  0.5630532685156431  0.4077841742228028  1.0000
  C   C21       1.0  0.08311925771386885  0.559887454153813  0.6709594760670654  1.0000
  C   C22       1.0  0.0820942745958939  0.5662250385383186  0.14461385992349785  1.0000
  C   C23       1.0  0.08430295221643296  0.8264502551719953  0.4015606249423975  1.0000
  C   C24       1.0  0.08091050202020855  0.2996605052360113  0.41401279105601707  1.0000
  O   O1        1.0  0.15671640491031072  0.5686720449600356  0.19829138917936867  1.0000
  O   O2        1.0  0.15749310140114947  0.5574362176500949  0.6172778533629546  1.0000
  O   O3        1.0  0.15844794851950994  0.7726890653181995  0.3997363723042542  1.0000
  O   O4        1.0  0.155761490645848  0.3534192065536315  0.41583276218602244  1.0000
  O   O5        1.0  0.009449818850456591  0.772691464775719  0.39974043577847596  1.0000
  O   O6        1.0  0.008494982813687994  0.5574403493946469  0.6172818368233981  1.0000
  O   O7        1.0  0.007718282445162484  0.5686761094667563  0.19829364039785388  1.0000
  O   O8        1.0  0.006763368335272579  0.35342326180155914  0.4158351214506282  1.0000
