data_image0
_chemical_formula_structural       NC6NC3H6C6NH5C10H6Zn2C4O8
_chemical_formula_sum              "N3 C29 H17 Zn2 O8"
_cell_length_a       14.934028789175542
_cell_length_b       9.274771166103582
_cell_length_c       9.275153671780863
_cell_angle_alpha    85.60840141486051
_cell_angle_beta     89.38462069014352
_cell_angle_gamma    90.55950156128424

_space_group_name_H-M_alt    "P 1"
_space_group_IT_number       1

loop_
  _space_group_symop_operation_xyz
  'x, y, z'

loop_
  _atom_site_type_symbol
  _atom_site_label
  _atom_site_symmetry_multiplicity
  _atom_site_fract_x
  _atom_site_fract_y
  _atom_site_fract_z
  _atom_site_occupancy
  N   N1        1.0  0.86357473451241  0.5737103587284582  0.40608514972305954  1.0000
  C   C1        1.0  0.7860858768622927  0.5726102059006997  0.40540812670506465  1.0000
  C   C2        1.0  0.6896858184867231  0.5712365579537411  0.4045629899729022  1.0000
  C   C3        1.0  0.6421981796539714  0.678216903253253  0.4702757665293909  1.0000
  C   C4        1.0  0.5486836209135688  0.6771139625074092  0.46959815455940856  1.0000
  C   C5        1.0  0.501744290981013  0.5690852720056836  0.4032415016711095  1.0000
  C   C6        1.0  0.4051044718398147  0.5714031399656145  0.4046665455824945  1.0000
  N   N2        1.0  0.32762907121926904  0.5732426612622266  0.4057978260334498  1.0000
  C   C7        1.0  0.5492225591187322  0.46062487560578114  0.3366190481490039  1.0000
  C   C8        1.0  0.5006044757014545  0.3431752366278509  0.26447680431401843  1.0000
  C   C9        1.0  0.643371078711087  0.462853262054499  0.3379878889227743  1.0000
  H   H1        1.0  0.6774590663663493  0.7625074933921439  0.5220519285241016  1.0000
  H   H2        1.0  0.5128628951050902  0.7607553924838493  0.5209754252965659  1.0000
  H   H3        1.0  0.4587389378522912  0.39202949799824993  0.17575372839442327  1.0000
  H   H4        1.0  0.4569405729551655  0.2805203530658251  0.3447294953386084  1.0000
  H   H5        1.0  0.5478678561358692  0.26710139501954644  0.21774192697602368  1.0000
  H   H6        1.0  0.6806877220165546  0.38032451315834703  0.28729437443801786  1.0000
  C   C10       1.0  0.0928521159936952  0.14988473209268216  0.40672912015359675  1.0000
  C   C11       1.0  0.07307032396283764  0.23288328480135778  0.27779684209206534  1.0000
  C   C12       1.0  0.061654060696865166  0.16751317426658452  0.1480412869703549  1.0000
  C   C13       1.0  0.07007253307193825  0.0177645782773006  0.1462780943184463  1.0000
  C   C14       1.0  0.08820982801825211  0.9334437198398893  0.27344006985401825  1.0000
  C   C15       1.0  0.09836015484602507  0.9970572269525771  0.40516635304222826  1.0000
  N   N3        1.0  0.04243146370321235  0.25360703295473264  0.017691487588237905  1.0000
  H   H7        1.0  0.19161079950039595  0.23025345568148303  0.7222348962243299  1.0000
  H   H8        1.0  0.06171267409420554  0.9660301630411712  0.04644402330412567  1.0000
  H   H9        1.0  0.16123511124822354  0.7004772327252494  0.6198246635704974  1.0000
  H   H10       1.0  0.036262348875668794  0.3656870320604897  0.017648474415920438  1.0000
  H   H11       1.0  0.03414076369397257  0.20589582698437048  0.920228674667957  1.0000
  C   C16       1.0  0.09830923444230133  0.572384140989493  0.9825184193415292  1.0000
  C   C17       1.0  0.12268129814949197  0.6998406969060857  0.0460123807127777  1.0000
  C   C18       1.0  0.13869594126444412  0.8286634184299442  0.9607729199666474  1.0000
  C   C19       1.0  0.13044214008460536  0.8316341987863017  0.8108320579665866  1.0000
  C   C20       1.0  0.10781083834971955  0.7057848070479824  0.7457156543753247  1.0000
  C   C21       1.0  0.0929030476530519  0.5745577586580046  0.8293770528383964  1.0000
  C   C22       1.0  0.16260984842463522  0.9584933353102673  0.02762815856980327  1.0000
  C   C23       1.0  0.18263278546190823  0.0671890833910882  0.08362733695960056  1.0000
  C   C24       1.0  0.20607865390874403  0.19446701733770722  0.14920796620983223  1.0000
  C   C25       1.0  0.22609772312679366  0.303141983397353  0.20520453414601736  1.0000
  H   H12       1.0  0.10086607103541095  0.33346645082134474  0.2814930597543792  1.0000
  H   H13       1.0  0.1271985395660309  0.6999091769066743  0.16262484154604118  1.0000
  H   H14       1.0  0.14237778845454568  0.9310727347221467  0.743934936793758  1.0000
  H   H15       1.0  0.104032587706399  0.7103050417928689  0.6288780037475852  1.0000
  H   H16       1.0  0.10182085292509946  0.21979780153673456  0.7535256940107304  1.0000
  H   H17       1.0  0.24367610190670075  0.39856751390334555  0.2543744210642225  1.0000
  Zn  Zn1       1.0  0.9974907272268709  0.5735715473119201  0.4060105617775247  1.0000
  Zn  Zn2       1.0  0.19371295648982678  0.5733696870166003  0.40588422449651795  1.0000
  C   C26       1.0  0.09388555224942188  0.5684004407864603  0.6693132152844088  1.0000
  C   C27       1.0  0.09732028513771035  0.5785426117386281  0.14258170777703216  1.0000
  C   C28       1.0  0.09735107960238998  0.8369088179023617  0.3997157966820901  1.0000
  C   C29       1.0  0.09385467906935657  0.31003250183908704  0.41217920649427153  1.0000
  O   O1        1.0  0.1714536571864247  0.5805265528322825  0.19625247684132296  1.0000
  O   O2        1.0  0.16868030751270235  0.566262203142559  0.6155461460777509  1.0000
  O   O3        1.0  0.17147775127838982  0.7830861182965128  0.3978443209894129  1.0000
  O   O4        1.0  0.1686561472206538  0.36370264778849304  0.41395419383981813  1.0000
  O   O5        1.0  0.02254746953508624  0.783238586610463  0.3979405924697492  1.0000
  O   O6        1.0  0.01975003752382687  0.5664164043105855  0.6156423374786923  1.0000
  O   O7        1.0  0.02252339799734359  0.5806806992841591  0.19634693473062237  1.0000
  O   O8        1.0  0.01972588727069824  0.3638567842006415  0.4140487598544862  1.0000
