data_image0
_chemical_formula_structural       NC10NC2NCH9C6NCONH8C7OIH5Zn2C4O8
_chemical_formula_sum              "N5 C31 H22 O10 I1 Zn2"
_cell_length_a       19.276633427626003
_cell_length_b       10.300273812906134
_cell_length_c       10.297413674417344
_cell_angle_alpha    85.55128198850484
_cell_angle_beta     89.99837342195602
_cell_angle_gamma    90.06531705202703

_space_group_name_H-M_alt    "P 1"
_space_group_IT_number       1

loop_
  _space_group_symop_operation_xyz
  'x, y, z'

loop_
  _atom_site_type_symbol
  _atom_site_label
  _atom_site_symmetry_multiplicity
  _atom_site_fract_x
  _atom_site_fract_y
  _atom_site_fract_z
  _atom_site_occupancy
  N   N1        1.0  0.6527452093150969  0.42330036519509395  0.5666491808144877  1.0000
  C   C1        1.0  0.5927287183486234  0.4207113830205651  0.5680216114459753  1.0000
  C   C2        1.0  0.5180131849474483  0.4174242188681627  0.5697268125919529  1.0000
  C   C3        1.0  0.48258122116990093  0.5282997730183188  0.5763165405710453  1.0000
  C   C4        1.0  0.4064112110795661  0.5296912841310226  0.578837541731311  1.0000
  C   C5        1.0  0.3699998539444664  0.4198071112039592  0.5708252100180198  1.0000
  C   C6        1.0  0.2929747540493498  0.42177127844833384  0.5700613030755473  1.0000
  C   C7        1.0  0.255986278429267  0.3447519644624952  0.48680696016688413  1.0000
  C   C8        1.0  0.1834527759536009  0.3455679938815155  0.48584293203694445  1.0000
  C   C9        1.0  0.1469635166320427  0.4230854630189105  0.568240557701759  1.0000
  C   C10       1.0  0.0722908039299854  0.4237831677764172  0.567204516457184  1.0000
  N   N2        1.0  0.012259251338998097  0.4243440173041653  0.5663715339571682  1.0000
  C   C11       1.0  0.1832847255458045  0.49985861112554186  0.651705355942449  1.0000
  C   C12       1.0  0.25581482180985704  0.49927562072857534  0.6527587746427023  1.0000
  N   N3        1.0  0.4062819552932806  0.29916032754326083  0.5600676104814662  1.0000
  C   C13       1.0  0.4819340557414101  0.28740860841501137  0.5692775254051137  1.0000
  H   H1        1.0  0.5098437011495849  0.6201611133799312  0.5790720784213632  1.0000
  H   H2        1.0  0.3804825861850142  0.6223908863157472  0.5838287749163829  1.0000
  H   H3        1.0  0.2831241003206323  0.2852834293401745  0.4210557680524307  1.0000
  H   H4        1.0  0.1558575131030915  0.2859719808165797  0.4206301362530762  1.0000
  H   H5        1.0  0.15556025333647164  0.559873852763896  0.71624759311676  1.0000
  H   H6        1.0  0.2828024663571221  0.5580534366600092  0.7194353883486011  1.0000
  H   H7        1.0  0.3779420208566951  0.21301539452179316  0.5565232255219983  1.0000
  H   H8        1.0  0.49526265740504644  0.22783861135621122  0.6603931456088982  1.0000
  H   H9        1.0  0.5010219890158626  0.23590828885567205  0.4854039428562872  1.0000
  C   C14       1.0  0.8325768168973713  0.04247427678064984  0.5665264658366859  1.0000
  C   C15       1.0  0.848816663499763  0.05179543649288032  0.433161383722265  1.0000
  C   C16       1.0  0.857949273144266  0.9391871077425566  0.3663595963195081  1.0000
  C   C17       1.0  0.8486564247815748  0.8166383426019739  0.4331759752875979  1.0000
  C   C18       1.0  0.8324343111044176  0.8051601411690369  0.566505494827086  1.0000
  C   C19       1.0  0.8247423126344837  0.918679191603722  0.6325887107456772  1.0000
  N   N4        1.0  0.8734876007514458  0.9471460567283038  0.22935563781333396  1.0000
  C   C20       1.0  0.9171975245375057  0.044928054161131874  0.1647332783601019  1.0000
  O   O1        1.0  0.953419664760044  0.11891285571607589  0.2293505958532849  1.0000
  N   N5        1.0  0.9215281907663899  0.0561500745496084  0.025997132354607766  1.0000
  H   H10       1.0  0.8253870515811231  0.36638524486244567  0.6168018856540698  1.0000
  H   H11       1.0  0.8529842734004407  0.14662884853280356  0.3806962784805109  1.0000
  H   H12       1.0  0.8547447637467592  0.7302562656778829  0.38061536157978787  1.0000
  H   H13       1.0  0.8122360539119219  0.9106804076825976  0.7354558284833544  1.0000
  H   H14       1.0  0.8252563327662519  0.4734348170418049  0.6165903448286987  1.0000
  H   H15       1.0  0.8558367907958423  0.8722534856764972  0.17485695123455194  1.0000
  H   H16       1.0  0.8922735353143759  0.9952275333032794  0.970763532490679  1.0000
  H   H17       1.0  0.9538540295178519  0.12590044259777275  0.9782549937290881  1.0000
  C   C21       1.0  0.8324513460784023  0.42386942691948204  0.1850636017263643  1.0000
  C   C22       1.0  0.7676121619888565  0.4862316581219299  0.17904086238627365  1.0000
  C   C23       1.0  0.7346813678473114  0.5179043551351967  0.05886670195323785  1.0000
  C   C24       1.0  0.7677371676449114  0.4861112885002561  0.9438529358257212  1.0000
  C   C25       1.0  0.8325597927977803  0.42376493664199977  0.9479684258499035  1.0000
  C   C26       1.0  0.864519799793718  0.3930259317574911  0.06903460536433781  1.0000
  C   C27       1.0  0.6661160942796048  0.5838502054898127  0.05503664704960088  1.0000
  O   O2        1.0  0.6374198303610183  0.6114495795704272  0.15932200885939812  1.0000
  I   I1        1.0  0.6119738558557928  0.6359251363654853  0.8796263832209182  1.0000
  H   H18       1.0  0.95487299029643  0.30612344383605916  0.40364911423879546  1.0000
  H   H19       1.0  0.7426953408373786  0.5101966887554961  0.26837142947137993  1.0000
  H   H20       1.0  0.7433182122489242  0.509597144739971  0.8505644960791361  1.0000
  H   H21       1.0  0.9145006591274134  0.34495445115747647  0.0728702416512792  1.0000
  H   H22       1.0  0.8576546916126861  0.39962906232387496  0.6220056113947323  1.0000
  Zn  Zn1       1.0  0.7564932067619903  0.423598056070482  0.5665765689449496  1.0000
  Zn  Zn2       1.0  0.9085112760549086  0.4240356747194058  0.5664548196183756  1.0000
  C   C28       1.0  0.8325387007630803  0.41861129837660194  0.8037631832861541  1.0000
  C   C29       1.0  0.8324674417983676  0.42902407570390383  0.32926833139701217  1.0000
  C   C30       1.0  0.8324569388268658  0.6609969412559042  0.561333173300095  1.0000
  C   C31       1.0  0.832549152162812  0.18663687244918048  0.5716984107212604  1.0000
  O   O3        1.0  0.890162909775453  0.43091443149161357  0.3776185529216528  1.0000
  O   O4        1.0  0.8902214300505388  0.41705210540030824  0.7553201829387814  1.0000
  O   O5        1.0  0.8901546287553271  0.612781574986446  0.5595562352282558  1.0000
  O   O6        1.0  0.8902296591816162  0.23518497105919445  0.573382403277487  1.0000
  O   O7        1.0  0.7747747717589749  0.6124487595827703  0.5596489853205527  1.0000
  O   O8        1.0  0.7748415727496488  0.41672085022412964  0.7554128637276041  1.0000
  O   O9        1.0  0.774783052307184  0.43058313127597586  0.37770967196923727  1.0000
  O   O10       1.0  0.7748498017260882  0.2348536615419148  0.5734736197144779  1.0000
