data_image0
_chemical_formula_structural       NC8NC6H8C7F3H5C12H10Zn2C4O8
_chemical_formula_sum              "N2 C37 H23 F3 Zn2 O8"
_cell_length_a       17.457602349358154
_cell_length_b       9.272718291674593
_cell_length_c       10.299141136925904
_cell_angle_alpha    85.97515333800408
_cell_angle_beta     92.89850146643516
_cell_angle_gamma    91.24279848523653

_space_group_name_H-M_alt    "P 1"
_space_group_IT_number       1

loop_
  _space_group_symop_operation_xyz
  'x, y, z'

loop_
  _atom_site_type_symbol
  _atom_site_label
  _atom_site_symmetry_multiplicity
  _atom_site_fract_x
  _atom_site_fract_y
  _atom_site_fract_z
  _atom_site_occupancy
  N   N1        1.0  0.7157478590290746  0.6129949712868433  0.6368236973163295  1.0000
  C   C1        1.0  0.6548685717195861  0.5620238463215118  0.6258774504227025  1.0000
  C   C2        1.0  0.5791321324466451  0.49862210651635297  0.6122699030377134  1.0000
  C   C3        1.0  0.5204448735052164  0.543176040743182  0.6874619290724713  1.0000
  C   C4        1.0  0.4461373833081138  0.4821252628531801  0.674484074916198  1.0000
  C   C5        1.0  0.3838504229611115  0.529167580600151  0.7541143639862495  1.0000
  C   C6        1.0  0.30921007257719885  0.549683991696819  0.6984789185285412  1.0000
  C   C7        1.0  0.25052364094401347  0.5940337449092323  0.7737775867003476  1.0000
  C   C8        1.0  0.1744419730766311  0.615223314898059  0.7159308501942825  1.0000
  N   N2        1.0  0.113285256587202  0.6322526480098074  0.6694221793080815  1.0000
  C   C9        1.0  0.2659844493032116  0.6181368010336568  0.9052220043722361  1.0000
  C   C10       1.0  0.33983848159298463  0.5980520220345515  0.9612478715348256  1.0000
  C   C11       1.0  0.3985126251700205  0.5539019755058334  0.8864082541531925  1.0000
  C   C12       1.0  0.4318084345435985  0.37576910231901195  0.5848762964966869  1.0000
  C   C13       1.0  0.4904828470919946  0.3315243619520699  0.5100863065575125  1.0000
  C   C14       1.0  0.5640052060352839  0.3926996979345734  0.5236149616288408  1.0000
  H   H1        1.0  0.5324749906047781  0.6266166898526209  0.7546377929940218  1.0000
  H   H2        1.0  0.2969071615698453  0.5330998378770883  0.5963387309782426  1.0000
  H   H3        1.0  0.221001783227754  0.652396503584869  0.9642842815661206  1.0000
  H   H4        1.0  0.3516207754361387  0.6163652102340895  0.06302594972956388  1.0000
  H   H5        1.0  0.45507448325600786  0.5372474189032643  0.9324108177233119  1.0000
  H   H6        1.0  0.3755198350546333  0.32545248782550673  0.5738981626052757  1.0000
  H   H7        1.0  0.4789613757618068  0.24932329981339613  0.44172003884101735  1.0000
  H   H8        1.0  0.6089918415701803  0.3574745181464852  0.4650576077570132  1.0000
  C   C15       1.0  0.9161900778925245  0.1993229650290698  0.6503912579920532  1.0000
  C   C16       1.0  0.8694114997556658  0.27839407566873486  0.5568023632837769  1.0000
  C   C17       1.0  0.8172076716589578  0.20835525946271627  0.4730160075570511  1.0000
  C   C18       1.0  0.8138147402462794  0.05690014817049228  0.48033063387853886  1.0000
  C   C19       1.0  0.8606500137340397  0.9768734872139945  0.5711138569183192  1.0000
  C   C20       1.0  0.9128504012766366  0.045913873739664934  0.6558664200884605  1.0000
  C   C21       1.0  0.7690319410186598  0.2949582772621242  0.3710501899496863  1.0000
  F   F1        1.0  0.7493324055840337  0.4254103085355419  0.41663484445615984  1.0000
  F   F2        1.0  0.7020667607019728  0.22032131710466363  0.3384250908213169  1.0000
  F   F3        1.0  0.8103857267695015  0.32177482262895407  0.2606779016465557  1.0000
  H   H9        1.0  0.0073337173896128515  0.28235467470958353  0.938148150461759  1.0000
  H   H10       1.0  0.8724719456050773  0.39551281419301443  0.5510086547325899  1.0000
  H   H11       1.0  0.7754590816380499  0.9999665850793031  0.4147322988287703  1.0000
  H   H12       1.0  0.8575196702155609  0.8599522786429867  0.5726045372321215  1.0000
  H   H13       1.0  0.07755659257977034  0.9379361456043456  0.8256861486438456  1.0000
  C   C22       1.0  0.9144325716146965  0.6227372208489164  0.27172946560348143  1.0000
  C   C23       1.0  0.9944951427368564  0.6421429976275184  0.2765848512004865  1.0000
  C   C24       1.0  0.035180326541902396  0.6518604519960514  0.1619195516427625  1.0000
  C   C25       1.0  0.9947207362729572  0.6419101221030183  0.041335990217666874  1.0000
  C   C26       1.0  0.9146079438887411  0.6224996214781899  0.03452820379622845  1.0000
  C   C27       1.0  0.8749571600110153  0.6130303135473296  0.1502119030375746  1.0000
  C   C28       1.0  0.1198784640710826  0.6723916271528059  0.16810083644123908  1.0000
  C   C29       1.0  0.16584062402690414  0.5957787500871817  0.08911112224839535  1.0000
  C   C30       1.0  0.245555993773944  0.6152827452712861  0.09516785198831745  1.0000
  C   C31       1.0  0.28023149662515734  0.711257546854856  0.179809586303862  1.0000
  C   C32       1.0  0.23526174394380475  0.7879280619963374  0.2586360630354665  1.0000
  C   C33       1.0  0.15552484767421015  0.7687844976802192  0.253049838708886  1.0000
  H   H14       1.0  0.8836309574056626  0.6153456756303917  0.5973325385475303  1.0000
  H   H15       1.0  0.025518317430412333  0.6477615552941685  0.3699091160348942  1.0000
  H   H16       1.0  0.02566958787588903  0.6513042130843496  0.9525015963826058  1.0000
  H   H17       1.0  0.8132028502299328  0.5980661895859241  0.14575092812051224  1.0000
  H   H18       1.0  0.7633457825002872  0.5867753360324588  0.8143253922232772  1.0000
  H   H19       1.0  0.14024245662235546  0.5194943815974609  0.023991169463436268  1.0000
  H   H20       1.0  0.28048533008439985  0.5556270686438303  0.034386962067422644  1.0000
  H   H21       1.0  0.34194476160504184  0.7262152558496753  0.18431595829596192  1.0000
  H   H22       1.0  0.2621840410219023  0.8625748343486931  0.3239332529223127  1.0000
  H   H23       1.0  0.12169310922943133  0.8306638824899293  0.31383134445176464  1.0000
  Zn  Zn1       1.0  0.8304685816893423  0.6185484528337373  0.6462383891201531  1.0000
  Zn  Zn2       1.0  0.998564568743679  0.6266873445871943  0.6600180444466408  1.0000
  C   C34       1.0  0.9145957170368904  0.6168019207469003  0.8903056037405371  1.0000
  C   C35       1.0  0.9144392618535632  0.6284357842990311  0.41595111953886077  1.0000
  C   C36       1.0  0.91347654394624  0.8858915980005524  0.6496555564319587  1.0000
  C   C37       1.0  0.9155583844326266  0.3593443723863907  0.6566012201891764  1.0000
  O   O1        1.0  0.978233083014255  0.6334306525559819  0.46958249079314696  1.0000
  O   O2        1.0  0.9783828647779064  0.6179831956816826  0.8471322911308783  1.0000
  O   O3        1.0  0.9774782587231551  0.8352764711100907  0.6528056144889198  1.0000
  O   O4        1.0  0.9791376316461687  0.4161373846923504  0.6639090654172914  1.0000
  O   O5        1.0  0.8498954614239349  0.8290984099527489  0.6423473634403605  1.0000
  O   O6        1.0  0.8508000606273546  0.611806866407496  0.8366739820314407  1.0000
  O   O7        1.0  0.85065027875392  0.6272542735387208  0.45912261984772185  1.0000
  O   O8        1.0  0.8515548274457534  0.4099609953344801  0.6534492917805393  1.0000
