data_image0
_chemical_formula_structural       NC5NC3H4C10H6C6OCH7Zn2C4O8
_chemical_formula_sum              "N2 C29 H17 O9 Zn2"
_cell_length_a       13.859018345313864
_cell_length_b       9.275150299802176
_cell_length_c       9.273891588657152
_cell_angle_alpha    85.74891997062389
_cell_angle_beta     89.68012665511726
_cell_angle_gamma    89.48388887768701

_space_group_name_H-M_alt    "P 1"
_space_group_IT_number       1

loop_
  _space_group_symop_operation_xyz
  'x, y, z'

loop_
  _atom_site_type_symbol
  _atom_site_label
  _atom_site_symmetry_multiplicity
  _atom_site_fract_x
  _atom_site_fract_y
  _atom_site_fract_z
  _atom_site_occupancy
  N   N1        1.0  0.9051305944496324  0.5646325351004764  0.4012097681484095  1.0000
  C   C1        1.0  0.8328194741023707  0.525535009413835  0.452682641081281  1.0000
  C   C2        1.0  0.7428686829293529  0.4769029246843535  0.5167080480637853  1.0000
  C   C3        1.0  0.6552008852570947  0.5243135145835722  0.45429111562394375  1.0000
  C   C4        1.0  0.567638380680431  0.4769026329721784  0.5167079241737542  1.0000
  C   C5        1.0  0.47757959552343915  0.5255348957964372  0.4526825444184195  1.0000
  N   N2        1.0  0.40518169235746027  0.5646325005633337  0.4012096993216647  1.0000
  C   C6        1.0  0.5679261681110388  0.38206714137518377  0.641560339108765  1.0000
  C   C7        1.0  0.6554112216144695  0.33483905698832617  0.7037370758836836  1.0000
  C   C8        1.0  0.7427915091184439  0.3820674385114313  0.6415605410699288  1.0000
  H   H1        1.0  0.6551193363831768  0.5977187720840975  0.35765198802085707  1.0000
  H   H2        1.0  0.5006721288784649  0.3447501531712267  0.6906883128081627  1.0000
  H   H3        1.0  0.6554925414166975  0.26158282716801534  0.800180200122792  1.0000
  H   H4        1.0  0.810128385748467  0.3447506872121996  0.6906887350625193  1.0000
  C   C9        1.0  0.15769750293599816  0.14094873114137507  0.4036227217452817  1.0000
  C   C10       1.0  0.20885297439661654  0.22201708247718327  0.2945779120582044  1.0000
  C   C11       1.0  0.2517544794756461  0.15483382230486886  0.1799915881278531  1.0000
  C   C12       1.0  0.24393703343854153  0.005603005311636492  0.17297414986853532  1.0000
  C   C13       1.0  0.19489056174152175  0.9230849692783636  0.28137117783199694  1.0000
  C   C14       1.0  0.15262398833845237  0.9883052433167363  0.39880931500597416  1.0000
  C   C15       1.0  0.30293111665487293  0.23962181943070474  0.06845357992866985  1.0000
  C   C16       1.0  0.34577887672067154  0.3106343887191717  0.9750730194297458  1.0000
  C   C17       1.0  0.39595161640657683  0.3937950858176033  0.8657284556126762  1.0000
  C   C18       1.0  0.43879111526678716  0.46480233443903723  0.772365795510833  1.0000
  H   H5        1.0  0.11107655466614519  0.40533728201848707  0.6325035939660468  1.0000
  H   H6        1.0  0.21348055799210086  0.33848553302158146  0.29680456737148564  1.0000
  H   H7        1.0  0.27661766141274047  0.9526579889598489  0.08430841048229332  1.0000
  H   H8        1.0  0.1919632796115216  0.8070287733195929  0.2751484009204421  1.0000
  H   H9        1.0  0.08862871069545997  0.8609237385486075  0.7412644860282007  1.0000
  H   H10       1.0  0.47640776857445666  0.5271527285873161  0.6903856686770968  1.0000
  C   C19       1.0  0.15676433727821615  0.5608058884353172  0.9779623896667466  1.0000
  C   C20       1.0  0.23541764067997217  0.6217457091521081  0.04618991748923662  1.0000
  C   C21       1.0  0.3085333156598504  0.6934590968039954  0.9659728003130841  1.0000
  C   C22       1.0  0.3032565114723449  0.704594189764901  0.8144689348016874  1.0000
  C   C23       1.0  0.22663558105552206  0.6427807645808827  0.7449041715122324  1.0000
  C   C24       1.0  0.15355716271227404  0.5684480602006106  0.8244696191052285  1.0000
  O   O1        1.0  0.3845621782949512  0.7526225225127847  0.040843326811251586  1.0000
  C   C25       1.0  0.4635639311393394  0.8285533561790319  0.9733356267527724  1.0000
  H   H11       1.0  0.9277877918548174  0.4721910818792314  0.0894830157378892  1.0000
  H   H12       1.0  0.35850944346570746  0.7596880875314111  0.7492338353737469  1.0000
  H   H13       1.0  0.22581250622134008  0.6502166667738736  0.6277807557179136  1.0000
  H   H14       1.0  0.0008978294503090288  0.5030679513504823  0.5493983697221432  1.0000
  H   H15       1.0  0.4370787516915795  0.9261877084950415  0.9083854373280529  1.0000
  H   H16       1.0  0.5042246152042706  0.756948248395833  0.903329710406696  1.0000
  H   H17       1.0  0.512749366243944  0.8630395941734615  0.05798327033289775  1.0000
  Zn  Zn1       1.0  0.04943452964779892  0.5646287276560961  0.40121810283810966  1.0000
  Zn  Zn2       1.0  0.2608777596752505  0.564624573931809  0.4012132700160491  1.0000
  C   C26       1.0  0.15419566472200147  0.5612558432576652  0.6644942949915327  1.0000
  C   C27       1.0  0.1561189221188668  0.5679992799951274  0.13793720893462003  1.0000
  C   C28       1.0  0.15359980892342073  0.828084994759146  0.393975600391256  1.0000
  C   C29       1.0  0.15671471585428032  0.30116839576238696  0.40845599022620127  1.0000
  O   O2        1.0  0.23614395643237945  0.5704055772129026  0.19162442139343328  1.0000
  O   O3        1.0  0.23465115762484268  0.5588453012856294  0.6108030058108891  1.0000
  O   O4        1.0  0.23416890915859367  0.7743132291896069  0.3923572374594395  1.0000
  O   O5        1.0  0.236626133095021  0.35493765865572185  0.4100700816188405  1.0000
  O   O6        1.0  0.07368608407285057  0.7743156429351024  0.39236129122937746  1.0000
  O   O7        1.0  0.07416832244708904  0.5588494477653037  0.6108069728835817  1.0000
  O   O8        1.0  0.07566112818519533  0.5704096577708234  0.1916266558666455  1.0000
  O   O9        1.0  0.07614330449626627  0.35494172986976547  0.4100724242121545  1.0000
