data_image0
_chemical_formula_structural       NC8NC6H8C6SCNH4C6OCH6Zn2C4O8
_chemical_formula_sum              "N3 C32 H18 S1 O9 Zn2"
_cell_length_a       17.457602349358154
_cell_length_b       10.302215558581764
_cell_length_c       9.273891588657152
_cell_angle_alpha    86.08259887656699
_cell_angle_beta     92.54290593679646
_cell_angle_gamma    91.70712283406877

_space_group_name_H-M_alt    "P 1"
_space_group_IT_number       1

loop_
  _space_group_symop_operation_xyz
  'x, y, z'

loop_
  _atom_site_type_symbol
  _atom_site_label
  _atom_site_symmetry_multiplicity
  _atom_site_fract_x
  _atom_site_fract_y
  _atom_site_fract_z
  _atom_site_occupancy
  N   N1        1.0  0.7272375595169066  0.4402891483010754  0.47618864740921496  1.0000
  C   C1        1.0  0.666185426768826  0.3942812590001759  0.46440320897407106  1.0000
  C   C2        1.0  0.5902339603150002  0.3370532422829957  0.44975271199553507  1.0000
  C   C3        1.0  0.5314667028690163  0.37786927515041313  0.5328638330236076  1.0000
  C   C4        1.0  0.456951718197364  0.32276444109182023  0.5188954023978063  1.0000
  C   C5        1.0  0.3945794507702285  0.3658622760451981  0.6069132139713336  1.0000
  C   C6        1.0  0.3202200977502132  0.38383154331778724  0.5450412539278147  1.0000
  C   C7        1.0  0.26145244529845557  0.4244646540032766  0.6282721335912362  1.0000
  C   C8        1.0  0.1856623532333127  0.4430199758648761  0.563942008693521  1.0000
  N   N2        1.0  0.1247400339507758  0.45793207787735307  0.5122207549932092  1.0000
  C   C9        1.0  0.2765503571048754  0.4473760878076989  0.7739392519536894  1.0000
  C   C10       1.0  0.3501238073219755  0.4297991473690376  0.8362413400481788  1.0000
  C   C11       1.0  0.4088783834876858  0.389350105197394  0.7535183673566375  1.0000
  C   C12       1.0  0.442497220312399  0.22615361649611887  0.4202258065523039  1.0000
  C   C13       1.0  0.5012514979748516  0.18561974133107476  0.3375585629637021  1.0000
  C   C14       1.0  0.574979928419892  0.2408417999912913  0.3521372268069758  1.0000
  H   H1        1.0  0.5436063224360513  0.4536357251983463  0.6068068776981326  1.0000
  H   H2        1.0  0.308208076500414  0.3679602340806099  0.4318340496418003  1.0000
  H   H3        1.0  0.2315017976885648  0.4787729126378357  0.839227061513232  1.0000
  H   H4        1.0  0.36162365727376383  0.447224417918544  0.9490345946389686  1.0000
  H   H5        1.0  0.4652091808313975  0.37477091898261056  0.804675454581369  1.0000
  H   H6        1.0  0.3860386020970017  0.18073492779869002  0.40840037490116915  1.0000
  H   H7        1.0  0.48962985686825533  0.11095884712496251  0.2622860301147958  1.0000
  H   H8        1.0  0.6200266752083745  0.20858002713368706  0.28741643490508895  1.0000
  C   C15       1.0  0.9259163955838133  0.0678348493994756  0.4941584549932607  1.0000
  C   C16       1.0  0.002652719635605205  0.06753950254383456  0.5464692798567656  1.0000
  C   C17       1.0  0.04083866130644065  0.9503554789385541  0.5729570811567508  1.0000
  C   C18       1.0  0.0028517208239564615  0.8323741230893286  0.5466093657006423  1.0000
  C   C19       1.0  0.9260684636231138  0.8303767509101851  0.49426403221831916  1.0000
  C   C20       1.0  0.8880136822357927  0.9486460306668733  0.46838104285133797  1.0000
  S   S1        1.0  0.13887913939610116  0.951496454519065  0.6391479357279679  1.0000
  C   C21       1.0  0.11302613528121003  0.939024461244763  0.821508897736575  1.0000
  N   N3        1.0  0.09605386569756628  0.9308473564138084  0.9410599846943186  1.0000
  H   H9        1.0  0.0330525566302884  0.15800814738758762  0.567110258451132  1.0000
  H   H10       1.0  0.033387964611513186  0.7425677530990231  0.56734644003842  1.0000
  H   H11       1.0  0.8288314380620512  0.9480243124648562  0.4280570518867031  1.0000
  H   H12       1.0  0.7813653798416444  0.6194045513424139  0.39545305283255683  1.0000
  C   C22       1.0  0.9272482906076215  0.44572294117127625  0.07104935546386182  1.0000
  C   C23       1.0  0.9900726512776028  0.5033510476765779  0.1453244540336005  1.0000
  C   C24       1.0  0.048548230818582304  0.5704812560320562  0.07082307340650851  1.0000
  C   C25       1.0  0.04440857065120941  0.580317976481233  0.9190084225738474  1.0000
  C   C26       1.0  0.9831954767099524  0.5219752296749607  0.8435370867628227  1.0000
  C   C27       1.0  0.9247365764477837  0.45248864149035306  0.9173731468215736  1.0000
  O   O1        1.0  0.10927758758737333  0.6264178008775148  0.15154098290818885  1.0000
  C   C28       1.0  0.1724529801703688  0.6975518832063594  0.09019945447105426  1.0000
  H   H13       1.0  0.7447917313044934  0.35788032430360706  0.16551798408936547  1.0000
  H   H14       1.0  0.08860254778408705  0.6318584422691342  0.8580982766939816  1.0000
  H   H15       1.0  0.8030611364314697  0.388252645640158  0.6308939881159343  1.0000
  H   H16       1.0  0.15188150258263103  0.784499869383439  0.023949729312203297  1.0000
  H   H17       1.0  0.20442146206109252  0.6345334354432881  0.022676850537253657  1.0000
  H   H18       1.0  0.21172197808358206  0.7303289464834439  0.17860632511930263  1.0000
  Zn  Zn1       1.0  0.8419481617578097  0.44537710132896713  0.48659505504091466  1.0000
  Zn  Zn2       1.0  0.010029380323770988  0.4528335739391625  0.5018261435990368  1.0000
  C   C29       1.0  0.925208614206627  0.4460373248669876  0.7573989763435014  1.0000
  C   C30       1.0  0.9267707632236386  0.45217507117643274  0.23102253028145706  1.0000
  C   C31       1.0  0.9260528336716953  0.6861940437827319  0.48850144809456375  1.0000
  C   C32       1.0  0.9259264858650601  0.21201679040822977  0.49992012994329826  1.0000
  O   O2        1.0  0.99039644602467  0.4571644930825396  0.2904911070690126  1.0000
  O   O3        1.0  0.9891526881982121  0.4467062103411481  0.7094900283978764  1.0000
  O   O4        1.0  0.9898335417809924  0.6406357718945896  0.4923532941093281  1.0000
  O   O5        1.0  0.9897155354096628  0.26323493740891957  0.5076277281158639  1.0000
  O   O6        1.0  0.8622619493140697  0.6349757353160346  0.480793465318885  1.0000
  O   O7        1.0  0.8615810962669513  0.44104773307187617  0.6979301229893273  1.0000
  O   O8        1.0  0.8628248592770925  0.45150595672043203  0.2789294691492523  1.0000
  O   O9        1.0  0.8621439483364642  0.25757639262381504  0.4960661982325989  1.0000
