data_image0
_chemical_formula_structural       NC9NC5H8C12ClH9C15H12Zn2C4O8
_chemical_formula_sum              "N2 C45 H29 Cl1 Zn2 O8"
_cell_length_a       17.807436237873137
_cell_length_b       10.299768534541528
_cell_length_c       10.299157797200024
_cell_angle_alpha    85.54593967103357
_cell_angle_beta     89.41431720980769
_cell_angle_gamma    88.408414792471

_space_group_name_H-M_alt    "P 1"
_space_group_IT_number       1

loop_
  _space_group_symop_operation_xyz
  'x, y, z'

loop_
  _atom_site_type_symbol
  _atom_site_label
  _atom_site_symmetry_multiplicity
  _atom_site_fract_x
  _atom_site_fract_y
  _atom_site_fract_z
  _atom_site_occupancy
  N   N1        1.0  0.7073402456982284  0.38815489084377286  0.5570700517680949  1.0000
  C   C1        1.0  0.646743674171735  0.3529691181015504  0.546044853366842  1.0000
  C   C2        1.0  0.5713681993172383  0.30920189167526124  0.5323307036599727  1.0000
  C   C3        1.0  0.5532396189400575  0.2378192979922682  0.4273204170838079  1.0000
  C   C4        1.0  0.48005388293422285  0.195213224258034  0.41392222635736386  1.0000
  C   C5        1.0  0.4239479313428589  0.2236122315831494  0.5055018618470464  1.0000
  C   C6        1.0  0.34617039995261917  0.1784478383061572  0.4913451360995837  1.0000
  C   C7        1.0  0.2840151284153549  0.26019472318644254  0.5172870433093659  1.0000
  C   C8        1.0  0.210687052979887  0.21738561131143272  0.5039025308429075  1.0000
  C   C9        1.0  0.14748227410979578  0.301823687595022  0.5302084108246956  1.0000
  N   N2        1.0  0.0966786189413205  0.36970605884042307  0.5513576116946208  1.0000
  C   C10       1.0  0.19893065057441903  0.09257164717959832  0.4645507552757666  1.0000
  C   C11       1.0  0.2602285478079794  0.010810912756850508  0.4386004576263554  1.0000
  C   C12       1.0  0.3334370719005873  0.05322555127324579  0.45178241271440905  1.0000
  C   C13       1.0  0.44276805787956613  0.295489117064249  0.6107313998328419  1.0000
  C   C14       1.0  0.516006594442836  0.33790484619690886  0.6239739272327958  1.0000
  H   H1        1.0  0.5956140367152483  0.2153557282309315  0.3556030491748332  1.0000
  H   H2        1.0  0.467112485644136  0.14155653694415427  0.33099593880151046  1.0000
  H   H3        1.0  0.2925372580417797  0.35764913095464673  0.5461675190577384  1.0000
  H   H4        1.0  0.1424568963015506  0.05853940855157447  0.45395464223716475  1.0000
  H   H5        1.0  0.2510079523690552  0.9141769431758444  0.40851951485418736  1.0000
  H   H6        1.0  0.3800613661024198  0.9874874594790373  0.43273171937871524  1.0000
  H   H7        1.0  0.4011107151571439  0.3174132653976873  0.6837433324159543  1.0000
  H   H8        1.0  0.5294763306075636  0.3927824029476232  0.7058585487586881  1.0000
  C   C15       1.0  0.9019421644271014  0.9975682831959458  0.5542127184161667  1.0000
  C   C16       1.0  0.9068589565572753  0.0069402179545225975  0.4176637045585201  1.0000
  C   C17       1.0  0.9094225589202288  0.8945462601261354  0.34847956286916015  1.0000
  C   C18       1.0  0.9070024430495524  0.7716456969418862  0.41767709017174903  1.0000
  C   C19       1.0  0.9020838835923234  0.7602823169084351  0.5542260679064328  1.0000
  C   C20       1.0  0.899581841739412  0.8737996124897515  0.6217291987064328  1.0000
  C   C21       1.0  0.9146251139862512  0.9055146062948256  0.20402207483433135  1.0000
  C   C22       1.0  0.8718692896580144  0.0011020696182724118  0.1301812514592393  1.0000
  C   C23       1.0  0.8768330205459537  0.011226820555219251  0.9942207615247401  1.0000
  C   C24       1.0  0.9244796418398014  0.9262901851368787  0.9304102086993784  1.0000
  C   C25       1.0  0.9672228104415066  0.8310160002335973  0.0027399092279682988  1.0000
  C   C26       1.0  0.9623924942256658  0.820492671991339  0.1387130858085217  1.0000
  Cl  Cl1       1.0  0.930623672363467  0.9392432010726053  0.7598251362544803  1.0000
  H   H9        1.0  0.9000300772981891  0.3214526925076775  0.6062419267576382  1.0000
  H   H10       1.0  0.9097433251107331  0.10183106501823679  0.36488572417195986  1.0000
  H   H11       1.0  0.907926223361903  0.6847833523881908  0.3647143079669317  1.0000
  H   H12       1.0  0.895788002108319  0.8658014435759567  0.7270704883237862  1.0000
  H   H13       1.0  0.900239595204071  0.42849717248823677  0.6062620829359233  1.0000
  H   H14       1.0  0.8338956577811155  0.06686393763288322  0.17748459246042092  1.0000
  H   H15       1.0  0.8434650517547538  0.0849380063361047  0.9385953115479788  1.0000
  H   H16       1.0  0.004358236076530411  0.765247721072398  0.9537592900878454  1.0000
  H   H17       1.0  0.9967134259388718  0.7470300685499143  0.19283016165712596  1.0000
  C   C27       1.0  0.901925937519005  0.3790356977847082  0.17282866874989633  1.0000
  C   C28       1.0  0.8236736429813715  0.36476449042947645  0.17415158748722592  1.0000
  C   C29       1.0  0.7841582562332162  0.35741196287092614  0.05767766241213024  1.0000
  C   C30       1.0  0.8238968167763642  0.36454518557517457  0.9388810142027735  1.0000
  C   C31       1.0  0.902100076009157  0.3788149217873559  0.9356101316104191  1.0000
  C   C32       1.0  0.9406579784511081  0.3859710899668609  0.053120944199883675  1.0000
  C   C33       1.0  0.7014280577359068  0.3423294566852128  0.06012258231213252  1.0000
  C   C34       1.0  0.6676084383365268  0.2569538273652574  0.9795099787398974  1.0000
  C   C35       1.0  0.5897558727369024  0.2428536042660414  0.9818430115504166  1.0000
  C   C36       1.0  0.5443361606718911  0.3131856532807986  0.06534087941554412  1.0000
  C   C37       1.0  0.5777538879410556  0.3994258650781188  0.1449826814157975  1.0000
  C   C38       1.0  0.6556056968582141  0.4135303223479272  0.1427976105198543  1.0000
  C   C39       1.0  0.4604673696476786  0.30034478339216597  0.06550810831754927  1.0000
  C   C40       1.0  0.4266983185105915  0.3957114456251613  0.9685945672749612  1.0000
  C   C41       1.0  0.3989452000986414  0.47413066959838435  0.8889046273603817  1.0000
  H   H18       1.0  0.049682662043022636  0.4051743306089697  0.3776854991095493  1.0000
  H   H19       1.0  0.7934546954503322  0.3575716413122385  0.26613252041881386  1.0000
  H   H20       1.0  0.7935703890751551  0.3607442229830841  0.8486935546126002  1.0000
  H   H21       1.0  0.0009785184067419032  0.39697398820702107  0.05131374720799787  1.0000
  H   H22       1.0  0.9321827477927758  0.38426195838096167  0.6068796301761195  1.0000
  H   H23       1.0  0.7014558155660906  0.199984913018298  0.9156401512328795  1.0000
  H   H24       1.0  0.5648709043748469  0.17687773871867216  0.9186476311376236  1.0000
  H   H25       1.0  0.5434677345491316  0.4561063952928803  0.20851394112698587  1.0000
  H   H26       1.0  0.6798783104061108  0.48164241141519576  0.20436077730854163  1.0000
  H   H27       1.0  0.4454552750212612  0.20081691969912074  0.04228107853368979  1.0000
  H   H28       1.0  0.4365562887344327  0.3169225933006545  0.1630805641414248  1.0000
  H   H29       1.0  0.3746013928862071  0.5429790149501074  0.8189438272469207  1.0000
  Zn  Zn1       1.0  0.8196948899226827  0.3828274890470056  0.5554290761198553  1.0000
  Zn  Zn2       1.0  0.9843239569907386  0.37502287156423586  0.5530092643801054  1.0000
  C   C42       1.0  0.9020645434925434  0.3736831673488974  0.7914280612057731  1.0000
  C   C43       1.0  0.9019561014987256  0.38416874658927463  0.31701038037244444  1.0000
  C   C44       1.0  0.9020520407884126  0.6161148458340283  0.549048170447582  1.0000
  C   C45       1.0  0.9019685477523753  0.1417355104728626  0.5593903411715397  1.0000
  O   O1        1.0  0.9644420967339349  0.38292396735932477  0.36448077386538946  1.0000
  O   O2        1.0  0.9645282006372835  0.36900344289936354  0.7421207127083478  1.0000
  O   O3        1.0  0.9645172626492775  0.5647701287789497  0.5463972484462669  1.0000
  O   O4        1.0  0.9644529785246837  0.18715729346116228  0.5602041415731092  1.0000
  O   O5        1.0  0.8395658122089157  0.5706930698148277  0.5482341997457831  1.0000
  O   O6        1.0  0.8395767504675807  0.37492794423127096  0.7439575947858921  1.0000
  O   O7        1.0  0.8394906462492551  0.388848423885615  0.3663160944513313  1.0000
  O   O8        1.0  0.8395015280574394  0.1930817406707775  0.5620395595323444  1.0000
