data_image0
_chemical_formula_structural       NC5NC3H4C6ClH5C6NH7Zn2C4O8
_chemical_formula_sum              "N3 C24 H16 Cl1 Zn2 O8"
_cell_length_a       13.859018345313864
_cell_length_b       9.276545438789551
_cell_length_c       9.274774538082514
_cell_angle_alpha    85.10039089897613
_cell_angle_beta     90.34966595504997
_cell_angle_gamma    89.40960550048821

_space_group_name_H-M_alt    "P 1"
_space_group_IT_number       1

loop_
  _space_group_symop_operation_xyz
  'x, y, z'

loop_
  _atom_site_type_symbol
  _atom_site_label
  _atom_site_symmetry_multiplicity
  _atom_site_fract_x
  _atom_site_fract_y
  _atom_site_fract_z
  _atom_site_occupancy
  N   N1        1.0  0.8911126954506654  0.5919033315003639  0.4089835253548635  1.0000
  C   C1        1.0  0.8192434272864816  0.5519200148963732  0.4602767532579617  1.0000
  C   C2        1.0  0.7298422414232667  0.5021861240687853  0.5240787059482364  1.0000
  C   C3        1.0  0.6416386456489271  0.5506708398254436  0.4618796157236065  1.0000
  C   C4        1.0  0.5546119384342854  0.5021858347558759  0.5240785800738559  1.0000
  C   C5        1.0  0.4640035480345771  0.5519199030719988  0.46027665576084975  1.0000
  N   N2        1.0  0.39116379284045105  0.5919032982077908  0.4089834562245167  1.0000
  C   C6        1.0  0.555971481491787  0.4052017723716992  0.6484952444487504  1.0000
  C   C7        1.0  0.6439902711662212  0.3569036955870193  0.7104549776816285  1.0000
  C   C8        1.0  0.7308368238551682  0.4052020657203291  0.6484954485272236  1.0000
  H   H1        1.0  0.6407275290601346  0.6257391488853785  0.36557777100091204  1.0000
  H   H2        1.0  0.48913916591011913  0.3670393467680415  0.6974517533340754  1.0000
  H   H3        1.0  0.6448994760316485  0.28198778710451733  0.8065615040392882  1.0000
  H   H4        1.0  0.7985954256882588  0.367039872950381  0.6974521794690047  1.0000
  C   C9        1.0  0.1440539599615799  0.1684702207686848  0.408745598633548  1.0000
  C   C10       1.0  0.14385788924923748  0.2532808699639766  0.2755361626067121  1.0000
  C   C11       1.0  0.13489558547776093  0.18933543069804104  0.14522605416366474  1.0000
  C   C12       1.0  0.12592168148843985  0.03973650526858008  0.14612059270835065  1.0000
  C   C13       1.0  0.12759610277751032  0.9534087173091993  0.27688496777412475  1.0000
  C   C14       1.0  0.1382318951685102  0.015325200075055  0.4092339070240085  1.0000
  Cl  Cl1       1.0  0.13345371548296026  0.29739061520773213  0.9804609863369551  1.0000
  H   H5        1.0  0.194358481605738  0.42945473363361547  0.6356489865559827  1.0000
  H   H6        1.0  0.1483670546435052  0.37002629977409196  0.27267876866355123  1.0000
  H   H7        1.0  0.11856592891364537  0.9898921994529915  0.045304911825087224  1.0000
  H   H8        1.0  0.12286767852296542  0.837171346204855  0.2742311101436026  1.0000
  H   H9        1.0  0.10686984123922126  0.7145588374080346  0.6426071037093715  1.0000
  C   C15       1.0  0.13938592388868476  0.5955856483166815  0.9851755582998702  1.0000
  C   C16       1.0  0.20717120356127317  0.6806768386630704  0.051961124314531475  1.0000
  C   C17       1.0  0.2793669326143917  0.7538902291975207  0.9712384149827074  1.0000
  C   C18       1.0  0.28436389679318297  0.7423444784897152  0.8222543421193502  1.0000
  C   C19       1.0  0.21686634510366498  0.6604297219620967  0.753768045033862  1.0000
  C   C20       1.0  0.14289989959261784  0.5882096935975085  0.8328039314237579  1.0000
  N   N3        1.0  0.34826129241373693  0.838780815064557  0.041029110375207185  1.0000
  H   H10       1.0  0.9970962694029809  0.31371309368215905  0.11093335943443929  1.0000
  H   H11       1.0  0.20538733806631249  0.6875155333210109  0.1679851969831787  1.0000
  H   H12       1.0  0.3401100313456264  0.7980549854106707  0.7587556885615809  1.0000
  H   H13       1.0  0.22119655425215146  0.6564188151792643  0.6375926824333331  1.0000
  H   H14       1.0  0.044069276792722864  0.4027482780287835  0.5666152230146575  1.0000
  H   H15       1.0  0.34539718947877285  0.8478231262705038  0.1524042472690068  1.0000
  H   H16       1.0  0.4026225352467705  0.8933574123890716  0.9818184877825414  1.0000
  Zn  Zn1       1.0  0.0354167000798915  0.5918993788772866  0.408991846762097  1.0000
  Zn  Zn2       1.0  0.24685989518102125  0.5918953137406306  0.40898698179391757  1.0000
  C   C21       1.0  0.14227302768755437  0.5838596148702645  0.6725807087576103  1.0000
  C   C22       1.0  0.14000586460573627  0.5999368958260991  0.14539826244741993  1.0000
  C   C23       1.0  0.1393035615964077  0.8553015951440357  0.4033904421017649  1.0000
  C   C24       1.0  0.14297527077525762  0.32849318248386217  0.4145886050507186  1.0000
  O   O1        1.0  0.2204555562170023  0.6013893808818187  0.19916861575456069  1.0000
  O   O2        1.0  0.2223038344516739  0.5824029603014977  0.6188062469709423  1.0000
  O   O3        1.0  0.2199048775553203  0.8015957791871275  0.4014332029699299  1.0000
  O   O4        1.0  0.2228544404425905  0.3821965732541319  0.4165415515509898  1.0000
  O   O5        1.0  0.05942208266309466  0.8015981193668081  0.4014372769990946  1.0000
  O   O6        1.0  0.06182102732584683  0.5824070335526668  0.6188102450467237  1.0000
  O   O7        1.0  0.05997274230732107  0.601393418984634  0.19917087862123628  1.0000
  O   O8        1.0  0.06237162704844734  0.38220060010202683  0.41654392261631856  1.0000
