data_image0
_chemical_formula_structural       NC6NC3H6C10H6C6F3H5Zn2C4O8
_chemical_formula_sum              "N2 C29 H17 F3 Zn2 O8"
_cell_length_a       14.934028789175542
_cell_length_b       9.275150299802176
_cell_length_c       9.272721663655245
_cell_angle_alpha    85.5566990303468
_cell_angle_beta     90.49150437083568
_cell_angle_gamma    89.44625895822752

_space_group_name_H-M_alt    "P 1"
_space_group_IT_number       1

loop_
  _space_group_symop_operation_xyz
  'x, y, z'

loop_
  _atom_site_type_symbol
  _atom_site_label
  _atom_site_symmetry_multiplicity
  _atom_site_fract_x
  _atom_site_fract_y
  _atom_site_fract_z
  _atom_site_occupancy
  N   N1        1.0  0.8254567366288552  0.5693931503235794  0.4000359405220742  1.0000
  C   C1        1.0  0.7479730683763274  0.5682907246280038  0.3993631322524249  1.0000
  C   C2        1.0  0.6515794917742899  0.5669142393526332  0.39852325804555716  1.0000
  C   C3        1.0  0.603585769200156  0.6741152414625422  0.463826185824076  1.0000
  C   C4        1.0  0.5100764265048331  0.6730100254171045  0.46315279929201  1.0000
  C   C5        1.0  0.4636481404868899  0.5647585160052717  0.39721001146204094  1.0000
  C   C6        1.0  0.3669973718543138  0.5670811685955315  0.3986261754781779  1.0000
  N   N2        1.0  0.28951328535616766  0.568924488069867  0.39975040861207256  1.0000
  C   C7        1.0  0.5116394872917424  0.45607440841638897  0.3310030768871768  1.0000
  C   C8        1.0  0.4635770295490191  0.338382522603893  0.25931079039694294  1.0000
  C   C9        1.0  0.605777465853493  0.45830739127185  0.33236338056550196  1.0000
  H   H1        1.0  0.638447915912757  0.758579690441737  0.5152794249980689  1.0000
  H   H2        1.0  0.4738600299036474  0.7568239748558505  0.5142096341828273  1.0000
  H   H3        1.0  0.4200580767225795  0.386986852975033  0.1703996129486569  1.0000
  H   H4        1.0  0.4216319071107924  0.27594912465935884  0.3398044540991365  1.0000
  H   H5        1.0  0.5112002094321982  0.26215175264462753  0.21286735692634973  1.0000
  H   H6        1.0  0.6434845197606415  0.3756084187796731  0.28198603917457765  1.0000
  C   C10       1.0  0.05986538109830142  0.14546419685673828  0.40230567590443767  1.0000
  C   C11       1.0  0.10634819416625119  0.22686715728697449  0.29318684592252753  1.0000
  C   C12       1.0  0.14512084385149057  0.16004568170435052  0.17852893724702645  1.0000
  C   C13       1.0  0.1378023742260243  0.01084680892816681  0.17151307876687416  1.0000
  C   C14       1.0  0.09327086816132124  0.9279944599515486  0.27998265663109656  1.0000
  C   C15       1.0  0.05511334843582858  0.9928423497508452  0.39749318796515287  1.0000
  C   C16       1.0  0.19160065452153618  0.245177014653384  0.06691587209367644  1.0000
  C   C17       1.0  0.2305160300269541  0.3164770254799063  0.9734724719965322  1.0000
  C   C18       1.0  0.27608412743433197  0.3999743041946624  0.8640543258182736  1.0000
  C   C19       1.0  0.31499199897033076  0.4712689392982279  0.7706288381912936  1.0000
  H   H7        1.0  0.018679104559667696  0.4090934840210969  0.6313072256677696  1.0000
  H   H8        1.0  0.11066290039916549  0.343323459764643  0.2954117740324267  1.0000
  H   H9        1.0  0.16732528700891988  0.9581822215026097  0.08279224252254136  1.0000
  H   H10       1.0  0.09049777797802666  0.8119628377527756  0.27375899389346303  1.0000
  H   H11       1.0  0.9988349182405221  0.8643194251148216  0.7401256299639258  1.0000
  H   H12       1.0  0.3491563562368898  0.5338716824816381  0.6885935435812853  1.0000
  C   C20       1.0  0.055133309547052325  0.5668155173186111  0.9764709525058248  1.0000
  C   C21       1.0  0.09390506380950779  0.44876269683440045  0.05984007590182761  1.0000
  C   C22       1.0  0.1404769367280877  0.3392841503422667  0.9945282860850231  1.0000
  C   C23       1.0  0.14554442691115876  0.34592302687511456  0.8433375928754945  1.0000
  C   C24       1.0  0.1062588340084327  0.46097240790626337  0.7590175544481204  1.0000
  C   C25       1.0  0.05984546857984417  0.5714910782549749  0.8233278838695766  1.0000
  F   F1        1.0  0.20943445711933495  0.2535923587919373  0.2175527287822612  1.0000
  F   F2        1.0  0.2512252467997666  0.1519378526083761  0.016751585996382268  1.0000
  F   F3        1.0  0.11435676619041607  0.1079010987540785  0.10924246459369248  1.0000
  H   H13       1.0  0.9964469845291477  0.9104489722063  0.05077400813059407  1.0000
  H   H14       1.0  0.08946272183900425  0.44364131191773915  0.17671757199912452  1.0000
  H   H15       1.0  0.17911631383320825  0.2611333762064645  0.7898907212010964  1.0000
  H   H16       1.0  0.11009328570849547  0.4614299881514298  0.6423579552191558  1.0000
  H   H17       1.0  0.8977911234405195  0.8150072429857211  0.7007538400074416  1.0000
  Zn  Zn1       1.0  0.9593735139101576  0.5692540841325775  0.39996188445657266  1.0000
  Zn  Zn2       1.0  0.1555966700142337  0.5690518005571581  0.39983632049719353  1.0000
  C   C26       1.0  0.0589849872457657  0.5648594088498118  0.6632864531925183  1.0000
  C   C27       1.0  0.05598733000781574  0.5734482948919484  0.13651188157527616  1.0000
  C   C28       1.0  0.05597502545389751  0.8326381442274997  0.3926569297757274  1.0000
  C   C29       1.0  0.05899723499130213  0.30566782653703406  0.4071414917544341  1.0000
  O   O1        1.0  0.13073964749107736  0.5755912555278964  0.1901754642431781  1.0000
  O   O2        1.0  0.1331615087450759  0.5625618289132913  0.6095271614905083  1.0000
  O   O3        1.0  0.1307299310417488  0.7787965535676851  0.39099189870485934  1.0000
  O   O4        1.0  0.13317115757727893  0.35935654066691275  0.40871061889934884  1.0000
  O   O5        1.0  0.9817989593857286  0.7789493440933817  0.3910875860896732  1.0000
  O   O6        1.0  0.9842305269360532  0.5627163524867733  0.6096227621482104  1.0000
  O   O7        1.0  0.9818086563773473  0.575745719251382  0.1902693315854358  1.0000
  O   O8        1.0  0.9842401671192901  0.3595109946675472  0.4088045944063403  1.0000
