data_image0
_chemical_formula_structural       NC8NH4C6NCH9C9H8Zn2C4O8
_chemical_formula_sum              "N3 C28 H21 Zn2 O8"
_cell_length_a       13.859017124695912
_cell_length_b       9.273386996610926
_cell_length_c       9.275155815604961
_cell_angle_alpha    85.96204841331945
_cell_angle_beta     90.3574901998649
_cell_angle_gamma    89.39861590222965

_space_group_name_H-M_alt    "P 1"
_space_group_IT_number       1

loop_
  _space_group_symop_operation_xyz
  'x, y, z'

loop_
  _atom_site_type_symbol
  _atom_site_label
  _atom_site_symmetry_multiplicity
  _atom_site_fract_x
  _atom_site_fract_y
  _atom_site_fract_z
  _atom_site_occupancy
  N   N1        1.0  0.8909481405321843  0.5651551860603568  0.4076695510651618  1.0000
  C   C1        1.0  0.8185232902336067  0.5418039954984313  0.3515496875490802  1.0000
  C   C2        1.0  0.72843107855489  0.5127585229468756  0.28174378922862897  1.0000
  C   C3        1.0  0.6409011824079599  0.5410749057395856  0.3497957563006202  1.0000
  C   C4        1.0  0.5532007476906305  0.5127597442206625  0.28174320796969843  1.0000
  C   C5        1.0  0.5532125847838304  0.4561205173174119  0.14561780185407258  1.0000
  C   C6        1.0  0.6405602501385739  0.42791297045612064  0.07782778528372347  1.0000
  C   C7        1.0  0.7280779650301262  0.45611817716609043  0.14561898395316408  1.0000
  C   C8        1.0  0.46328344295004875  0.5418049180946813  0.3515491880572521  1.0000
  N   N2        1.0  0.3909992629628333  0.5651555069254675  0.407669334546539  1.0000
  H   H1        1.0  0.6410332173697112  0.5849158624417718  0.45516008054010565  1.0000
  H   H2        1.0  0.48585001190070537  0.43383443895595775  0.09205345085743355  1.0000
  H   H3        1.0  0.6404285433185112  0.3841615502708151  0.9726768403598811  1.0000
  H   H4        1.0  0.795306268778007  0.43383000592946036  0.09205563554220109  1.0000
  C   C9        1.0  0.14394836713477252  0.1415074763196833  0.4083776687859091  1.0000
  C   C10       1.0  0.1603540275044173  0.22386030377766114  0.2780655729824293  1.0000
  C   C11       1.0  0.16767467307999606  0.15823456692037174  0.1477454253955479  1.0000
  C   C12       1.0  0.15869479809557685  0.007905117964872586  0.14440539020861176  1.0000
  C   C13       1.0  0.14398766546347996  0.9245854770084895  0.27426481034674666  1.0000
  C   C14       1.0  0.13800837653337572  0.9887922323045683  0.406973747126139  1.0000
  N   N3        1.0  0.16518869070423658  0.9372197734718497  0.011394654651981858  1.0000
  C   C15       1.0  0.18068359312143967  0.013904497380668566  0.8707530104317218  1.0000
  H   H5        1.0  0.16463539197674892  0.4056909162746545  0.6449932266665548  1.0000
  H   H6        1.0  0.16526816024355262  0.3404909657395755  0.2762973941404274  1.0000
  H   H7        1.0  0.1794398470215799  0.2259932030900602  0.04984851834998216  1.0000
  H   H8        1.0  0.13942396782963493  0.8081648146695622  0.27199121162380346  1.0000
  H   H9        1.0  0.17498008702792012  0.8604548053727706  0.7580019954748554  1.0000
  H   H10       1.0  0.15837936160917532  0.8248783962941691  0.014383261994702409  1.0000
  H   H11       1.0  0.12076432415584004  0.09226226231596923  0.845712142914147  1.0000
  H   H12       1.0  0.25052336257046814  0.07145829812607737  0.870985548302862  1.0000
  H   H13       1.0  0.18276472665395396  0.9357327620982627  0.7854311287239804  1.0000
  C   C16       1.0  0.13923604214738017  0.5615032908175897  0.984450502022427  1.0000
  C   C17       1.0  0.06326061566587281  0.6317987186421521  0.05214892236259927  1.0000
  C   C18       1.0  0.9936808453425696  0.7116820948593318  0.9707318126547988  1.0000
  C   C19       1.0  0.9987848031420227  0.7229428138578751  0.8201313541051286  1.0000
  C   C20       1.0  0.07282396883650086  0.6518722714161014  0.7507258541023334  1.0000
  C   C21       1.0  0.1427207018635699  0.568796391199982  0.830900841487936  1.0000
  C   C22       1.0  0.9272309846823052  0.8061966449400143  0.73639604190922  1.0000
  C   C23       1.0  0.8673175265391065  0.8759103590598987  0.666252503430719  1.0000
  C   C24       1.0  0.7946233133644577  0.9604961639006669  0.5811337028323562  1.0000
  H   H14       1.0  0.3640126090814686  0.44510755232444826  0.0976011312453482  1.0000
  H   H15       1.0  0.058953694614173324  0.6277996411022571  0.16894708864326557  1.0000
  H   H16       1.0  0.936360811465012  0.7659058409134775  0.02545501597155297  1.0000
  H   H17       1.0  0.07455920075375722  0.6586561018891854  0.6335683166832116  1.0000
  H   H18       1.0  0.292741648895903  0.48525107725538547  0.5574568310402754  1.0000
  H   H19       1.0  0.8142016122390997  0.964641202093693  0.4651278389610769  1.0000
  H   H20       1.0  0.7231202323397672  0.9091232445285686  0.5962451368604071  1.0000
  H   H21       1.0  0.7914004231210485  0.07189280529493125  0.6174538460975914  1.0000
  Zn  Zn1       1.0  0.03525215706021845  0.5651514986792083  0.4076778221679376  1.0000
  Zn  Zn2       1.0  0.2466953699663359  0.5651475277707732  0.40767290367211895  1.0000
  C   C25       1.0  0.14210017993675828  0.5616706358456984  0.6709131610160552  1.0000
  C   C26       1.0  0.13984964386421672  0.5686302120586502  0.14443770321033145  1.0000
  C   C27       1.0  0.13910256724260672  0.8285879078891905  0.40149593411129403  1.0000
  C   C28       1.0  0.14284719687522673  0.3017112073989585  0.41385500982657253  1.0000
  O   O1        1.0  0.22029721568166605  0.5710142711409973  0.19812901331550203  1.0000
  O   O2        1.0  0.22213312017405107  0.5592824710253725  0.6172177048130811  1.0000
  O   O3        1.0  0.21971143448783548  0.7748215567624999  0.39966138545547514  1.0000
  O   O4        1.0  0.22271882869941573  0.35547519479429535  0.41568522459588286  1.0000
  O   O5        1.0  0.059228626171905274  0.7748238316585458  0.3996655012382684  1.0000
  O   O6        1.0  0.061650299386028395  0.5592864785404786  0.6172217408784895  1.0000
  O   O7        1.0  0.05981438817677409  0.5710182134532089  0.19813131669554873  1.0000
  O   O8        1.0  0.06223600170775634  0.35547912771894197  0.41568763604725034  1.0000
