data_image0
_chemical_formula_structural       NC9NC3NH7C6NCOCH7C6OCH7Zn2C4O8
_chemical_formula_sum              "N4 C31 H21 O10 Zn2"
_cell_length_a       16.053384444249904
_cell_length_b       10.300268703208214
_cell_length_c       9.27389158865715
_cell_angle_alpha    86.07587478402297
_cell_angle_beta     89.48625385378584
_cell_angle_gamma    89.1549403880511

_space_group_name_H-M_alt    "P 1"
_space_group_IT_number       1

loop_
  _space_group_symop_operation_xyz
  'x, y, z'

loop_
  _atom_site_type_symbol
  _atom_site_label
  _atom_site_symmetry_multiplicity
  _atom_site_fract_x
  _atom_site_fract_y
  _atom_site_fract_z
  _atom_site_occupancy
  N   N1        1.0  0.7892803961404083  0.39081040319150095  0.4067938079012135  1.0000
  C   C1        1.0  0.7388017929895421  0.3693179708708887  0.32372281966713445  1.0000
  C   C2        1.0  0.6760705561195665  0.34261357250832397  0.2205284016151028  1.0000
  C   C3        1.0  0.6901652109217798  0.3293462283544897  0.07543192911754315  1.0000
  C   C4        1.0  0.6137364810648375  0.30354474860019254  0.01743738198153766  1.0000
  C   C5        1.0  0.5562723197501214  0.3025059893232507  0.13027946816946254  1.0000
  C   C6        1.0  0.4656624773580698  0.2785926364877982  0.11890694517271938  1.0000
  C   C7        1.0  0.4094159246063784  0.3221580228241432  0.22313113410395724  1.0000
  C   C8        1.0  0.3239081319544453  0.2994775597179775  0.21223840543666128  1.0000
  C   C9        1.0  0.2668725028446185  0.3448093026649395  0.3190950925469631  1.0000
  N   N2        1.0  0.221032576158566  0.3812496178099136  0.4049911347976013  1.0000
  C   C10       1.0  0.2939208376914721  0.23311985723521977  0.09713670455672907  1.0000
  C   C11       1.0  0.3491580429380179  0.18967600553108624  0.9931474397113007  1.0000
  C   C12       1.0  0.4344613472621651  0.21218714110492815  0.003600014224457214  1.0000
  N   N3        1.0  0.5950506868881684  0.32649257434521517  0.25409063282664235  1.0000
  H   H1        1.0  0.7490851373148328  0.3375108577373047  0.018144982267090718  1.0000
  H   H2        1.0  0.6018465944019414  0.2888509360754825  0.9051461666992288  1.0000
  H   H3        1.0  0.4314320728846666  0.37534038089300853  0.3116966491719919  1.0000
  H   H4        1.0  0.2279332500448189  0.2150773875106553  0.08777775121191334  1.0000
  H   H5        1.0  0.3258520368253159  0.13813318766408725  0.9043223756640816  1.0000
  H   H6        1.0  0.4758545316188655  0.1760779522368439  0.92230475354391  1.0000
  H   H7        1.0  0.5685493718269025  0.32970470047726996  0.3570410600425683  1.0000
  C   C13       1.0  0.005245073251793907  0.004680491200835591  0.40590060802161115  1.0000
  C   C14       1.0  0.019773455903549626  0.012527573094823993  0.2560087895193099  1.0000
  C   C15       1.0  0.02822977264437765  0.899158697694038  0.18078136271136833  1.0000
  C   C16       1.0  0.01958487386791008  0.7773725223513822  0.2560455352385367  1.0000
  C   C17       1.0  0.005075800252021036  0.7673695227069465  0.4058967296264411  1.0000
  C   C18       1.0  0.9982958409476074  0.8816118942978354  0.48011940544180676  1.0000
  N   N4        1.0  0.04180830369120514  0.9056282297426228  0.026961743604902326  1.0000
  C   C19       1.0  0.090966130461416  0.003018117024238712  0.9493073645926269  1.0000
  O   O1        1.0  0.13779198185959451  0.07551738641570262  0.01567168314870737  1.0000
  C   C20       1.0  0.09152150547760507  0.012579993115251495  0.7878398718061022  1.0000
  H   H8        1.0  0.022864001147935076  0.1068319850405113  0.19735855783108347  1.0000
  H   H9        1.0  0.02494676542370144  0.6904122073904726  0.19702215746092366  1.0000
  H   H10       1.0  0.9871132182563839  0.8747499084911912  0.5957326573334973  1.0000
  H   H11       1.0  0.01904796744188952  0.8302376879291782  0.9691425387827906  1.0000
  H   H12       1.0  0.02789181815605768  0.9966219540317487  0.7472409208580562  1.0000
  H   H13       1.0  0.11231125541133746  0.11043810090347383  0.7457241657317502  1.0000
  H   H14       1.0  0.13465010045457593  0.9375770835613613  0.747982255513362  1.0000
  C   C21       1.0  0.006526007242714905  0.3825554652645249  0.9826176635575155  1.0000
  C   C22       1.0  0.07473940130825829  0.4358954230122838  0.05090622536145494  1.0000
  C   C23       1.0  0.1382250611969713  0.4990370999662106  0.9708310227026278  1.0000
  C   C24       1.0  0.1337243236126815  0.5091591934714754  0.8194091416655298  1.0000
  C   C25       1.0  0.06726137141903932  0.4549941637230064  0.7497710781046995  1.0000
  C   C26       1.0  0.003794861792518089  0.389494478657388  0.829179666311608  1.0000
  O   O2        1.0  0.2041636423173261  0.5508285404822081  0.045761999799076566  1.0000
  C   C27       1.0  0.27275239694620423  0.6176532368342262  0.9783988421638021  1.0000
  H   H15       1.0  0.8083835616083609  0.30718305373675264  0.09446268001380731  1.0000
  H   H16       1.0  0.18170440626314943  0.5576854208737962  0.754286378579262  1.0000
  H   H17       1.0  0.06658767096431739  0.4617019589726934  0.6326926747284052  1.0000
  H   H18       1.0  0.8716614010490007  0.3335733638528353  0.5542890644554634  1.0000
  H   H19       1.0  0.250369898229303  0.7060272072184053  0.9140961904454791  1.0000
  H   H20       1.0  0.3075036173202039  0.5524336722799882  0.9078414647618519  1.0000
  H   H21       1.0  0.31539128717307574  0.6477492796711541  0.06306417201528336  1.0000
  Zn  Zn1       1.0  0.913874720602667  0.38804797187042883  0.40628191169513883  1.0000
  Zn  Zn2       1.0  0.09643819257809197  0.38400156583275646  0.4055148118015785  1.0000
  C   C28       1.0  0.004310410184964037  0.3830095207495303  0.669161373041012  1.0000
  C   C29       1.0  0.006004495763184405  0.38904161246280644  0.14263548354559671  1.0000
  C   C30       1.0  0.00512205045337022  0.6231580557549375  0.4001535746049367  1.0000
  C   C31       1.0  0.005192793296954214  0.1488915192449294  0.4116433590992259  1.0000
  O   O3        1.0  0.07511135918102974  0.3896771672580444  0.1960478153312999  1.0000
  O   O4        1.0  0.0737649993213112  0.37930185432545666  0.6151664152591676  1.0000
  O   O5        1.0  0.07441947031438367  0.5732248664207344  0.39794071866475694  1.0000
  O   O6        1.0  0.07445682623801764  0.1957541649474064  0.41327340411136654  1.0000
  O   O7        1.0  0.9358560246428121  0.5762953741379705  0.39852331963954213  1.0000
  O   O8        1.0  0.9352015535476349  0.382373921637353  0.6157489393705915  1.0000
  O   O9        1.0  0.9365479190636946  0.39274917511010043  0.19662860644551383  1.0000
  O   O10       1.0  0.9358933857706934  0.19882616439701328  0.41385430329411643  1.0000
