data_image0
_chemical_formula_structural       NC8NH4C6NH7C9H9Zn2C4O8
_chemical_formula_sum              "N3 C27 H20 Zn2 O8"
_cell_length_a       11.048855714531884
_cell_length_b       9.274771166103582
_cell_length_c       9.273585224739811
_cell_angle_alpha    86.03363261937257
_cell_angle_beta     90.102074716351
_cell_angle_gamma    90.59705445283097

_space_group_name_H-M_alt    "P 1"
_space_group_IT_number       1

loop_
  _space_group_symop_operation_xyz
  'x, y, z'

loop_
  _atom_site_type_symbol
  _atom_site_label
  _atom_site_symmetry_multiplicity
  _atom_site_fract_x
  _atom_site_fract_y
  _atom_site_fract_z
  _atom_site_occupancy
  N   N1        1.0  0.15096672097059094  0.5625176312799945  0.4073123109343004  1.0000
  C   C1        1.0  0.09581393795075367  0.5036932057921644  0.32243769670580336  1.0000
  C   C2        1.0  0.02700024605804586  0.43029709062597815  0.2165381341536916  1.0000
  C   C3        1.0  0.8992834891655404  0.43029690103264695  0.21653823621643475  1.0000
  C   C4        1.0  0.8357219146778222  0.3577415685289206  0.11185208574716121  1.0000
  C   C5        1.0  0.8983626274661507  0.2857601483517562  0.007993922348502604  1.0000
  C   C6        1.0  0.024768838958394657  0.28576003842823483  0.007993945211950845  1.0000
  C   C7        1.0  0.08897945431151144  0.3577416667096278  0.11185205785336905  1.0000
  C   C8        1.0  0.8320705175071561  0.5036932806118386  0.3224376834374165  1.0000
  N   N2        1.0  0.7782006075285047  0.562517674254327  0.40731233964521296  1.0000
  H   H1        1.0  0.737649765297997  0.35683300076434943  0.1105405216442188  1.0000
  H   H2        1.0  0.8488559716461131  0.2299296842907144  0.9274397286162928  1.0000
  H   H3        1.0  0.07305801382928913  0.2299297937358833  0.9274397278075446  1.0000
  H   H4        1.0  0.1870317770670753  0.35683295449325964  0.11054079682993945  1.0000
  C   C9        1.0  0.4608749659731524  0.13892904587339117  0.4080979192033981  1.0000
  C   C10       1.0  0.4328201152946477  0.2209314494180572  0.27920942349512035  1.0000
  C   C11       1.0  0.4160640824751543  0.15456742778778976  0.14950318655631922  1.0000
  C   C12       1.0  0.4274248612120706  0.004814007581681377  0.14774597094041653  1.0000
  C   C13       1.0  0.45323885383938395  0.9214742305191376  0.27486391549081995  1.0000
  C   C14       1.0  0.4683039183703108  0.9860952867946967  0.40653924053961893  1.0000
  N   N3        1.0  0.388750586812717  0.2396549718070802  0.019198131633420438  1.0000
  H   H5        1.0  0.5975841733327221  0.22178639774725428  0.7235277233449771  1.0000
  H   H6        1.0  0.4267167539778445  0.3375185460026924  0.27865578414710823  1.0000
  H   H7        1.0  0.4151056141825029  0.952315305189786  0.04795010773142305  1.0000
  H   H8        1.0  0.4585661071211114  0.8052683782388629  0.270736137441088  1.0000
  H   H9        1.0  0.5554810244083439  0.691204090887711  0.621143190638419  1.0000
  H   H10       1.0  0.38041169316211154  0.35172839843476744  0.019151318605423077  1.0000
  H   H11       1.0  0.3765490376946288  0.19119750098904884  0.9217725389085177  1.0000
  C   C15       1.0  0.46391825609039694  0.5582223739450051  0.9840749347750766  1.0000
  C   C16       1.0  0.57164701969391  0.5260957228448637  0.060090824950309825  1.0000
  C   C17       1.0  0.6811275956429079  0.5069517747063459  0.9878656812082811  1.0000
  C   C18       1.0  0.6819022886464697  0.5207454744958129  0.8357810763035016  1.0000
  C   C19       1.0  0.5754431859392577  0.5501600631616614  0.758766456754064  1.0000
  C   C20       1.0  0.465260615339989  0.5668019141743033  0.8305621899174991  1.0000
  C   C21       1.0  0.7930170728761268  0.4738724918109727  0.07944175704623024  1.0000
  C   C22       1.0  0.886788320439581  0.3749010621947838  0.01938591921174781  1.0000
  C   C23       1.0  0.9132954869897083  0.5361845647580865  0.02299305601507284  1.0000
  H   H12       1.0  0.26398138205453603  0.5393848138171962  0.2653938022654396  1.0000
  H   H13       1.0  0.5710094792124999  0.5191343960382135  0.17727314183066367  1.0000
  H   H14       1.0  0.7638760551589387  0.5077121469014503  0.7748707345940713  1.0000
  H   H15       1.0  0.286122390558549  0.6692934026093569  0.541703485383985  1.0000
  H   H16       1.0  0.7849807399400166  0.4645695670088981  0.19922072211788455  1.0000
  H   H17       1.0  0.8701840191487311  0.33778261964879275  0.909876376802402  1.0000
  H   H18       1.0  0.9364263162279216  0.30736483727172703  0.10303147762102727  1.0000
  H   H19       1.0  0.9127357665266218  0.5968594595251215  0.9156622702274864  1.0000
  H   H20       1.0  0.9784147050355908  0.562937585346044  0.10875132757704531  1.0000
  Zn  Zn1       1.0  0.33197286525974673  0.562513858270896  0.4073206464641377  1.0000
  Zn  Zn2       1.0  0.5971944053241984  0.5625097357846119  0.4073158213403534  1.0000
  C   C24       1.0  0.4649537831188882  0.5594337679363903  0.6705685494598737  1.0000
  C   C25       1.0  0.46421639986043717  0.5655916475320759  0.14406805640565135  1.0000
  C   C26       1.0  0.46688433585913924  0.8259045909832676  0.40109042809485973  1.0000
  C   C27       1.0  0.46228574154319074  0.2991190922283846  0.41354625780204857  1.0000
  O   O1        1.0  0.5649665966899651  0.5680569856334301  0.19776139004925608  1.0000
  O   O2        1.0  0.565500588189191  0.5569642085747677  0.616871140766392  1.0000
  O   O3        1.0  0.5670581795059368  0.7721427833792824  0.3992656484268261  1.0000
  O   O4        1.0  0.5634089147901888  0.3528784200537204  0.41536677430497204  1.0000
  O   O5        1.0  0.3657582652866631  0.7721451740046885  0.39926969349358155  1.0000
  O   O6        1.0  0.36420068903981906  0.5569683314598877  0.6168751057958266  1.0000
  O   O7        1.0  0.36366669443236477  0.5680610406892972  0.19776362232702183  1.0000
  O   O8        1.0  0.3621090126085256  0.3528824658876824  0.41536911466065  1.0000
