data_image0
_chemical_formula_structural       NC9NC5H8C6NCOH7C7H8Zn2C4O8
_chemical_formula_sum              "N3 C32 H23 O9 Zn2"
_cell_length_a       17.807436237873137
_cell_length_b       10.29961932979008
_cell_length_c       9.274345330872308
_cell_angle_alpha    85.12981543555203
_cell_angle_beta     88.93938532988027
_cell_angle_gamma    88.41592915749165

_space_group_name_H-M_alt    "P 1"
_space_group_IT_number       1

loop_
  _space_group_symop_operation_xyz
  'x, y, z'

loop_
  _atom_site_type_symbol
  _atom_site_label
  _atom_site_symmetry_multiplicity
  _atom_site_fract_x
  _atom_site_fract_y
  _atom_site_fract_z
  _atom_site_occupancy
  N   N1        1.0  0.7142070508807469  0.3984861493820108  0.3966350288165148  1.0000
  C   C1        1.0  0.6536595076593559  0.36337913666136545  0.3843797999616203  1.0000
  C   C2        1.0  0.5783450186970547  0.319709879150452  0.369135625930775  1.0000
  C   C3        1.0  0.5607032241770639  0.24907847464873686  0.25243385556319287  1.0000
  C   C4        1.0  0.48757708049369697  0.20656811333234004  0.23754090451775925  1.0000
  C   C5        1.0  0.4310440591402376  0.23431187470544312  0.3393136170719553  1.0000
  C   C6        1.0  0.353329482894599  0.18924861200650445  0.323577492227235  1.0000
  C   C7        1.0  0.2910587710412619  0.27081017321167766  0.35241352306812423  1.0000
  C   C8        1.0  0.2177902085709117  0.22809667507507211  0.3375357538280652  1.0000
  C   C9        1.0  0.1544684857247609  0.3123468335892674  0.36677650355758296  1.0000
  N   N2        1.0  0.10357081056618142  0.38007812412508707  0.39028525831634897  1.0000
  C   C10       1.0  0.2062088589030609  0.10356382879611692  0.29379375288668164  1.0000
  C   C11       1.0  0.2676222347355147  0.021988478037410213  0.26494839670135684  1.0000
  C   C12       1.0  0.34077216554927436  0.06430895079948407  0.27960103312764617  1.0000
  C   C13       1.0  0.4493764093923733  0.3054360039474908  0.456259081000632  1.0000
  C   C14       1.0  0.5225560688765982  0.347757133865783  0.47097902999958313  1.0000
  H   H1        1.0  0.6034120697854296  0.2271280368123851  0.1727341177525461  1.0000
  H   H2        1.0  0.47502030030424724  0.15350464835028022  0.14538213684628465  1.0000
  H   H3        1.0  0.299452868192199  0.3680582900440943  0.3845165416062635  1.0000
  H   H4        1.0  0.1497822086078372  0.0696072841133395  0.2820154608012917  1.0000
  H   H5        1.0  0.2585353595887517  0.9255693933254338  0.2315114043657971  1.0000
  H   H6        1.0  0.3874808058149727  0.9987069308925923  0.2584244919013623  1.0000
  H   H7        1.0  0.4073785311255276  0.32683775414759975  0.537397386542128  1.0000
  H   H8        1.0  0.5356461615901482  0.40204892738427445  0.5619803318702696  1.0000
  C   C15       1.0  0.9087930206740887  0.007918458330124617  0.3934241621855199  1.0000
  C   C16       1.0  0.8730972819239767  0.01862814811418012  0.2589360099057667  1.0000
  C   C17       1.0  0.8562358394512642  0.9072498581551987  0.19015388536382316  1.0000
  C   C18       1.0  0.8733205813307361  0.7834583684314571  0.25904346695301106  1.0000
  C   C19       1.0  0.9089919357960758  0.7706354634417788  0.39350856727310046  1.0000
  C   C20       1.0  0.9267936582180446  0.8834900670568213  0.4596616584165188  1.0000
  N   N3        1.0  0.8186616553231995  0.9220500556115  0.05356084236780422  1.0000
  C   C21       1.0  0.8309303748761616  0.8375740163294532  0.9398068778426326  1.0000
  O   O1        1.0  0.8836513733602329  0.753315314379293  0.9450141671552156  1.0000
  H   H9        1.0  0.975409394510194  0.19494742188736436  0.647834571507433  1.0000
  H   H10       1.0  0.8587502083624357  0.11377304824082012  0.20627528854204247  1.0000
  H   H11       1.0  0.8574553577770627  0.6971589790352827  0.20938102582674012  1.0000
  H   H12       1.0  0.954319970707159  0.8743581915719753  0.5633288283513005  1.0000
  H   H13       1.0  0.921672108253512  0.43823571715635345  0.4461597751682603  1.0000
  H   H14       1.0  0.7839793522236987  0.0044523039789974295  0.030753039498649274  1.0000
  H   H15       1.0  0.7956443297768659  0.8487656841447508  0.8456120612984801  1.0000
  C   C22       1.0  0.9105928682465979  0.39211660809779403  0.9696364985019134  1.0000
  C   C23       1.0  0.8658821735177874  0.48570701196775423  0.0356357216889891  1.0000
  C   C24       1.0  0.816677043466347  0.569065919058495  0.9544138449913611  1.0000
  C   C25       1.0  0.8104443343858788  0.5598069113340618  0.8055701820225871  1.0000
  C   C26       1.0  0.8563209380259962  0.4698128280090199  0.7375480787098261  1.0000
  C   C27       1.0  0.907192092964409  0.3864372931590532  0.8172961641520606  1.0000
  C   C28       1.0  0.7586866429607246  0.6514683502888161  0.7178956883259726  1.0000
  H   H16       1.0  0.996770673413775  0.10517248024831981  0.0965350664500495  1.0000
  H   H17       1.0  0.8677969984203235  0.49258544899515305  0.15142228804625613  1.0000
  H   H18       1.0  0.7827820350332748  0.6400414287399936  0.00813678328705558  1.0000
  H   H19       1.0  0.8534758658499008  0.4669863755854293  0.6212020777510792  1.0000
  H   H20       1.0  0.967948312315928  0.19581148112090419  0.5523883700213656  1.0000
  H   H21       1.0  0.7893921815187246  0.7401856423443329  0.6782812923170738  1.0000
  H   H22       1.0  0.709389838846458  0.6802529144415002  0.784277582727805  1.0000
  H   H23       1.0  0.7375670093457821  0.6044737709312051  0.6236329832682896  1.0000
  Zn  Zn1       1.0  0.8265689856213219  0.3931704697662277  0.39481096886001676  1.0000
  Zn  Zn2       1.0  0.9912088072643483  0.38538313821997244  0.3921211824287041  1.0000
  C   C29       1.0  0.9078319041460742  0.38233726898401166  0.6570698198336331  1.0000
  C   C30       1.0  0.9099476864604072  0.39621789161187704  0.12986244392230684  1.0000
  C   C31       1.0  0.9089735658607928  0.6265044036140679  0.3877412840450116  1.0000
  C   C32       1.0  0.9088059678499423  0.15204919884321177  0.399191057403699  1.0000
  O   O2        1.0  0.972211110367242  0.3946334024264747  0.1826149743279879  1.0000
  O   O3        1.0  0.9705262967714341  0.3780103767875085  0.6022753881862437  1.0000
  O   O4        1.0  0.9714473547638584  0.5751784556994528  0.3847907039027656  1.0000
  O   O5        1.0  0.9712899966309779  0.19746533618695825  0.40009955131414565  1.0000
  O   O6        1.0  0.8464877400712321  0.5810882744581407  0.3868326008848757  1.0000
  O   O7        1.0  0.8455666827910938  0.3839217563437043  0.6043172083858841  1.0000
  O   O8        1.0  0.8472515033867467  0.4005447483511399  0.18465505927754933  1.0000
  O   O9        1.0  0.8463303892108625  0.2033766720980945  0.40213974447132816  1.0000
