data_image0
_chemical_formula_structural       NC6NC3H6C9H6C7F3H4Zn2C4O8
_chemical_formula_sum              "N2 C29 H16 F3 Zn2 O8"
_cell_length_a       14.934028789175542
_cell_length_b       9.275152443626249
_cell_length_c       10.299327507215196
_cell_angle_alpha    85.35552067985554
_cell_angle_beta     89.95631350132989
_cell_angle_gamma    90.53595971611534

_space_group_name_H-M_alt    "P 1"
_space_group_IT_number       1

loop_
  _space_group_symop_operation_xyz
  'x, y, z'

loop_
  _atom_site_type_symbol
  _atom_site_label
  _atom_site_symmetry_multiplicity
  _atom_site_fract_x
  _atom_site_fract_y
  _atom_site_fract_z
  _atom_site_occupancy
  N   N1        1.0  0.8533233552243544  0.5781556054445016  0.562062698787791  1.0000
  C   C1        1.0  0.7758305918869544  0.5770571906794848  0.561454508137876  1.0000
  C   C2        1.0  0.6794256580699364  0.5756857123525567  0.5606952962117268  1.0000
  C   C3        1.0  0.6323170603368543  0.6824973757169803  0.6197268204642602  1.0000
  C   C4        1.0  0.5387985929759908  0.6813961743904822  0.6191181034116352  1.0000
  C   C5        1.0  0.49147650799820486  0.5735378186175575  0.559508168197687  1.0000
  C   C6        1.0  0.39484490925620264  0.575852028371274  0.5607883258803754  1.0000
  N   N2        1.0  0.3173760345887488  0.5776886455316408  0.5618045882270056  1.0000
  C   C7        1.0  0.5385704876549219  0.46524843933183524  0.4996594557640069  1.0000
  C   C8        1.0  0.48953627755080126  0.34798398628079186  0.4348521741987105  1.0000
  C   C9        1.0  0.6327269029467031  0.46747331201659986  0.5008891217397213  1.0000
  H   H1        1.0  0.667876599919827  0.7666550585431992  0.6662387168492163  1.0000
  H   H2        1.0  0.5032742191143393  0.7649057210112362  0.665271664893453  1.0000
  H   H3        1.0  0.44710993893538586  0.397082398484478  0.35486789659320267  1.0000
  H   H4        1.0  0.44638431987732585  0.2851066940873661  0.507227296962321  1.0000
  H   H5        1.0  0.5365300815763645  0.27203011202901023  0.39286898316418817  1.0000
  H   H6        1.0  0.6697511384335432  0.38507469126239413  0.45534979726487457  1.0000
  C   C10       1.0  0.08271222812089873  0.15429227231098297  0.563261031229483  1.0000
  C   C11       1.0  0.0504352811781632  0.23708110183914588  0.45294338603897644  1.0000
  C   C12       1.0  0.026482202054003423  0.1716811265149718  0.3405553530777266  1.0000
  C   C13       1.0  0.034430065606056326  0.022331848541263348  0.33625966076761116  1.0000
  C   C14       1.0  0.06495622775121963  0.9378567772545534  0.44564580106516677  1.0000
  C   C15       1.0  0.0879957005606708  0.0015408798090643667  0.5606174682800309  1.0000
  C   C16       1.0  0.010196607567546812  0.9552246062878194  0.21987446650364456  1.0000
  C   C17       1.0  0.9899067512744105  0.8990046418606742  0.12242011317452128  1.0000
  C   C18       1.0  0.9652890217432553  0.8307796589854033  0.004176346724496632  1.0000
  H   H7        1.0  0.21131893694720405  0.235774458397763  0.8225659849057103  1.0000
  H   H8        1.0  0.002560637891237509  0.23795788451833055  0.2564547112224161  1.0000
  H   H9        1.0  0.17171165950265754  0.7061299844151252  0.7379757128587483  1.0000
  H   H10       1.0  0.9816556548935004  0.714039496172074  0.016300408077321693  1.0000
  H   H11       1.0  0.8924131292646638  0.8434382910388261  0.9864370274134543  1.0000
  H   H12       1.0  0.003122576569245526  0.8831030339932966  0.9200887778991116  1.0000
  C   C19       1.0  0.08544007464449027  0.5779750675529498  0.18055745405711487  1.0000
  C   C20       1.0  0.17281647042815307  0.635730470436298  0.17505810217506523  1.0000
  C   C21       1.0  0.21625583807176418  0.6673150142264976  0.05498037157342628  1.0000
  C   C22       1.0  0.17259035586774796  0.6355777207702673  0.9398212470683818  1.0000
  C   C23       1.0  0.08526787565268565  0.5778580740240149  0.9433210913063462  1.0000
  C   C24       1.0  0.04206949773317614  0.5499264218305944  0.06415986902758108  1.0000
  C   C25       1.0  0.3112531560863083  0.7244255372893944  0.05048690378085019  1.0000
  F   F1        1.0  0.32741947579470243  0.8086522874118875  0.1531065185980438  1.0000
  F   F2        1.0  0.3696822029614448  0.6093477132465519  0.05868183436080111  1.0000
  F   F3        1.0  0.32717336348086157  0.8086329622766825  0.9354633128313871  1.0000
  H   H13       1.0  0.9211429673376943  0.4665713651312858  0.3983486570475552  1.0000
  H   H14       1.0  0.20728208586048458  0.6559858921710648  0.2643722241600091  1.0000
  H   H15       1.0  0.20690085200787312  0.655724486607703  0.8473592315556969  1.0000
  H   H16       1.0  0.9747236401297287  0.505414681071009  0.06759353614648322  1.0000
  Zn  Zn1       1.0  0.9872389221137499  0.5780169840170772  0.561995719823192  1.0000
  Zn  Zn2       1.0  0.18346042167624624  0.577815448348119  0.5618822221359587  1.0000
  C   C26       1.0  0.08526256426478457  0.5721331774220426  0.7991603526238509  1.0000
  C   C27       1.0  0.08543893357992748  0.5837010729239842  0.3247177098873957  1.0000
  C   C28       1.0  0.08699356557642267  0.841393628567129  0.5559418402456634  1.0000
  C   C29       1.0  0.08370785448765528  0.3144388886315004  0.5679362969531196  1.0000
  O   O1        1.0  0.15990354784830574  0.5855399973147317  0.37305615652026464  1.0000
  O   O2        1.0  0.15972552120571482  0.5701402038899108  0.7507353934094626  1.0000
  O   O3        1.0  0.16112232252713335  0.7875714242765768  0.5543347197532023  1.0000
  O   O4        1.0  0.1585066796561227  0.3681087873314819  0.5694567328050937  1.0000
  O   O5        1.0  0.012192597173117383  0.7877236451040599  0.554421209185952  1.0000
  O   O6        1.0  0.01079580667157676  0.5702941579351377  0.7508218081865705  1.0000
  O   O7        1.0  0.010973833412797998  0.5856939013284961  0.3731410100007  1.0000
  O   O8        1.0  0.009576965130623229  0.3682626810121761  0.5695416836888552  1.0000
