data_image0
_chemical_formula_structural       NC6NC2H4C10H5C6IH3Zn2C4O8
_chemical_formula_sum              "N2 C28 H12 I1 Zn2 O8"
_cell_length_a       14.927258858638513
_cell_length_b       9.275150299802178
_cell_length_c       9.275433903346869
_cell_angle_alpha    85.8435202653109
_cell_angle_beta     89.9656234702017
_cell_angle_gamma    89.48389287567745

_space_group_name_H-M_alt    "P 1"
_space_group_IT_number       1

loop_
  _space_group_symop_operation_xyz
  'x, y, z'

loop_
  _atom_site_type_symbol
  _atom_site_label
  _atom_site_symmetry_multiplicity
  _atom_site_fract_x
  _atom_site_fract_y
  _atom_site_fract_z
  _atom_site_occupancy
  N   N1        1.0  0.8354216380593991  0.562056422962155  0.4016889974557849  1.0000
  C   C1        1.0  0.7578951470467356  0.5620563945519019  0.4016890082012434  1.0000
  C   C2        1.0  0.6614626388797423  0.5620565091730811  0.4016889577116347  1.0000
  C   C3        1.0  0.6145976220500168  0.5370071117434192  0.2751959768745691  1.0000
  C   C4        1.0  0.5208863106206588  0.537007135971501  0.27519584333282054  1.0000
  C   C5        1.0  0.4736465758738177  0.562056331738914  0.4016889773389294  1.0000
  C   C6        1.0  0.3772140007152748  0.5620564463629962  0.40168892684338275  1.0000
  N   N2        1.0  0.29968750970261143  0.562056417952743  0.4016889375888413  1.0000
  C   C7        1.0  0.5205115257119937  0.5871057291714785  0.5281819581700566  1.0000
  C   C8        1.0  0.6142228371413508  0.5871057049433974  0.5281820917118056  1.0000
  H   H1        1.0  0.6504395938339137  0.5175172668727674  0.17677717786630298  1.0000
  H   H2        1.0  0.4853359372192449  0.5175174644494334  0.17677717181339703  1.0000
  H   H3        1.0  0.48466962092697313  0.60659556486957  0.6266008652719532  1.0000
  H   H4        1.0  0.6497732099482121  0.606595475009858  0.6266008726574481  1.0000
  C   C9        1.0  0.06992153045316045  0.1383765336654572  0.40410122472782795  1.0000
  C   C10       1.0  0.11707956758019167  0.21926918125322503  0.2950891007996437  1.0000
  C   C11       1.0  0.156557212385668  0.15190128715764706  0.18053712380613396  1.0000
  C   C12       1.0  0.1492775458964246  0.002659161808003848  0.1735217891303431  1.0000
  C   C13       1.0  0.10407558250259341  0.9203157859427809  0.2818863254832613  1.0000
  C   C14       1.0  0.06519623448022216  0.9857252892344911  0.3992892608767078  1.0000
  C   C15       1.0  0.20372720472394812  0.23650956312745006  0.06903254870624331  1.0000
  C   C16       1.0  0.24322040707979198  0.307371668349645  0.9756799786797914  1.0000
  C   C17       1.0  0.2894651144790761  0.3903561785885215  0.8663681904852631  1.0000
  C   C18       1.0  0.3289507020802352  0.46121299198658305  0.773033515490317  1.0000
  H   H5        1.0  0.1213828601483187  0.33574122020055497  0.2973150886134073  1.0000
  H   H6        1.0  0.17934576074750652  0.9495712775381396  0.08488262706290817  1.0000
  H   H7        1.0  0.10133857766434878  0.8042495626176508  0.2756654138952763  1.0000
  H   H8        1.0  0.006837721258132314  0.8588955921629784  0.741641781126706  1.0000
  H   H9        1.0  0.36362234178295694  0.5234312915835861  0.6910779618918572  1.0000
  C   C19       1.0  0.06774124770323357  0.557547803973669  0.9785684850963218  1.0000
  C   C20       1.0  0.1502780367760982  0.5548467823807512  0.05203867949664254  1.0000
  C   C21       1.0  0.23092289267841695  0.5654407771948231  0.9758597670625475  1.0000
  C   C22       1.0  0.230321808025652  0.5790726302195521  0.8252367102039111  1.0000
  C   C23       1.0  0.14931503013515157  0.5795928439718872  0.7502583786687782  1.0000
  C   C24       1.0  0.06737653591504517  0.5665540008505172  0.8248219637040339  1.0000
  I   I1        1.0  0.35364196175442575  0.563525488070248  0.08865502262283931  1.0000
  H   H10       1.0  0.8537153054348782  0.6430224266466995  0.07557272299697848  1.0000
  H   H11       1.0  0.2927522270825964  0.5878921696234414  0.7659756862339608  1.0000
  H   H12       1.0  0.9228682933252351  0.6180336270947464  0.5400541091810083  1.0000
  Zn  Zn1       1.0  0.9693987658714063  0.5620526441198475  0.40169732791154256  1.0000
  Zn  Zn2       1.0  0.1657104535812307  0.5620485048391575  0.4016924939950115  1.0000
  C   C25       1.0  0.06747553390671923  0.5591040002786025  0.6648946013016945  1.0000
  C   C26       1.0  0.06763581905088345  0.5649989705567346  0.13849535163753623  1.0000
  C   C27       1.0  0.06608730198696505  0.8254972519835424  0.3944569951647401  1.0000
  C   C28       1.0  0.06902399361649404  0.29860398626021856  0.4089330444398107  1.0000
  O   O1        1.0  0.14209973373149554  0.5674917849660059  0.19216647029716571  1.0000
  O   O2        1.0  0.14200765410296468  0.5566069514188341  0.6112194052120727  1.0000
  O   O3        1.0  0.14088563433979895  0.7717228871392356  0.3928391163710294  1.0000
  O   O4        1.0  0.14322168649578515  0.35237585841816554  0.4105466510445779  1.0000
  O   O5        1.0  0.9918874659653013  0.7717252905437422  0.39284317085603804  1.0000
  O   O6        1.0  0.9930094760910616  0.5566110874178196  0.611223373025823  1.0000
  O   O7        1.0  0.9931015568061271  0.5674958522514173  0.19216870603078506  1.0000
  O   O8        1.0  0.9942235095777434  0.35237991653391854  0.41054899486589047  1.0000
