data_image0
_chemical_formula_structural       NC8NH4C6ClH5C7F3H5Zn2C4O8
_chemical_formula_sum              "N2 C25 H14 Cl1 F3 Zn2 O8"
_cell_length_a       14.927258825633057
_cell_length_b       9.276545438789551
_cell_length_c       9.272721663655245
_cell_angle_alpha    85.91497059500672
_cell_angle_beta     90.5161791453222
_cell_angle_gamma    89.40960858786079

_space_group_name_H-M_alt    "P 1"
_space_group_IT_number       1

loop_
  _space_group_symop_operation_xyz
  'x, y, z'

loop_
  _atom_site_type_symbol
  _atom_site_label
  _atom_site_symmetry_multiplicity
  _atom_site_fract_x
  _atom_site_fract_y
  _atom_site_fract_z
  _atom_site_occupancy
  N   N1        1.0  0.8246237101797433  0.5692789367565725  0.41037107826941877  1.0000
  C   C1        1.0  0.7470972860551625  0.5692789103616039  0.41037108790969895  1.0000
  C   C2        1.0  0.6506646446176666  0.5692789103762299  0.4103711430117105  1.0000
  C   C3        1.0  0.603678276172558  0.48047944565797046  0.3205468192220604  1.0000
  C   C4        1.0  0.5099669650331441  0.48047935568032796  0.3205467906942234  1.0000
  C   C5        1.0  0.4628486463809317  0.569278962927461  0.41037105519191563  1.0000
  C   C6        1.0  0.5098350141625402  0.6580784373620412  0.5001952708772747  1.0000
  C   C7        1.0  0.6035463922935419  0.6580785273367512  0.5001952994110367  1.0000
  C   C8        1.0  0.36641600495646026  0.5692788650162137  0.41037100017606387  1.0000
  N   N2        1.0  0.2888895801553547  0.5692789462634391  0.4103710118299158  1.0000
  H   H1        1.0  0.6394257189053342  0.4113882548115387  0.2506584728949355  1.0000
  H   H2        1.0  0.474322063714893  0.4113882316776247  0.2506585701483137  1.0000
  H   H3        1.0  0.47408757142976393  0.7271696282084733  0.5700836172043995  1.0000
  H   H4        1.0  0.6391912272837053  0.7271696416260663  0.5700836280553127  1.0000
  C   C9        1.0  0.05946331444378794  0.1458424630408477  0.41013335901962744  1.0000
  C   C10       1.0  0.05905368915652498  0.22875885627149994  0.2770400972484046  1.0000
  C   C11       1.0  0.05051012282238143  0.16296038916008507  0.14684363450817206  1.0000
  C   C12       1.0  0.04217994726780727  0.01337418346551256  0.1477373929113155  1.0000
  C   C13       1.0  0.0439579504800407  0.9289058824967935  0.2783877261013088  1.0000
  C   C14       1.0  0.054058728755128634  0.9927043856888988  0.4106212415485415  1.0000
  Cl  Cl1       1.0  0.04888993922920192  0.2686725923114912  0.9822222611500728  1.0000
  H   H5        1.0  0.10655555049694643  0.41005357639853224  0.6368388605631091  1.0000
  H   H6        1.0  0.06323528301836934  0.3454636539216594  0.27418519528746765  1.0000
  H   H7        1.0  0.03517835310735529  0.9620962646279024  0.04700963512973533  1.0000
  H   H8        1.0  0.039563372718219636  0.812630772802239  0.27573618294650887  1.0000
  H   H9        1.0  0.025339753762857468  0.6952566184828192  0.6437909094319072  1.0000
  C   C15       1.0  0.054405675345614135  0.5669346677402551  0.9869327214524817  1.0000
  C   C16       1.0  0.09328550636360089  0.4489922389040942  0.06958711118662508  1.0000
  C   C17       1.0  0.13996238633216285  0.3396267808882234  0.003619098231245625  1.0000
  C   C18       1.0  0.14502706206919802  0.34626676452259364  0.8524731043016045  1.0000
  C   C19       1.0  0.10563546654567381  0.46120704826087877  0.7688486831165173  1.0000
  C   C20       1.0  0.05911636701840827  0.57161216226315  0.8338218438173786  1.0000
  C   C21       1.0  0.17911502329956974  0.2121480899939126  0.09389301102786485  1.0000
  F   F1        1.0  0.20901673393666909  0.2540563128391815  0.2261501017576446  1.0000
  F   F2        1.0  0.2509043720733988  0.15250534686269113  0.02473873074344257  1.0000
  F   F3        1.0  0.11400806880683301  0.10835703618956782  0.11686893004261555  1.0000
  H   H10       1.0  0.9954291471106206  0.9103014646357858  0.06334992854370491  1.0000
  H   H11       1.0  0.08884509546281594  0.44386946183414183  0.18642979380743174  1.0000
  H   H12       1.0  0.178679151056379  0.26156217877200216  0.798516444356432  1.0000
  H   H13       1.0  0.10947129348967288  0.4616682223342583  0.6521943310878546  1.0000
  H   H14       1.0  0.8968021282740722  0.8148177753645354  0.7126711154456644  1.0000
  Zn  Zn1       1.0  0.9586008912501912  0.5692751140837113  0.4103793924031558  1.0000
  Zn  Zn2       1.0  0.15491255358740963  0.5692709967909934  0.41037453165398485  1.0000
  C   C22       1.0  0.058260588835520995  0.5649836274574587  0.6737383739762235  1.0000
  C   C23       1.0  0.055254988895479404  0.573564303524365  0.14701569260552594  1.0000
  C   C24       1.0  0.055043719984143376  0.8325976859935229  0.4047828728131113  1.0000
  C   C25       1.0  0.05847180224316206  0.3059485129998136  0.4159712696498557  1.0000
  O   O1        1.0  0.13003931919836975  0.5757814166538759  0.20073915184748903  1.0000
  O   O2        1.0  0.13247227253724891  0.562762299312926  0.6200108098197339  1.0000
  O   O3        1.0  0.12987361431129507  0.7788640443247348  0.4028273406143339  1.0000
  O   O4        1.0  0.1326379097692354  0.359679681361321  0.41792251294267313  1.0000
  O   O5        1.0  0.9808754680767776  0.7788664295163166  0.40283141110854204  1.0000
  O   O6        1.0  0.9834741148148383  0.5627664164959278  0.6200148044267999  1.0000
  O   O7        1.0  0.9810411522130043  0.5757854740136181  0.20074141275875435  1.0000
  O   O8        1.0  0.9836397434473703  0.3596837290047423  0.41792488195822997  1.0000
