data_image0
_chemical_formula_structural       NC12NC2H8C12NCOCH13C12NCOH11Zn2C4O8
_chemical_formula_sum              "N4 C45 H32 O10 Zn2"
_cell_length_a       19.240039667572717
_cell_length_b       10.299155265289647
_cell_length_c       10.299148425239203
_cell_angle_alpha    85.52041506248939
_cell_angle_beta     89.98519547309932
_cell_angle_gamma    89.9765233896273

_space_group_name_H-M_alt    "P 1"
_space_group_IT_number       1

loop_
  _space_group_symop_operation_xyz
  'x, y, z'

loop_
  _atom_site_type_symbol
  _atom_site_label
  _atom_site_symmetry_multiplicity
  _atom_site_fract_x
  _atom_site_fract_y
  _atom_site_fract_z
  _atom_site_occupancy
  N   N1        1.0  0.6543634368949972  0.4219782332263652  0.5669818505435964  1.0000
  C   C1        1.0  0.594215068070624  0.4219783172481  0.5669817685791545  1.0000
  C   C2        1.0  0.5193970309227175  0.4219784345998969  0.5669816312344385  1.0000
  C   C3        1.0  0.4829231609492435  0.3574651040119745  0.6704175938529315  1.0000
  C   C4        1.0  0.4102524252043086  0.35735417831767347  0.6705041707802242  1.0000
  C   C5        1.0  0.37306479599655723  0.42197852726715873  0.5669814035127172  1.0000
  C   C6        1.0  0.4102528451081203  0.4866030631355032  0.4634588307516314  1.0000
  C   C7        1.0  0.4829235459616235  0.48649190187300956  0.463545530248739  1.0000
  C   C8        1.0  0.2958597055873707  0.42197844864006523  0.5669813081105664  1.0000
  C   C9        1.0  0.2586909487142961  0.3086917344369002  0.6088839467319076  1.0000
  C   C10       1.0  0.1860202495089796  0.30879868081608586  0.6087925874955977  1.0000
  C   C11       1.0  0.1495274186840838  0.42197831943210606  0.5669813690581758  1.0000
  C   C12       1.0  0.07470938151970509  0.4219782055767116  0.5669816177656986  1.0000
  N   N2        1.0  0.014561064647749892  0.42197816466288013  0.5669818262102833  1.0000
  C   C13       1.0  0.1859820987064816  0.5351580339035116  0.5251700977068718  1.0000
  C   C14       1.0  0.2586527840861516  0.5352651604850838  0.5250785758184293  1.0000
  H   H1        1.0  0.5106378124260947  0.307517196627918  0.7511773471805205  1.0000
  H   H2        1.0  0.3831585747294073  0.3082039480209982  0.7523793063985824  1.0000
  H   H3        1.0  0.3831601647959889  0.5357533205079092  0.3815836442743228  1.0000
  H   H4        1.0  0.5106386659317211  0.5364397088716213  0.3827860527617748  1.0000
  H   H5        1.0  0.2857994683724261  0.21951667679807207  0.6400765377529705  1.0000
  H   H6        1.0  0.1583203120206823  0.22052243730691146  0.6410179890777132  1.0000
  H   H7        1.0  0.158252212750359  0.6234342528679149  0.4929447106824889  1.0000
  H   H8        1.0  0.2857307432340555  0.6244402973251568  0.49388594000243646  1.0000
  C   C15       1.0  0.8345431993379775  0.04058067376316843  0.5671005350210598  1.0000
  C   C16       1.0  0.8226891990862797  0.05034860863205748  0.43216635125654573  1.0000
  C   C17       1.0  0.8166116746469742  0.9381635333806331  0.36363414585993015  1.0000
  C   C18       1.0  0.8225230578538462  0.8150889938391683  0.43185854594080864  1.0000
  C   C19       1.0  0.8343879999466387  0.8033657841316464  0.566874325711231  1.0000
  C   C20       1.0  0.8403281177874675  0.9166292793491732  0.6336641066744741  1.0000
  C   C21       1.0  0.8040724317102518  0.9494704983291097  0.22089007265264657  1.0000
  C   C22       1.0  0.8393313600853403  0.04362233704680185  0.13946703965486873  1.0000
  C   C23       1.0  0.827536825219974  0.054132058787431214  0.005135355013648591  1.0000
  C   C24       1.0  0.7806797126883614  0.9698177698310799  0.9493810832676509  1.0000
  C   C25       1.0  0.7445718249708517  0.8774822510593392  0.030735952406379052  1.0000
  C   C26       1.0  0.7563916788418862  0.8667165286656002  0.16503029908767197  1.0000
  N   N3        1.0  0.7666489648348984  0.9801279265702091  0.8118108548542281  1.0000
  C   C27       1.0  0.8174110002876267  0.017113809986512026  0.7135865677659914  1.0000
  O   O1        1.0  0.8811679208965914  0.01963411063406206  0.7414468312166447  1.0000
  C   C28       1.0  0.7952573288552899  0.04363020253100958  0.5750374427301912  1.0000
  H   H9        1.0  0.8391243291411695  0.36429969794013317  0.6189962991576161  1.0000
  H   H10       1.0  0.8171974029191971  0.14541974683443892  0.380353259045334  1.0000
  H   H11       1.0  0.8187915206643102  0.7283163648489607  0.37922658774767815  1.0000
  H   H12       1.0  0.849473695713639  0.9083802021788997  0.7377412169275888  1.0000
  H   H13       1.0  0.8571986531400625  0.5739555876171618  0.8215787203142993  1.0000
  H   H14       1.0  0.8764390100658974  0.10865054611156655  0.17956202688774825  1.0000
  H   H15       1.0  0.8542083134367566  0.12961763661327327  0.9455509429468472  1.0000
  H   H16       1.0  0.7073975937719318  0.8131585280924378  0.9897738714284235  1.0000
  H   H17       1.0  0.7274867720004423  0.7948468806363175  0.22544771449895776  1.0000
  H   H18       1.0  0.7177004919656579  0.9512749729056226  0.7807353474421053  1.0000
  H   H19       1.0  0.7450874491015678  0.09707811649731266  0.5705835141772115  1.0000
  H   H20       1.0  0.7888321065968602  0.9500433004157167  0.5298103593397063  1.0000
  H   H21       1.0  0.8348311684778233  0.1037493113087593  0.5196384528220115  1.0000
  C   C29       1.0  0.8345178322742487  0.42212906286461793  0.1855911790087137  1.0000
  C   C30       1.0  0.9050271050508908  0.4576906216944234  0.18161119095082756  1.0000
  C   C31       1.0  0.94066642575716  0.47550685665744785  0.06246118018044999  1.0000
  C   C32       1.0  0.9048806564131971  0.4573504457894466  0.9463541368563199  1.0000
  C   C33       1.0  0.8344133345708372  0.42181736275895254  0.9483836603090539  1.0000
  C   C34       1.0  0.7996453356616944  0.40440602645136847  0.06850793605134387  1.0000
  C   C35       1.0  0.015214782726245657  0.5131024516414115  0.05934349984377252  1.0000
  C   C36       1.0  0.06192925241316294  0.45572720488259866  0.9757624647248413  1.0000
  C   C37       1.0  0.13204556084621255  0.4912432097251786  0.9729778051387363  1.0000
  C   C38       1.0  0.15708940439568475  0.5835230783210752  0.05445942278523264  1.0000
  C   C39       1.0  0.11030558344109354  0.6427446788374904  0.13647151374533517  1.0000
  C   C40       1.0  0.04015784394557297  0.6073353505408812  0.13935298294551268  1.0000
  N   N4        1.0  0.22926284445129472  0.6197327493039344  0.04791327436471659  1.0000
  C   C41       1.0  0.26923363432185576  0.6564085243642426  0.15663249040074945  1.0000
  O   O2        1.0  0.24571969394128512  0.6422449230345997  0.2709968702508496  1.0000
  H   H22       1.0  0.7015457880797792  0.35424443108145653  0.400456307033765  1.0000
  H   H23       1.0  0.9325999308787724  0.46988694761531047  0.2715339741202427  1.0000
  H   H24       1.0  0.9318440799778573  0.4727432752874239  0.8541166704103693  1.0000
  H   H25       1.0  0.7452929424760366  0.37699493569721176  0.07078845483918483  1.0000
  H   H26       1.0  0.8073117559374136  0.4081140845750826  0.6216911424539941  1.0000
  H   H27       1.0  0.04442127461035272  0.38221193228304007  0.913611423089729  1.0000
  H   H28       1.0  0.1671728484607875  0.4457018556965187  0.9080363907761492  1.0000
  H   H29       1.0  0.12741871269915103  0.7184246512216022  0.19621530488887376  1.0000
  H   H30       1.0  0.0051120246760432125  0.6555431573516382  0.2024010325385417  1.0000
  H   H31       1.0  0.2559957409181426  0.6107927596218217  0.960732846920591  1.0000
  H   H32       1.0  0.3214125445632632  0.6934510588187772  0.14079762591463152  1.0000
  Zn  Zn1       1.0  0.7583087004186894  0.4219747429178702  0.5669893335125284  1.0000
  Zn  Zn2       1.0  0.9106158205990532  0.42197105636495985  0.5669849460427137  1.0000
  C   C42       1.0  0.8344325952859366  0.41670221233579197  0.8042011121559547  1.0000
  C   C43       1.0  0.834493588569884  0.42724522559722367  0.32977329434101965  1.0000
  C   C44       1.0  0.8344144481825868  0.6591852484352869  0.5617415540998367  1.0000
  C   C45       1.0  0.8345116840095123  0.18476062905103796  0.5722329221049507  1.0000
  O   O3        1.0  0.892285211667488  0.42895519135286153  0.37816046602472597  1.0000
  O   O4        1.0  0.8922385525089579  0.41498846892855945  0.7558102369018835  1.0000
  O   O5        1.0  0.8922231191401204  0.6107965866624498  0.5600224279519548  1.0000
  O   O6        1.0  0.8923005930756711  0.23314708295094122  0.5739481775917472  1.0000
  O   O7        1.0  0.7766238759671267  0.6107987163345638  0.5600261019581603  1.0000
  O   O8        1.0  0.7766393090247413  0.4149921590500378  0.7558138411949411  1.0000
  O   O9        1.0  0.7766859684526066  0.428958836853063  0.37816250881856406  1.0000
  O   O10       1.0  0.7767013498464994  0.23315071912184712  0.5739503177631577  1.0000
