data_image0
_chemical_formula_structural       NC5NC4H6C12H10C12H9Zn2C4O8
_chemical_formula_sum              "N2 C37 H25 Zn2 O8"
_cell_length_a       13.854160002989762
_cell_length_b       14.388199552941785
_cell_length_c       14.389300134226545
_cell_angle_alpha    82.75983295492937
_cell_angle_beta     90.22201772561286
_cell_angle_gamma    92.40759118095515

_space_group_name_H-M_alt    "P 1"
_space_group_IT_number       1

loop_
  _space_group_symop_operation_xyz
  'x, y, z'

loop_
  _atom_site_type_symbol
  _atom_site_label
  _atom_site_symmetry_multiplicity
  _atom_site_fract_x
  _atom_site_fract_y
  _atom_site_fract_z
  _atom_site_occupancy
  N   N1        1.0  0.9511104561527133  0.0629463420916081  0.9634134199208171  1.0000
  C   C1        1.0  0.879404621677147  0.08085253910942057  0.9250614287832968  1.0000
  C   C2        1.0  0.7902015614339658  0.10312835204036963  0.8773500845037849  1.0000
  C   C3        1.0  0.7019010566202355  0.08211486553722436  0.9239311833121424  1.0000
  C   C4        1.0  0.6150591494335806  0.10312836193130481  0.8773500694340541  1.0000
  C   C5        1.0  0.524296476293997  0.08085244146189609  0.925061488747608  1.0000
  N   N2        1.0  0.4513368837671444  0.06294630109460829  0.963413420130981  1.0000
  C   C6        1.0  0.6165674797216893  0.1455463616447017  0.7841976171718801  1.0000
  C   C7        1.0  0.7048956386998383  0.16795101424862535  0.7375405000394541  1.0000
  C   C8        1.0  0.7063619720636554  0.21084131045351243  0.6369452404526501  1.0000
  C   C9        1.0  0.7916445685932367  0.14554636327670223  0.7841975587013101  1.0000
  H   H1        1.0  0.7007558098989748  0.049212292060095926  0.9960299373931909  1.0000
  H   H2        1.0  0.5492296951092478  0.16114719111338924  0.7480602158651743  1.0000
  H   H3        1.0  0.7731017466676162  0.25550747856599476  0.6212520121524197  1.0000
  H   H4        1.0  0.6433932691532024  0.25550747798435386  0.6212520543021014  1.0000
  H   H5        1.0  0.7037129840528082  0.1543623434381285  0.5909769368240549  1.0000
  H   H6        1.0  0.8600526572379882  0.1611472660970519  0.7480601600600278  1.0000
  C   C10       1.0  0.18929675555146974  0.7894859590433295  0.9651979335133238  1.0000
  C   C11       1.0  0.09277139914340782  0.8101424279936597  0.9802538914196979  1.0000
  C   C12       1.0  0.02103102023913505  0.7385429377657902  0.9915799124882354  1.0000
  C   C13       1.0  0.044523525767089726  0.6456646586829029  0.9880360077096799  1.0000
  C   C14       1.0  0.14051627514461762  0.6232207417407418  0.9729825141207731  1.0000
  C   C15       1.0  0.2125104365836239  0.6957621739279426  0.9616620326275873  1.0000
  C   C16       1.0  0.16554286895504822  0.5244010514412248  0.969085438946111  1.0000
  C   C17       1.0  0.12347236664625627  0.45152538711375984  0.0321622860454257  1.0000
  C   C18       1.0  0.1470482064725433  0.3585443886109805  0.02852106359794193  1.0000
  C   C19       1.0  0.2131595547731154  0.3363992002576412  0.961637051238463  1.0000
  C   C20       1.0  0.2551804550767571  0.4091657657170422  0.8985380892879952  1.0000
  C   C21       1.0  0.2316606165602344  0.5021567045410138  0.9022309301534077  1.0000
  H   H7        1.0  0.41393249120739256  0.8954400988887476  0.9301825327224683  1.0000
  H   H8        1.0  0.0726463865742557  0.8816140920348178  0.9832784576590219  1.0000
  H   H9        1.0  0.9468427317767812  0.7551413674574212  0.002898784734441165  1.0000
  H   H10       1.0  0.9874048517676246  0.5915254640447524  0.9958234464360698  1.0000
  H   H11       1.0  0.286859237852118  0.6789110704947948  0.9513715385175734  1.0000
  H   H12       1.0  0.07321738209921233  0.4665411382817595  0.08521554507763707  1.0000
  H   H13       1.0  0.11362982299426602  0.3040401130488979  0.07828743766571733  1.0000
  H   H14       1.0  0.3216570969965633  0.14976624188153503  0.887573600415672  1.0000
  H   H15       1.0  0.3061430237282121  0.39434757236269974  0.8460212526980779  1.0000
  H   H16       1.0  0.26429290776281755  0.5565940481222224  0.8518797690794175  1.0000
  C   C22       1.0  0.2006328688847001  0.07460720280455391  0.6892164063608257  1.0000
  C   C23       1.0  0.2555881353381977  0.1297715301401852  0.6193140962264022  1.0000
  C   C24       1.0  0.25670654288024797  0.10675378513686962  0.5278192925145915  1.0000
  C   C25       1.0  0.20296237604109058  0.028056381503329012  0.5042239594309437  1.0000
  C   C26       1.0  0.14808450854376454  0.9729056410948866  0.5742186260136188  1.0000
  C   C27       1.0  0.14690190295571104  0.995965196999972  0.6657007940761719  1.0000
  C   C28       1.0  0.20417753873745115  0.0035546152713088535  0.4070018610971564  1.0000
  C   C29       1.0  0.20062020296519237  0.07402764509397337  0.3299033849136852  1.0000
  C   C30       1.0  0.20182339497008706  0.05127790705120993  0.23761859727438894  1.0000
  C   C31       1.0  0.20665672359766796  0.9568554628065538  0.2231248189231418  1.0000
  C   C32       1.0  0.21015807165991207  0.8866154636930043  0.2992673816675919  1.0000
  C   C33       1.0  0.20890368238885992  0.9095817548870642  0.3906386524147305  1.0000
  H   H17       1.0  0.14309289150926482  0.059480677499536234  0.9215186633395771  1.0000
  H   H18       1.0  0.29800055290063443  0.190675028086277  0.6353111044108335  1.0000
  H   H19       1.0  0.300713326725783  0.14988713709343449  0.4757617419018558  1.0000
  H   H20       1.0  0.10497769153629655  0.91253563219174  0.5579498957880689  1.0000
  H   H21       1.0  0.10364355384898834  0.9522221579386216  0.7179154463539559  1.0000
  H   H22       1.0  0.1955822010574268  0.14649592080320062  0.3418741312753637  1.0000
  H   H23       1.0  0.20774657531462434  0.937147198197576  0.1529698778309483  1.0000
  H   H24       1.0  0.21412967562229765  0.8140627786730418  0.28740567745875606  1.0000
  H   H25       1.0  0.21293064094083794  0.8539549016225514  0.44850556895714466  1.0000
  Zn  Zn1       1.0  0.09546490616777015  0.06294360746898908  0.9634188342042436  1.0000
  Zn  Zn2       1.0  0.30698211908731704  0.06294108917309925  0.9634157240608487  1.0000
  C   C34       1.0  0.2014343603290211  0.05197787590243563  0.13398297879643184  1.0000
  C   C35       1.0  0.20101502615242417  0.0739079917838994  0.7928516634319354  1.0000
  C   C36       1.0  0.20863591319251762  0.2331792180431768  0.9585892281777484  1.0000
  C   C37       1.0  0.19381335240518482  0.8927055287129289  0.9682454711181316  1.0000
  O   O1        1.0  0.281412784335342  0.07366831188384794  0.8276314485927175  1.0000
  O   O2        1.0  0.28157324134165956  0.0522149533997196  0.09920056889052564  1.0000
  O   O3        1.0  0.2873875063891147  0.1985372874919267  0.9575688680376745  1.0000
  O   O4        1.0  0.2755984472500541  0.9273459874323684  0.9692630793916792  1.0000
  O   O5        1.0  0.12684850582462293  0.19853870921180203  0.9575714788695564  1.0000
  O   O6        1.0  0.1210342894805005  0.05221749605190573  0.09920312265103737  1.0000
  O   O7        1.0  0.12087382868532193  0.07367086984266091  0.8276328799303709  1.0000
  O   O8        1.0  0.11505949145745653  0.9273485357525353  0.9692645807793654  1.0000
