data_image0
_chemical_formula_structural       NC6NC2H4C6NH5C6SCH6Zn2C4O8
_chemical_formula_sum              "N3 C25 H15 S1 Zn2 O8"
_cell_length_a       14.927258858638513
_cell_length_b       9.274771166103582
_cell_length_c       10.302812801239593
_cell_angle_alpha    85.45577702643503
_cell_angle_beta     89.99986339820808
_cell_angle_gamma    90.59705168739299

_space_group_name_H-M_alt    "P 1"
_space_group_IT_number       1

loop_
  _space_group_symop_operation_xyz
  'x, y, z'

loop_
  _atom_site_type_symbol
  _atom_site_label
  _atom_site_symmetry_multiplicity
  _atom_site_fract_x
  _atom_site_fract_y
  _atom_site_fract_z
  _atom_site_occupancy
  N   N1        1.0  0.8537918890966427  0.5786602446678768  0.5653422067568485  1.0000
  C   C1        1.0  0.7762653977443248  0.5786602161506027  0.5653422163401087  1.0000
  C   C2        1.0  0.6798328909455122  0.5786603312794938  0.5653421712460305  1.0000
  C   C3        1.0  0.6326272765417185  0.5549632339113428  0.45128662771689854  1.0000
  C   C4        1.0  0.5389159653643992  0.5549632595540446  0.4512865074809673  1.0000
  C   C5        1.0  0.49201682580393474  0.5786601536821421  0.565342188316172  1.0000
  C   C6        1.0  0.3955842520136054  0.5786602688139979  0.5653421432167536  1.0000
  N   N2        1.0  0.3180577606612868  0.578660240296724  0.5653421528000138  1.0000
  C   C7        1.0  0.539222373216211  0.6023572510532582  0.6793977318399638  1.0000
  C   C8        1.0  0.6329336843935308  0.602357225410556  0.6793978520758954  1.0000
  H   H1        1.0  0.6682042441545933  0.5365255560960533  0.36254486884947257  1.0000
  H   H2        1.0  0.5031005899227972  0.5365257536862941  0.36254486407940156  1.0000
  H   H3        1.0  0.503645472524195  0.6207949185482552  0.7681395880669124  1.0000
  H   H4        1.0  0.6687490604630822  0.6207948286330797  0.7681395944102898  1.0000
  C   C9        1.0  0.0831787945671627  0.15506368130891568  0.5660498380498826  1.0000
  C   C10       1.0  0.06256445429143542  0.23837243435304512  0.44994994654937565  1.0000
  C   C11       1.0  0.05031423082924103  0.17332304986812266  0.33311345092158867  1.0000
  C   C12       1.0  0.0587253126225975  0.02358743933836727  0.3315305891308675  1.0000
  C   C13       1.0  0.07768309333544399  0.9389592582920635  0.44603560767380324  1.0000
  C   C14       1.0  0.08867938481552495  0.0022457198329417444  0.5646458142804764  1.0000
  N   N3        1.0  0.030250289380495232  0.25973130087220375  0.2157375542812452  1.0000
  H   H5        1.0  0.18399792767688816  0.2347239906452698  0.8501819870538185  1.0000
  H   H6        1.0  0.04972399858172419  0.9721002175670189  0.24163669337697466  1.0000
  H   H7        1.0  0.1529542092958789  0.7051794033236063  0.757956277930731  1.0000
  H   H8        1.0  0.02407806356650878  0.3718052023879972  0.21569538687696221  1.0000
  H   H9        1.0  0.02133331064975774  0.21226128681527132  0.12797874551878594  1.0000
  C   C15       1.0  0.08592910983203056  0.5786546900906413  0.1840993521415688  1.0000
  C   C16       1.0  0.05665146260915236  0.7225052521121051  0.1726636678518236  1.0000
  C   C17       1.0  0.041851494324402834  0.7938679930316264  0.049998399783038654  1.0000
  C   C18       1.0  0.05665138086425306  0.7225051006898697  0.9375124984135388  1.0000
  C   C19       1.0  0.085929051661851  0.5786546803696382  0.9465962557872233  1.0000
  C   C20       1.0  0.10039712493153125  0.5074197637691544  0.07042846386701584  1.0000
  S   S1        1.0  0.004629649150366789  0.9777651611699523  0.03688229963411494  1.0000
  C   C21       1.0  0.8864656453346683  0.9273667999285462  0.04047797156149979  1.0000
  H   H10       1.0  0.04502116053893501  0.7796431057972517  0.25868802409164315  1.0000
  H   H11       1.0  0.04502097983503761  0.7796428980061125  0.843337711453938  1.0000
  H   H12       1.0  0.12296396505449386  0.39645188647567015  0.07834291098408097  1.0000
  H   H13       1.0  0.8701636492424507  0.86319585178441  0.9569380025431893  1.0000
  H   H14       1.0  0.8701640423885769  0.8631973095895031  0.1331726921605989  1.0000
  H   H15       1.0  0.8456508466780746  0.026931322459077478  0.03337645975751258  1.0000
  Zn  Zn1       1.0  0.9877689738184237  0.5786563781635492  0.565349699339071  1.0000
  Zn  Zn2       1.0  0.18408061010610843  0.5786522913794427  0.5653453297094526  1.0000
  C   C22       1.0  0.08588975527531995  0.5729081346319933  0.8024775512232644  1.0000
  C   C23       1.0  0.08596198418342564  0.5844023549244964  0.3282176021873157  1.0000
  C   C24       1.0  0.0876350345051054  0.8421102504780655  0.5597376451880662  1.0000
  C   C25       1.0  0.08421662671373566  0.3151985060104576  0.5709575803130158  1.0000
  O   O1        1.0  0.16047221914083087  0.5863234797461319  0.3765833556171332  1.0000
  O   O2        1.0  0.1603755028527517  0.5709828198320857  0.7541081094212185  1.0000
  O   O3        1.0  0.16178383361734783  0.7883669329240863  0.5580939154092692  1.0000
  O   O4        1.0  0.15906382145537615  0.3689393769744227  0.5725974522695592  1.0000
  O   O5        1.0  0.012785695477638422  0.7883692925715345  0.558097576773624  1.0000
  O   O6        1.0  0.011377375961429957  0.5709869125504645  0.7541116986897312  1.0000
  O   O7        1.0  0.011474091982826902  0.5863275221975459  0.37658538406143127  1.0000
  O   O8        1.0  0.010065694226713886  0.36894340910850976  0.5725995780680406  1.0000
