data_image0
_chemical_formula_structural       NC8NH4C6ClH5C6NCH7Zn2C4O8
_chemical_formula_sum              "N3 C25 H16 Cl1 Zn2 O8"
_cell_length_a       13.859017124695912
_cell_length_b       10.30297070629231
_cell_length_c       9.273390368590327
_cell_angle_alpha    86.16779528597041
_cell_angle_beta     89.99082906418701
_cell_angle_gamma    89.99834178165982

_space_group_name_H-M_alt    "P 1"
_space_group_IT_number       1

loop_
  _space_group_symop_operation_xyz
  'x, y, z'

loop_
  _atom_site_type_symbol
  _atom_site_label
  _atom_site_symmetry_multiplicity
  _atom_site_fract_x
  _atom_site_fract_y
  _atom_site_fract_z
  _atom_site_occupancy
  N   N1        1.0  0.9087294357924847  0.40562708930579006  0.410208460860658  1.0000
  C   C1        1.0  0.8363813962830831  0.38451122251164355  0.3540479745556089  1.0000
  C   C2        1.0  0.7463847302104095  0.35824616466789916  0.2841915473816208  1.0000
  C   C3        1.0  0.6587616940359886  0.38385192273816493  0.3522927748907858  1.0000
  C   C4        1.0  0.5711544103888155  0.35824726266179563  0.28419096812648736  1.0000
  C   C5        1.0  0.5713525742456731  0.3070298929516806  0.1479670296919542  1.0000
  C   C6        1.0  0.6587930199754676  0.28152255304685836  0.08012794203358586  1.0000
  C   C7        1.0  0.7462179330399109  0.30702778914767714  0.14796820795380472  1.0000
  C   C8        1.0  0.4811415576001973  0.3845120518681929  0.35404747657545  1.0000
  N   N2        1.0  0.4087805613976355  0.4056273776659727  0.41020824486630114  1.0000
  H   H1        1.0  0.6587495134943685  0.4234961481937489  0.4577333668945309  1.0000
  H   H2        1.0  0.5040633268841513  0.28687717134018076  0.09436390867713595  1.0000
  H   H3        1.0  0.6588052418642014  0.2419592898377927  0.9749008850453107  1.0000
  H   H4        1.0  0.8135195433579694  0.2868731859353222  0.09436608609101427  1.0000
  C   C9        1.0  0.15875959804589646  0.024379857087480028  0.4102145796317243  1.0000
  C   C10       1.0  0.2583903536547645  0.02150244366627385  0.43797550201441426  1.0000
  C   C11       1.0  0.3078244754117121  0.9031179030522392  0.4517496300020761  1.0000
  C   C12       1.0  0.2583903528916134  0.7863944743478771  0.4379754342302562  1.0000
  C   C13       1.0  0.15875960833452707  0.7868647996895072  0.4102146621378167  1.0000
  C   C14       1.0  0.10942988548030241  0.906451149545864  0.3964694912653526  1.0000
  Cl  Cl1       1.0  0.43228702680425757  0.9010268441190211  0.48642953688110074  1.0000
  H   H5        1.0  0.1212304374634896  0.3527668389318068  0.39975671946108116  1.0000
  H   H6        1.0  0.29801592648546515  0.11088328974442031  0.4490165717773678  1.0000
  H   H7        1.0  0.29801588833868364  0.695682095925613  0.44901646822587177  1.0000
  H   H8        1.0  0.032591623287516525  0.9077419705445127  0.3750593890342848  1.0000
  H   H9        1.0  0.12123043272925216  0.4597388748589732  0.39975699157960953  1.0000
  C   C15       1.0  0.15880433523981008  0.40157378107587727  0.9869688227302355  1.0000
  C   C16       1.0  0.24742467277365887  0.39899425275627204  0.06057127625410886  1.0000
  C   C17       1.0  0.3344992724704847  0.40848347337887275  0.9851564566077746  1.0000
  C   C18       1.0  0.3351658946045264  0.42090393897669154  0.8335284681145114  1.0000
  C   C19       1.0  0.2471336751733828  0.4212940063346855  0.7591164123225442  1.0000
  C   C20       1.0  0.15871491459866016  0.4096708635123833  0.8334603575199369  1.0000
  N   N3        1.0  0.42387131119710103  0.4318879945892467  0.7527401648216463  1.0000
  C   C21       1.0  0.5191387933805833  0.4320410690095573  0.8197283279691487  1.0000
  H   H10       1.0  0.006508133791123694  0.3392106976564466  0.27280887163556167  1.0000
  H   H11       1.0  0.4009796969999917  0.407288881162269  0.04627743681320685  1.0000
  H   H12       1.0  0.9338500545496917  0.30880875332532676  0.7379693519824873  1.0000
  H   H13       1.0  0.420740600110505  0.4404921925613295  0.6398643328105398  1.0000
  H   H14       1.0  0.5254008871884863  0.5153235747681675  0.8891968627462412  1.0000
  H   H15       1.0  0.5309084176627243  0.33923857152151493  0.8852822598270924  1.0000
  H   H16       1.0  0.5756844385588746  0.44185584360478636  0.734837740913703  1.0000
  Zn  Zn1       1.0  0.05303339107211258  0.40562378595012616  0.4102167261372158  1.0000
  Zn  Zn2       1.0  0.2644765972329006  0.40562020354256983  0.4102118008922859  1.0000
  C   C22       1.0  0.1587296441631314  0.40296829104651377  0.6734553390005766  1.0000
  C   C23       1.0  0.15878265308023676  0.4082773378578755  0.14697332943832642  1.0000
  C   C24       1.0  0.1587552633495526  0.6426839468099561  0.40447116412578343  1.0000
  C   C25       1.0  0.15875696173484566  0.16856012302507972  0.4159575811562328  1.0000
  O   O1        1.0  0.23901697114167542  0.41052008930987394  0.20067043444377222  1.0000
  O   O2        1.0  0.2389758271587754  0.40072183725095845  0.6197540809513227  1.0000
  O   O3        1.0  0.23899543312237603  0.5942952752518478  0.402547456657514  1.0000
  O   O4        1.0  0.23899729303825093  0.21694665956376188  0.41787695067220465  1.0000
  O   O5        1.0  0.07851262311157424  0.5942973299314975  0.4025515763513967  1.0000
  O   O6        1.0  0.07849301715175505  0.40072545100252555  0.6197581237961918  1.0000
  O   O7        1.0  0.07853416138192681  0.41052364124440094  0.2006727444357148  1.0000
  O   O8        1.0  0.07851448326313792  0.2169502032460753  0.4178793687236233  1.0000
