data_image0
_chemical_formula_structural       NC6NC3H6C6NH7C7OH6Zn2C4O8
_chemical_formula_sum              "N3 C26 H19 O9 Zn2"
_cell_length_a       14.934028789175542
_cell_length_b       9.274771166103582
_cell_length_c       9.274074313596557
_cell_angle_alpha    86.0140142098405
_cell_angle_beta     90.20908406498742
_cell_angle_gamma    90.55950156128424

_space_group_name_H-M_alt    "P 1"
_space_group_IT_number       1

loop_
  _space_group_symop_operation_xyz
  'x, y, z'

loop_
  _atom_site_type_symbol
  _atom_site_label
  _atom_site_symmetry_multiplicity
  _atom_site_fract_x
  _atom_site_fract_y
  _atom_site_fract_z
  _atom_site_occupancy
  N   N1        1.0  0.849262184373021  0.5621669563441392  0.4068246415418359  1.0000
  C   C1        1.0  0.7717672473982218  0.5610619004005593  0.4061479326265567  1.0000
  C   C2        1.0  0.6753596001217448  0.5596821318296745  0.40530318799294296  1.0000
  C   C3        1.0  0.6284620288255987  0.6671383802311934  0.470985477311896  1.0000
  C   C4        1.0  0.5349413854720234  0.6660305321042383  0.47030817971787126  1.0000
  C   C5        1.0  0.4874062063186752  0.5575212754386223  0.4039823127915223  1.0000
  C   C6        1.0  0.390779183351896  0.559849463808882  0.4054066955582336  1.0000
  N   N2        1.0  0.313313941058298  0.5616971780308895  0.40653745115515516  1.0000
  C   C7        1.0  0.5342862384801889  0.44857838790143983  0.33739076854874095  1.0000
  C   C8        1.0  0.4850203541581909  0.3306062825261675  0.26528199488256354  1.0000
  C   C9        1.0  0.6284470495711791  0.45081668772780764  0.33875897425310764  1.0000
  H   H1        1.0  0.6641878393163364  0.7518039421395724  0.5227376179178878  1.0000
  H   H2        1.0  0.4995820015999237  0.7500440450118486  0.5216616141306638  1.0000
  H   H3        1.0  0.44235812790851525  0.3788179962937659  0.17660008175705877  1.0000
  H   H4        1.0  0.44207708003513796  0.2685326025991792  0.34549745292169204  1.0000
  H   H5        1.0  0.5318640790037001  0.254193978989109  0.2185688000450092  1.0000
  H   H6        1.0  0.6653084907259933  0.3679208077795344  0.2880889788661376  1.0000
  C   C10       1.0  0.07854534838345056  0.1383459934517257  0.40746831320430266  1.0000
  C   C11       1.0  0.05760580962978575  0.22041079667828  0.2785958528706667  1.0000
  C   C12       1.0  0.04502440702891053  0.154100974348921  0.14890049743367406  1.0000
  C   C13       1.0  0.05342704682470154  0.00433960901862829  0.1471381228094921  1.0000
  C   C14       1.0  0.07270619207146313  0.9209396792314126  0.27424110194349827  1.0000
  C   C15       1.0  0.08403935437660115  0.985507170486458  0.4059062711338568  1.0000
  N   N3        1.0  0.02463133468709744  0.23925081762450096  0.018611173434044174  1.0000
  H   H7        1.0  0.18013711437162416  0.22099966352128006  0.7228277113551986  1.0000
  H   H8        1.0  0.0530895199166985  0.3370026425325634  0.2780450221470687  1.0000
  H   H9        1.0  0.044170728323573716  0.9518821784638435  0.04735036950074844  1.0000
  H   H10       1.0  0.07664162291162334  0.8047311622046994  0.2701109864724742  1.0000
  H   H11       1.0  0.1488418339659625  0.6904817682457319  0.6204649916090934  1.0000
  H   H12       1.0  0.018461833622995798  0.35133050522154985  0.01856818021755324  1.0000
  H   H13       1.0  0.015465467854231408  0.1908337693898228  0.9211935780815502  1.0000
  C   C16       1.0  0.0801932690421101  0.5577731963179844  0.9834544236225424  1.0000
  C   C17       1.0  0.002396261795101883  0.6004375306140652  0.05331307376285399  1.0000
  C   C18       1.0  0.9290837971828237  0.6546897922477697  0.9740765351485322  1.0000
  C   C19       1.0  0.9318545523293467  0.6677205168682137  0.8227708386822616  1.0000
  C   C20       1.0  0.008431262030474285  0.6233159383622413  0.7517762619478265  1.0000
  C   C21       1.0  0.08239138941919055  0.566079885424742  0.8299201818583688  1.0000
  C   C22       1.0  0.8552081342174385  0.7259428964648058  0.7373205897015045  1.0000
  O   O1        1.0  0.7853006630962281  0.7662041143557181  0.797996187996318  1.0000
  H   H14       1.0  0.2987407647576745  0.5208015960945784  0.09017534889185508  1.0000
  H   H15       1.0  0.9990374048066312  0.5950476137963192  0.17024465929656518  1.0000
  H   H16       1.0  0.8705462926412059  0.6877701560433567  0.03145366284038876  1.0000
  H   H17       1.0  0.009514175825112934  0.6303051944907265  0.6346060674282481  1.0000
  H   H18       1.0  0.22926201133874724  0.5359507581674152  0.5524186178668984  1.0000
  H   H19       1.0  0.8584445407158275  0.7346951753658841  0.620432960256935  1.0000
  Zn  Zn1       1.0  0.9831775073254116  0.562027604749016  0.4067500882011454  1.0000
  Zn  Zn2       1.0  0.1793986021434071  0.561824829497624  0.4066238095339261  1.0000
  C   C23       1.0  0.08193665716085746  0.5587633808137777  0.6699305832639346  1.0000
  C   C24       1.0  0.08064160720667733  0.5650908726200676  0.14344345119507437  1.0000
  C   C25       1.0  0.08298133589037185  0.8253192875802376  0.40045824354232584  1.0000
  C   C26       1.0  0.07959685048116857  0.2985332336501747  0.41291587099443405  1.0000
  O   O2        1.0  0.15525691564811606  0.5674635065497777  0.197089319873611  1.0000
  O   O3        1.0  0.156248611304784  0.5562357529118149  0.616188459121181  1.0000
  O   O4        1.0  0.1570912026600857  0.7714830344291856  0.3985876361149536  1.0000
  O   O5        1.0  0.15441425712213852  0.3522162343597659  0.4146900348401428  1.0000
  O   O6        1.0  0.008161785386041173  0.7716361999575672  0.398683862930437  1.0000
  O   O7        1.0  0.0073192050660948514  0.5563906507143243  0.616284605894422  1.0000
  O   O8        1.0  0.006327504643162563  0.5676183370817505  0.19718373393946753  1.0000
  O   O9        1.0  0.005484846327221685  0.3523710556350732  0.41478455698120364  1.0000
