data_image0
_chemical_formula_structural       NC9NC5H8C8NH7C7F3H5Zn2C4O8
_chemical_formula_sum              "N3 C33 H20 F3 Zn2 O8"
_cell_length_a       17.807436237873137
_cell_length_b       9.27426342843186
_cell_length_c       9.272721663655245
_cell_angle_alpha    85.8307011284179
_cell_angle_beta     89.9168972107098
_cell_angle_gamma    89.00683889979415

_space_group_name_H-M_alt    "P 1"
_space_group_IT_number       1

loop_
  _space_group_symop_operation_xyz
  'x, y, z'

loop_
  _atom_site_type_symbol
  _atom_site_label
  _atom_site_symmetry_multiplicity
  _atom_site_fract_x
  _atom_site_fract_y
  _atom_site_fract_z
  _atom_site_occupancy
  N   N1        1.0  0.7084871743942818  0.5324625410509477  0.39684069006931966  1.0000
  C   C1        1.0  0.6476226910652916  0.4933248604677161  0.384632778375428  1.0000
  C   C2        1.0  0.5719139633469382  0.44464189578924684  0.36944746170084786  1.0000
  C   C3        1.0  0.5528271809071421  0.36473127239940917  0.25293288921516993  1.0000
  C   C4        1.0  0.47931679304972413  0.3173395800131653  0.23809728686911205  1.0000
  C   C5        1.0  0.4238419478828007  0.3494391282243223  0.33974056319121226  1.0000
  C   C6        1.0  0.3457205013031418  0.29920204363212344  0.3240651798661489  1.0000
  C   C7        1.0  0.2841893090371952  0.3901323925639167  0.3527909180239239  1.0000
  C   C8        1.0  0.2105354236391347  0.3425153353400865  0.3379706852191222  1.0000
  C   C9        1.0  0.1479728103781656  0.43643617661768724  0.3670980521430938  1.0000
  N   N2        1.0  0.09768541741581878  0.5119420415826816  0.390515653764235  1.0000
  C   C10       1.0  0.1978274461469097  0.20368133086351925  0.2943967990828209  1.0000
  C   C11       1.0  0.2585011383301125  0.112735551840784  0.26566175867561537  1.0000
  C   C12       1.0  0.33203207262318496  0.15991334238064092  0.2802574762775516  1.0000
  C   C13       1.0  0.4436243631075312  0.42989995778463136  0.4564980934871213  1.0000
  C   C14       1.0  0.5171856203958003  0.4770793336029759  0.4711610557253365  1.0000
  H   H1        1.0  0.5947060171898394  0.3393450418231655  0.17333473849196857  1.0000
  H   H2        1.0  0.4656351039945861  0.2572478954571995  0.14608363761591314  1.0000
  H   H3        1.0  0.29344516680545546  0.4985222080063659  0.38476470940836727  1.0000
  H   H4        1.0  0.1410949026896821  0.16582716207721254  0.28266419826742784  1.0000
  H   H5        1.0  0.24854574817831943  0.005249316237287079  0.2323544987134596  1.0000
  H   H6        1.0  0.3781635899615338  0.08680140784602197  0.25916763020873623  1.0000
  H   H7        1.0  0.4024658384916434  0.45469522516159305  0.5375339221462945  1.0000
  H   H8        1.0  0.5313977979564819  0.5385202098270797  0.5620171691237603  1.0000
  C   C15       1.0  0.9007148540674738  0.09874558615048067  0.394023164972666  1.0000
  C   C16       1.0  0.8903868985340568  0.18192281386578135  0.2624088839981835  1.0000
  C   C17       1.0  0.8874303914274428  0.1164469124045233  0.1318677278047889  1.0000
  C   C18       1.0  0.8953391824980029  0.9662368526374677  0.12970202467577452  1.0000
  C   C19       1.0  0.9036475199423455  0.881656629780571  0.2604652165510908  1.0000
  C   C20       1.0  0.9054649124368036  0.9456476665879475  0.393345607946724  1.0000
  C   C21       1.0  0.8910316808915013  0.895699956768605  0.9890808569609555  1.0000
  C   C22       1.0  0.8129613225285416  0.8607030628291079  0.9583021485260086  1.0000
  N   N3        1.0  0.7513420983540406  0.8330794649431904  0.9340187049396653  1.0000
  H   H9        1.0  0.9670900322788661  0.17534678326390973  0.7253892027834963  1.0000
  H   H10       1.0  0.8862243005049134  0.2987481572048526  0.2601148617447324  1.0000
  H   H11       1.0  0.87967118758969  0.18323259282161097  0.03206480799225076  1.0000
  H   H12       1.0  0.9068812216043652  0.7649860907786956  0.2585132922013347  1.0000
  H   H13       1.0  0.9472396579766287  0.6471957860999966  0.61844575163227  1.0000
  H   H14       1.0  0.9257546870787607  0.7947846911835239  0.9940968010813186  1.0000
  H   H15       1.0  0.912786788336098  0.9688708420358707  0.8989923520470344  1.0000
  C   C23       1.0  0.9010897516786899  0.5199625220363795  0.970275313844812  1.0000
  C   C24       1.0  0.9323905258937051  0.40032929210018  0.05257258792217257  1.0000
  C   C25       1.0  0.970321630965284  0.28892639284558047  0.9861286864068189  1.0000
  C   C26       1.0  0.9746401615201676  0.29534096103186336  0.8349039783188618  1.0000
  C   C27       1.0  0.9428774699675695  0.41199537021624355  0.7516480374042953  1.0000
  C   C28       1.0  0.905090027265067  0.5244307076352388  0.8170934159714023  1.0000
  C   C29       1.0  0.001746592669012779  0.15974708071788424  0.07605571983881765  1.0000
  F   F1        1.0  0.027272736460557168  0.20032382177712682  0.2078441251123906  1.0000
  F   F2        1.0  0.061274616685869976  0.09694526396497238  0.0060106783908522275  1.0000
  F   F3        1.0  0.9460294036454953  0.058858092522270145  0.10007048843020794  1.0000
  H   H16       1.0  0.8554121692728764  0.8658554896310252  0.046993597947155415  1.0000
  H   H17       1.0  0.9286119492218732  0.3954039821096238  0.1694832601042611  1.0000
  H   H18       1.0  0.0019227274976081363  0.20916883923417173  0.7806127915964174  1.0000
  H   H19       1.0  0.9460981318824536  0.4122868935653137  0.6349407529782403  1.0000
  H   H20       1.0  0.7716858523734798  0.774753494221694  0.6977981423479112  1.0000
  Zn  Zn1       1.0  0.8208013968028891  0.5265369644572764  0.39502376304186626  1.0000
  Zn  Zn2       1.0  0.9853711668769332  0.5178559262627154  0.3923444437427667  1.0000
  C   C30       1.0  0.9042999784888824  0.5178415534684508  0.6570313033504511  1.0000
  C   C31       1.0  0.901874393161082  0.5265530626582415  0.13033701423810973  1.0000
  C   C32       1.0  0.9045360388000577  0.7855349974077949  0.38772807071078486  1.0000
  C   C33       1.0  0.901638267339753  0.25885788959009326  0.399640326049293  1.0000
  O   O1        1.0  0.964591060806262  0.5254642085337904  0.18303840039439548  1.0000
  O   O2        1.0  0.9664879503825198  0.5123406104346759  0.6022959616548255  1.0000
  O   O3        1.0  0.9666777372500949  0.7285065041821743  0.38483170844062453  1.0000
  O   O4        1.0  0.9644012173293376  0.30929832749360053  0.40050254640586364  1.0000
  O   O5        1.0  0.841771290190872  0.735094566190333  0.3868656612855043  1.0000
  O   O6        1.0  0.8415815126738377  0.5189304045355807  0.6043298362349241  1.0000
  O   O7        1.0  0.8396846146767577  0.5320539432348936  0.18507054149241786  1.0000
  O   O8        1.0  0.8394947716495698  0.3158880524513372  0.40253479561335426  1.0000
