data_image0
_chemical_formula_structural       NC6NCNCH5C9H10C6NCH7Zn2C4O8
_chemical_formula_sum              "N4 C28 H22 Zn2 O8"
_cell_length_a       14.933214217465613
_cell_length_b       10.297183801781406
_cell_length_c       9.273390368590327
_cell_angle_alpha    86.14107260812962
_cell_angle_beta     89.95654164007166
_cell_angle_gamma    90.03175022610812

_space_group_name_H-M_alt    "P 1"
_space_group_IT_number       1

loop_
  _space_group_symop_operation_xyz
  'x, y, z'

loop_
  _atom_site_type_symbol
  _atom_site_label
  _atom_site_symmetry_multiplicity
  _atom_site_fract_x
  _atom_site_fract_y
  _atom_site_fract_z
  _atom_site_occupancy
  N   N1        1.0  0.8433502706466571  0.40724170888165107  0.40860739825022585  1.0000
  C   C1        1.0  0.7658600813272451  0.4081300691657372  0.40761656080163533  1.0000
  C   C2        1.0  0.6694617287449853  0.40923762626280746  0.40638110902026847  1.0000
  C   C3        1.0  0.6216305425552463  0.3238825705638304  0.5016018189791054  1.0000
  C   C4        1.0  0.5280971945732825  0.32484775258213605  0.500525107476665  1.0000
  C   C5        1.0  0.4814926749266998  0.41111908618983506  0.4042822498351397  1.0000
  C   C6        1.0  0.3849169979042459  0.4092395492375902  0.406379037456162  1.0000
  N   N2        1.0  0.3074312314930919  0.4076715966047361  0.4081278484241151  1.0000
  C   C7        1.0  0.5294227128106488  0.4975519447174889  0.3078592899698631  1.0000
  N   N3        1.0  0.484118171651147  0.5872210042996918  0.2078262218367235  1.0000
  C   C8        1.0  0.6234363502752464  0.4957256349815471  0.309896808878396  1.0000
  H   H1        1.0  0.6566227733082011  0.2565858490625461  0.576676902045699  1.0000
  H   H2        1.0  0.4920084645590014  0.258117140362609  0.574968519155407  1.0000
  H   H3        1.0  0.5204787889209652  0.6505539088218615  0.13717302388886732  1.0000
  H   H4        1.0  0.41437707550358854  0.5919921635623702  0.20250366642288364  1.0000
  H   H5        1.0  0.6606494632825525  0.5617848258931564  0.23620225789051671  1.0000
  C   C9        1.0  0.07539814593363792  0.025983036916959135  0.40857185296875587  1.0000
  C   C10       1.0  0.07280252272588172  0.03438899304973941  0.2569082370788791  1.0000
  C   C11       1.0  0.0714725019228735  0.9220791226085395  0.1792065317590814  1.0000
  C   C12       1.0  0.07279208981399798  0.7992122642794751  0.2563204117461979  1.0000
  C   C13       1.0  0.07539193008235115  0.7889203675556549  0.4081758589824984  1.0000
  C   C14       1.0  0.076677136838248  0.902772377871292  0.4833103028190466  1.0000
  C   C15       1.0  0.06866490438160078  0.9406029523027479  0.015171622233133066  1.0000
  C   C16       1.0  0.016238130708794655  0.8410695605534096  0.9349934354731309  1.0000
  C   C17       1.0  0.1182575401716553  0.8414284460871253  0.9303094395821335  1.0000
  H   H6        1.0  0.07640682572253371  0.35028241426098616  0.46701270002139394  1.0000
  H   H7        1.0  0.07180065700785421  0.12905652140308366  0.19835771363064403  1.0000
  H   H8        1.0  0.07181587323195936  0.7110668105809093  0.1993958272501981  1.0000
  H   H9        1.0  0.0786792658185902  0.8955595629145726  0.6003219677690881  1.0000
  H   H10       1.0  0.08029040090317974  0.5622654116556733  0.6949880520707543  1.0000
  H   H11       1.0  0.06776331529962688  0.04081304548400499  0.962447917819865  1.0000
  H   H12       1.0  0.9863501093522812  0.7580321492179558  0.000615224585936991  1.0000
  H   H13       1.0  0.9846560313428365  0.8809372770448278  0.833052947661288  1.0000
  H   H14       1.0  0.15034083152740335  0.7586098453562079  0.9930867051243646  1.0000
  H   H15       1.0  0.14630129609060827  0.8815035353236088  0.8256300324816359  1.0000
  C   C18       1.0  0.07543656827280976  0.4034008075712669  0.9851301584082308  1.0000
  C   C19       1.0  0.1576822011814545  0.4008958727113201  0.058649005468013334  1.0000
  C   C20       1.0  0.23849318671174102  0.4104655200188243  0.9831457931327368  1.0000
  C   C21       1.0  0.2391117547504249  0.4228939279292771  0.8315107151159351  1.0000
  C   C22       1.0  0.15741195282676634  0.4232086078974995  0.7571828391447442  1.0000
  C   C23       1.0  0.0753535134483787  0.41150261760493145  0.8316175737104841  1.0000
  N   N4        1.0  0.321436235369289  0.4339606980441097  0.7506316795919088  1.0000
  C   C24       1.0  0.4098508415069779  0.4341956971493503  0.8175284455506584  1.0000
  H   H16       1.0  0.9340959998763387  0.34086989999573647  0.2711485774311566  1.0000
  H   H17       1.0  0.3001914853738228  0.40932732504052516  0.04420366960241196  1.0000
  H   H18       1.0  0.8666646830820492  0.3103875040562824  0.7363944926297168  1.0000
  H   H19       1.0  0.3185306550494462  0.44256731207118055  0.6377543799225611  1.0000
  H   H20       1.0  0.41566180043504086  0.51753299771066  0.8869477252871641  1.0000
  H   H21       1.0  0.4207746034416091  0.34134824523968277  0.8831192925118939  1.0000
  H   H22       1.0  0.4623289088086502  0.44406486751650703  0.7325785599538568  1.0000
  Zn  Zn1       1.0  0.9772740110633871  0.40736235928654474  0.408477344132804  1.0000
  Zn  Zn2       1.0  0.17350747533951102  0.40754040244981904  0.4082697439830132  1.0000
  C   C25       1.0  0.07536723849958693  0.4047960808162947  0.6716160220374838  1.0000
  C   C26       1.0  0.07541639073936773  0.4101083232878644  0.145131204423101  1.0000
  C   C27       1.0  0.07538904674784574  0.6446539940119909  0.40250732684405754  1.0000
  C   C28       1.0  0.07539451553554959  0.17024885003575552  0.41423997733850637  1.0000
  O   O1        1.0  0.14987919603460464  0.4124213259913603  0.19875023685969517  1.0000
  O   O2        1.0  0.14984109210536678  0.402617224791522  0.6178390115045436  1.0000
  O   O3        1.0  0.14985769850903927  0.5963055365472627  0.4005318365082098  1.0000
  O   O4        1.0  0.1498625226802741  0.21873302243332748  0.41605730385551465  1.0000
  O   O5        1.0  0.0009188967577740107  0.5961697392436207  0.40068978432356483  1.0000
  O   O6        1.0  0.0009022903448110378  0.40248298748487676  0.6179968816611812  1.0000
  O   O7        1.0  0.0009403945040413771  0.41228702683120794  0.1989063741952739  1.0000
  O   O8        1.0  0.0009237211355190874  0.21859871501605177  0.41621354925486953  1.0000
