data_image0
_chemical_formula_structural       NC9NC5H8C6SCOC6H10C6OC6OH11Zn2C4O8
_chemical_formula_sum              "N2 C43 H29 S1 O11 Zn2"
_cell_length_a       17.807436237873137
_cell_length_b       10.30203810924657
_cell_length_c       10.299362532796529
_cell_angle_alpha    85.5856087193975
_cell_angle_beta     89.40785739381337
_cell_angle_gamma    88.40854036149848

_space_group_name_H-M_alt    "P 1"
_space_group_IT_number       1

loop_
  _space_group_symop_operation_xyz
  'x, y, z'

loop_
  _atom_site_type_symbol
  _atom_site_label
  _atom_site_symmetry_multiplicity
  _atom_site_fract_x
  _atom_site_fract_y
  _atom_site_fract_z
  _atom_site_occupancy
  N   N1        1.0  0.7074489112426656  0.3869754729195687  0.5573019485168889  1.0000
  C   C1        1.0  0.6468531336066355  0.3517911300487979  0.5462739552619751  1.0000
  C   C2        1.0  0.5714786462657183  0.3080256822149299  0.5325563290660418  1.0000
  C   C3        1.0  0.553357837037466  0.23659656776393562  0.4275457253664481  1.0000
  C   C4        1.0  0.48017306591546105  0.1939921968029101  0.41414415348408856  1.0000
  C   C5        1.0  0.4240603101785997  0.22243949433815824  0.505720689395605  1.0000
  C   C6        1.0  0.346283798182611  0.17727693357028237  0.49156037649010287  1.0000
  C   C7        1.0  0.2841266578187786  0.25902069206881784  0.5175087557770468  1.0000
  C   C8        1.0  0.2107995460860886  0.2162133374436488  0.5041208410203444  1.0000
  C   C9        1.0  0.1475928733969382  0.30064789135891656  0.530433437888596  1.0000
  N   N2        1.0  0.09678769564746117  0.36852743151776596  0.5515880385996885  1.0000
  C   C10       1.0  0.1990459778950112  0.09140430060211834  0.46475916700183467  1.0000
  C   C11       1.0  0.2603457445695869  0.009646690701512025  0.4388023964375487  1.0000
  C   C12       1.0  0.3335533197452656  0.052059540784240146  0.45198772759611544  1.0000
  C   C13       1.0  0.4428726496154454  0.29436291899367406  0.6109505795978529  1.0000
  C   C14       1.0  0.5161102327473435  0.33677689566698277  0.6241964792537427  1.0000
  H   H1        1.0  0.5957375830617019  0.21409523227514882  0.3558307624554626  1.0000
  H   H2        1.0  0.4672378076344427  0.14029815335815954  0.3312178861476589  1.0000
  H   H3        1.0  0.29264671205335613  0.3564701491185919  0.5463970797309843  1.0000
  H   H4        1.0  0.142572986443893  0.05737348541451715  0.45416034635560937  1.0000
  H   H5        1.0  0.2511273146625263  0.9130167668679227  0.40871376503530277  1.0000
  H   H6        1.0  0.38017898180144194  0.9863250460706144  0.43293171233878586  1.0000
  H   H7        1.0  0.4012098817129476  0.316325730219561  0.6839599695376102  1.0000
  H   H8        1.0  0.5295739085236879  0.3916909072359955  0.7060812697837444  1.0000
  C   C15       1.0  0.9020507324466219  0.9964762183082324  0.5544058482342764  1.0000
  C   C16       1.0  0.837815499120004  0.0042646625867772655  0.4758297713005881  1.0000
  C   C17       1.0  0.8062080149210549  0.8911644674237682  0.4362444786020345  1.0000
  C   C18       1.0  0.838057125302465  0.7691205984633648  0.47577221962053584  1.0000
  C   C19       1.0  0.9021930751179258  0.7590163997576936  0.5544953327139716  1.0000
  C   C20       1.0  0.9338977740348511  0.8733610736071074  0.5933183158436086  1.0000
  S   S1        1.0  0.7246723506960783  0.9025308399552273  0.3348330149995291  1.0000
  C   C21       1.0  0.7798818350001439  0.9083637062777423  0.18760224924430635  1.0000
  O   O1        1.0  0.7979888646932589  0.8022235629597824  0.14098692654080547  1.0000
  C   C22       1.0  0.8046480542489954  0.03333597800152454  0.1217418802346568  1.0000
  C   C23       1.0  0.8577472202484404  0.0331276144887691  0.01945707976046318  1.0000
  C   C24       1.0  0.8818822407475985  0.1503009672453819  0.9573803954567554  1.0000
  C   C25       1.0  0.8533242902424361  0.26890303617015254  0.9963003935450239  1.0000
  C   C26       1.0  0.8004508472053611  0.27057286582213974  0.09722885070312426  1.0000
  C   C27       1.0  0.7760654713920889  0.15371511307554628  0.15962937858667825  1.0000
  H   H9        1.0  0.02303964489922117  0.18910411436442034  0.7026825795111691  1.0000
  H   H10       1.0  0.8122516043742748  0.09798828403139681  0.4449294542327365  1.0000
  H   H11       1.0  0.8127351803741342  0.6825590699367617  0.44437982552736544  1.0000
  H   H12       1.0  0.9834189364749668  0.8664364011874435  0.6538919043216724  1.0000
  H   H13       1.0  0.9267085151605982  0.4278539548747593  0.5841018292375082  1.0000
  H   H14       1.0  0.880981608669301  0.9424524700912105  0.9878188310410319  1.0000
  H   H15       1.0  0.9228504566149572  0.14908910498117575  0.8790823199340981  1.0000
  H   H16       1.0  0.8720948986342202  0.3595031856486669  0.9481511072245632  1.0000
  H   H17       1.0  0.7782007687594436  0.3625837115762047  0.12709201731598174  1.0000
  H   H18       1.0  0.7346570063013608  0.15833519237854898  0.23680158838393248  1.0000
  C   C28       1.0  0.9020632387484872  0.3776285780755861  0.17308454384972505  1.0000
  C   C29       1.0  0.8307396218360396  0.3223415645926748  0.17741188993478474  1.0000
  C   C30       1.0  0.8309512133671454  0.3224950573397476  0.9421545044267217  1.0000
  C   C31       1.0  0.902180554204304  0.37786401581267903  0.9358166261642356  1.0000
  C   C32       1.0  0.937263919766665  0.405369784366582  0.05182740836727895  1.0000
  C   C33       1.0  0.7195082225028641  0.2360628137430014  0.06932281158279174  1.0000
  O   O2        1.0  0.7041447105788217  0.1576031956275434  0.16543533968589874  1.0000
  C   C34       1.0  0.6620061636600589  0.26533227886714333  0.9672550786068674  1.0000
  C   C35       1.0  0.6562520328365462  0.388947870957411  0.8995009349223061  1.0000
  C   C36       1.0  0.6012683457264795  0.41572696192174874  0.8046151808303609  1.0000
  C   C37       1.0  0.5507151555952401  0.32048146167478525  0.7762965586355302  1.0000
  C   C38       1.0  0.5556792636843046  0.1970968112267819  0.8449805358116816  1.0000
  C   C39       1.0  0.6106561947560486  0.1701908717955476  0.9399387787961766  1.0000
  O   O3        1.0  0.49663992099555304  0.35219629313371925  0.6801091083069233  1.0000
  H   H19       1.0  0.03677900878267293  0.4814577727271236  0.3722250201526085  1.0000
  H   H20       1.0  0.8029198850689777  0.30092426581644527  0.270351518638555  1.0000
  H   H21       1.0  0.8040909480708645  0.29869372329180993  0.8534916177607225  1.0000
  H   H22       1.0  0.992212356916267  0.4480787147896523  0.047670977072809206  1.0000
  H   H23       1.0  0.6937120579818344  0.46540484420460615  0.9207847766351298  1.0000
  H   H24       1.0  0.5977067143087837  0.5113321956265291  0.7531152728186283  1.0000
  H   H25       1.0  0.5173564156232429  0.12136634487948371  0.825806214785099  1.0000
  H   H26       1.0  0.6134878900903987  0.07443839991665137  0.9913361852345409  1.0000
  H   H27       1.0  0.4065698365303705  0.3154077570173643  0.563970015808688  1.0000
  H   H28       1.0  0.4051577005917845  0.2345860059613751  0.7256140994360809  1.0000
  H   H29       1.0  0.46983697947206216  0.17842711531025746  0.6024530029493107  1.0000
  Zn  Zn1       1.0  0.8198036735568366  0.3816483045557362  0.5556605478711998  1.0000
  Zn  Zn2       1.0  0.9844329148028341  0.3738440196081716  0.5532401145350423  1.0000
  C   C40       1.0  0.902155727520663  0.37264719829231135  0.791643335081629  1.0000
  C   C41       1.0  0.9020826589105556  0.3828466789047826  0.3172574285512321  1.0000
  C   C42       1.0  0.9021614855485582  0.6148786511793327  0.5493033205300317  1.0000
  C   C43       1.0  0.9020768444257197  0.14061366878353757  0.5595975129838583  1.0000
  O   O4        1.0  0.964565114517539  0.3816305713984583  0.3647246231912322  1.0000
  O   O5        1.0  0.9646230565177487  0.36793905450545905  0.7423387135863813  1.0000
  O   O6        1.0  0.9646268642002319  0.563544056488352  0.5466474497810985  1.0000
  O   O7        1.0  0.9645612506450052  0.18602558133651592  0.5604157904496025  1.0000
  O   O8        1.0  0.8396752815347842  0.5694667454920221  0.5484848727757836  1.0000
  O   O9        1.0  0.8396714741293605  0.37386330340798346  0.7441760675191815  1.0000
  O   O10       1.0  0.8396135319305386  0.38755477457179105  0.36656041572910136  1.0000
  O   O11       1.0  0.839609668068174  0.19194977525352863  0.5622516803535291  1.0000
