data_image0
_chemical_formula_structural       NC8NH4C6ClH5C6NH7Zn2C4O8
_chemical_formula_sum              "N3 C24 H16 Cl1 Zn2 O8"
_cell_length_a       11.048855714531884
_cell_length_b       9.276545438789551
_cell_length_c       9.274774538082513
_cell_angle_alpha    85.10039089897613
_cell_angle_beta     90.34967076044033
_cell_angle_gamma    89.40961225544244

_space_group_name_H-M_alt    "P 1"
_space_group_IT_number       1

loop_
  _space_group_symop_operation_xyz
  'x, y, z'

loop_
  _atom_site_type_symbol
  _atom_site_label
  _atom_site_symmetry_multiplicity
  _atom_site_fract_x
  _atom_site_fract_y
  _atom_site_fract_z
  _atom_site_occupancy
  N   N1        1.0  0.11775802892940515  0.5919034800051937  0.4089836243389302  1.0000
  C   C1        1.0  0.0633054543878655  0.5347021654591155  0.32385439419272766  1.0000
  C   C2        1.0  0.9953654221807741  0.4633312345562332  0.21763714323909444  1.0000
  C   C3        1.0  0.8676486689714604  0.4633310431157682  0.21763724497834722  1.0000
  C   C4        1.0  0.8049507471363616  0.39277769010976654  0.11263704574135192  1.0000
  C   C5        1.0  0.8684482807857332  0.3227824152873917  0.008467317593483063  1.0000
  C   C6        1.0  0.9948544942755496  0.32278230497720894  0.008467340221315569  1.0000
  C   C7        1.0  0.05820828495749586  0.3927777887766537  0.1126370180481131  1.0000
  C   C8        1.0  0.7995620325933268  0.5347022404987478  0.3238543810877479  1.0000
  N   N2        1.0  0.7449919148493455  0.5919035224211902  0.4089836531917863  1.0000
  H   H1        1.0  0.7068894103366818  0.39189420403682185  0.11132154814196828  1.0000
  H   H2        1.0  0.8196061974900102  0.2684924401992347  0.9276714678061517  1.0000
  H   H3        1.0  0.0438082377676805  0.2684925496156372  0.9276714672610517  1.0000
  H   H4        1.0  0.15627142395507848  0.39189415259847515  0.11132182357999243  1.0000
  C   C9        1.0  0.43503229816383393  0.168470411426431  0.40874572571412293  1.0000
  C   C10       1.0  0.4347863588858075  0.25328106058904737  0.2755362896655078  1.0000
  C   C11       1.0  0.4235445854833918  0.18933561982953528  0.14522618022693523  1.0000
  C   C12       1.0  0.4122882614672333  0.03973669290456371  0.14612071777480717  1.0000
  C   C13       1.0  0.41438855456060253  0.9534089052242273  0.2768850930265747  1.0000
  C   C14       1.0  0.4277294511719501  0.015325389762548493  0.40923403345787324  1.0000
  Cl  Cl1       1.0  0.42173599071015105  0.2973908040989374  0.9804611122400635  1.0000
  H   H5        1.0  0.4981312566303313  0.4294549326746608  0.6356491192243425  1.0000
  H   H6        1.0  0.44044238404283276  0.37002649115062014  0.27267889622322117  1.0000
  H   H7        1.0  0.4030616490070249  0.9898923858631314  0.04530503607447311  1.0000
  H   H8        1.0  0.40845750431108363  0.8371715333318861  0.2742312348708231  1.0000
  H   H9        1.0  0.3883907819305124  0.71455902186901  0.642607226659565  1.0000
  C   C15       1.0  0.4291769952078227  0.5955858381964949  0.985175684861924  1.0000
  C   C16       1.0  0.5142027624133306  0.6806770398393691  0.0519612584061182  1.0000
  C   C17       1.0  0.604760731361045  0.7538904424053107  0.9712385570937361  1.0000
  C   C18       1.0  0.6110286218979335  0.7423446925302537  0.8222544847854376  1.0000
  C   C19       1.0  0.5263637633236979  0.6604299247541001  0.7537681802023766  1.0000
  C   C20       1.0  0.43358471442963015  0.5882098840629293  0.8328040583761407  1.0000
  N   N3        1.0  0.6911776617973504  0.8387810397536606  0.041029260138964574  1.0000
  H   H10       1.0  0.2506974330301657  0.3137132598492578  0.11093347019107491  1.0000
  H   H11       1.0  0.5119651891078418  0.6875157342000268  0.16798533087661505  1.0000
  H   H12       1.0  0.6809532114542072  0.7980552087413593  0.758755837419903  1.0000
  H   H13       1.0  0.5317953165575083  0.656419018692902  0.6375928180828443  1.0000
  H   H14       1.0  0.30961754091426613  0.4027484520239815  0.5666153389890156  1.0000
  H   H15       1.0  0.6875851037880444  0.8478233504823021  0.15240439671462247  1.0000
  H   H16       1.0  0.7593651266931061  0.8933576461375317  0.9818186435847022  1.0000
  Zn  Zn1       1.0  0.2987642704569265  0.5918995514305239  0.40899196177533415  1.0000
  Zn  Zn2       1.0  0.5639858638573528  0.5918955215310897  0.408987120294092  1.0000
  C   C21       1.0  0.4327984041138056  0.5838598052312167  0.6725808356403609  1.0000
  C   C22       1.0  0.42995461145937247  0.5999370858092263  0.1453983890783357  1.0000
  C   C23       1.0  0.4290736849150352  0.8553017850101233  0.4033905686546695  1.0000
  C   C24       1.0  0.43367925549606917  0.3284933729618442  0.41458873201147406  1.0000
  O   O1        1.0  0.530865853306185  0.6013895842719683  0.19916875132176282  1.0000
  O   O2        1.0  0.5331842220681233  0.5824031639996643  0.6188063827434493  1.0000
  O   O3        1.0  0.530175115200222  0.8015959824855059  0.4014333384759625  1.0000
  O   O4        1.0  0.5338748690202604  0.3821967770440577  0.4165416873846579  1.0000
  O   O5        1.0  0.32887517478685263  0.8015982959205671  0.4014373946788299  1.0000
  O   O6        1.0  0.33188426630966156  0.5824072105062119  0.618810362992932  1.0000
  O   O7        1.0  0.3295658890384661  0.6013935956301601  0.19917099636213886  1.0000
  O   O8        1.0  0.33257490539920154  0.38220077714733036  0.4165440406236869  1.0000
