data_image0
_chemical_formula_structural       NC6NC2H4C9H8C6OCH7Zn2C4O8
_chemical_formula_sum              "N2 C28 H19 O9 Zn2"
_cell_length_a       14.927258858638513
_cell_length_b       9.275152443626249
_cell_length_c       9.273891588657152
_cell_angle_alpha    85.88202133130156
_cell_angle_beta     89.68012649256188
_cell_angle_gamma    90.5735452640029

_space_group_name_H-M_alt    "P 1"
_space_group_IT_number       1

loop_
  _space_group_symop_operation_xyz
  'x, y, z'

loop_
  _atom_site_type_symbol
  _atom_site_label
  _atom_site_symmetry_multiplicity
  _atom_site_fract_x
  _atom_site_fract_y
  _atom_site_fract_z
  _atom_site_occupancy
  N   N1        1.0  0.8588320637512381  0.5643934966296913  0.40468641662693516  1.0000
  C   C1        1.0  0.7813055723697194  0.5643934682064633  0.40468642731244864  1.0000
  C   C2        1.0  0.6848730657130446  0.5643935828914919  0.4046863770625735  1.0000
  C   C3        1.0  0.638105236060577  0.5395518680893361  0.2781002609092742  1.0000
  C   C4        1.0  0.5443939253321807  0.5395518925289283  0.2781001273817975  1.0000
  C   C5        1.0  0.4970570005509769  0.5643934054528128  0.40468639630141956  1.0000
  C   C6        1.0  0.4006244269028047  0.564393520140754  0.4046863460456105  1.0000
  N   N2        1.0  0.3230979355212864  0.564393491717526  0.4046863567311243  1.0000
  C   C7        1.0  0.5438247632119474  0.5892351202578814  0.5312725124487854  1.0000
  C   C8        1.0  0.637536073940344  0.5892350958182888  0.5312726459762616  1.0000
  H   H1        1.0  0.6740228253298466  0.5202236122189157  0.17960899733293734  1.0000
  H   H2        1.0  0.5089191710669942  0.5202238097751385  0.17960899171725875  1.0000
  H   H3        1.0  0.5079072404974306  0.6085633667829409  0.6297638841303945  1.0000
  H   H4        1.0  0.6730108284346499  0.6085632769250602  0.6297638913184067  1.0000
  C   C9        1.0  0.0883215919305096  0.14077447375937768  0.4061579294666046  1.0000
  C   C10       1.0  0.0564225625301609  0.22240857509371592  0.283706143383793  1.0000
  C   C11       1.0  0.03285857786646851  0.15584123621072105  0.15896175364995524  1.0000
  C   C12       1.0  0.04082536742987575  0.006456308292424719  0.15419924789049633  1.0000
  C   C13       1.0  0.07097612697135715  0.923124719001126  0.2756161578608758  1.0000
  C   C14       1.0  0.09361689087729763  0.9880015393752204  0.403227332370262  1.0000
  C   C15       1.0  0.016995103689915855  0.9381407626934002  0.02501858690300618  1.0000
  C   C16       1.0  0.9970428602622895  0.8809090355398093  0.9168500374172508  1.0000
  C   C17       1.0  0.9728347649407387  0.811456456494645  0.7856064732410535  1.0000
  H   H5        1.0  0.21606411650087265  0.22502425039260657  0.6940171001344715  1.0000
  H   H6        1.0  0.05170510567032596  0.3389219688516319  0.28325275597414357  1.0000
  H   H7        1.0  0.009225432296050771  0.22123838025207143  0.06561107379570585  1.0000
  H   H8        1.0  0.07476162462443361  0.8067783945736001  0.27159525765075143  1.0000
  H   H9        1.0  0.17673982597887483  0.6944793097160511  0.6001133408287744  1.0000
  H   H10       1.0  0.9891657279103444  0.6948561719804082  0.7990720060826617  1.0000
  H   H11       1.0  0.8999886834899914  0.8238609136464604  0.7658741788670371  1.0000
  H   H12       1.0  0.010984938167464708  0.862962841360087  0.6923084199782359  1.0000
  C   C18       1.0  0.09241293731406947  0.5605674612748568  0.9814305322560868  1.0000
  C   C19       1.0  0.16615715444102563  0.6214979764061328  0.049793469210832164  1.0000
  C   C20       1.0  0.2348872486029998  0.6932004112913346  0.9697357004124201  1.0000
  C   C21       1.0  0.23011955343773072  0.7043338018439634  0.8182565774648112  1.0000
  C   C22       1.0  0.15825195079987214  0.6425298159781763  0.7485544638445032  1.0000
  C   C23       1.0  0.08952551782433729  0.5682084646968437  0.8279547428611032  1.0000
  O   O1        1.0  0.3061738620916348  0.7523548026374336  0.04473768887225216  1.0000
  C   C24       1.0  0.38041860848351344  0.8282740395743562  0.9773987084102034  1.0000
  H   H13       1.0  0.8787762811579234  0.47196617425889986  0.0927542563421648  1.0000
  H   H14       1.0  0.2820689721649443  0.759419285037523  0.7531438976337808  1.0000
  H   H15       1.0  0.15757558188137188  0.6499645816041393  0.6314475708515825  1.0000
  H   H16       1.0  0.9470189381621662  0.5028383322910772  0.5527382187690173  1.0000
  H   H17       1.0  0.35698166965343403  0.925893466970656  0.9126654656782374  1.0000
  H   H18       1.0  0.4173239661566845  0.7566798799714026  0.9072336829451529  1.0000
  H   H19       1.0  0.42649140096954397  0.8627550119694058  0.06212298083737222  1.0000
  Zn  Zn1       1.0  0.9928091210620523  0.5643897049396954  0.4046947411539765  1.0000
  Zn  Zn2       1.0  0.1891207749121414  0.5643855740819064  0.40468989660774635  1.0000
  C   C25       1.0  0.0900333999855607  0.5610173470574129  0.6679634374239236  1.0000
  C   C26       1.0  0.09189865059948676  0.5677597533509001  0.14142133545755864  1.0000
  C   C27       1.0  0.09263094063900493  0.8278057171470117  0.39803764499270256  1.0000
  C   C28       1.0  0.08930103186397864  0.3009696507948614  0.4113472107299061  1.0000
  O   O2        1.0  0.1662252614945241  0.5701656912116153  0.19511389383493277  1.0000
  O   O3        1.0  0.16470278663370141  0.5586071819645058  0.6142667909995041  1.0000
  O   O4        1.0  0.16679932416426096  0.7740421783604519  0.3962997986779617  1.0000
  O   O5        1.0  0.16412865740921267  0.3547307041610299  0.41308077805120214  1.0000
  O   O6        1.0  0.017801171573484056  0.7740445748634833  0.3963038597045876  1.0000
  O   O7        1.0  0.015704645133492127  0.55861131093689  0.6142707691790695  1.0000
  O   O8        1.0  0.01722712565049767  0.5701697542723209  0.19511613926853852  1.0000
  O   O9        1.0  0.015130521128441607  0.3547347578792863  0.413083131584147  1.0000
