data_image0
_chemical_formula_structural       NC9NC5H8C7ONH7C7F3H5Zn2C4O8
_chemical_formula_sum              "N3 C32 H20 O9 F3 Zn2"
_cell_length_a       17.807436237873137
_cell_length_b       10.297852080636378
_cell_length_c       9.272721663655245
_cell_angle_alpha    85.87639669813234
_cell_angle_beta     89.9168972107098
_cell_angle_gamma    88.36921327777658

_space_group_name_H-M_alt    "P 1"
_space_group_IT_number       1

loop_
  _space_group_symop_operation_xyz
  'x, y, z'

loop_
  _atom_site_type_symbol
  _atom_site_label
  _atom_site_symmetry_multiplicity
  _atom_site_fract_x
  _atom_site_fract_y
  _atom_site_fract_z
  _atom_site_occupancy
  N   N1        1.0  0.6996021404193044  0.3804106330676831  0.39806290087381346  1.0000
  C   C1        1.0  0.638964572667282  0.34515621804384233  0.38582377504268206  1.0000
  C   C2        1.0  0.5635381029380041  0.3013036080835818  0.37059963141877605  1.0000
  C   C3        1.0  0.5449146327063441  0.2293217675703709  0.2540213264602418  1.0000
  C   C4        1.0  0.4716790161961559  0.18663230904424008  0.23914792701511844  1.0000
  C   C5        1.0  0.416018061699446  0.2155469196662796  0.3408168042335491  1.0000
  C   C6        1.0  0.3381878837096866  0.1702943905585641  0.3251013544755843  1.0000
  C   C7        1.0  0.2761294881888653  0.25220257243681155  0.35389961385456004  1.0000
  C   C8        1.0  0.2027516807763274  0.20931010991561338  0.33904140421165696  1.0000
  C   C9        1.0  0.1396445257446096  0.29391206558713634  0.3682436774148372  1.0000
  N   N2        1.0  0.088919358835068  0.36192619060788384  0.39172149850724836  1.0000
  C   C10       1.0  0.1908486461871834  0.08425130366290753  0.295356791440442  1.0000
  C   C11       1.0  0.2520496310870771  0.002329222677155189  0.2665492175058141  1.0000
  C   C12       1.0  0.32530703421016527  0.044826002834141405  0.28118256161005334  1.0000
  C   C13       1.0  0.43533397468666796  0.2880243745437914  0.45763850581755977  1.0000
  C   C14       1.0  0.5086216916136982  0.33052258268692536  0.4723390958224123  1.0000
  H   H1        1.0  0.5869406553085268  0.20645437493777696  0.1744029290266227  1.0000
  H   H2        1.0  0.4583457315193247  0.13250295964877767  0.1470863518230101  1.0000
  H   H3        1.0  0.2847569148099034  0.34983788145414696  0.3859598512042275  1.0000
  H   H4        1.0  0.1343355766594981  0.050153049579175546  0.28359400014871006  1.0000
  H   H5        1.0  0.2427174332349957  0.9055078397324657  0.23315623222576606  1.0000
  H   H6        1.0  0.3718624457742555  0.9789682809439062  0.2600344053418486  1.0000
  H   H7        1.0  0.39403169008503103  0.31035943972159447  0.5386941098662628  1.0000
  H   H8        1.0  0.5224776423446336  0.3858672560951144  0.5632442112034277  1.0000
  C   C15       1.0  0.8943444589672395  0.9897273502803898  0.3948994661485903  1.0000
  C   C16       1.0  0.8833565045915202  0.9990374458547345  0.2444426781267337  1.0000
  C   C17       1.0  0.8771220062853304  0.8866973966594878  0.16828256956865628  1.0000
  C   C18       1.0  0.8831663569398442  0.7637940173125967  0.2443960306473534  1.0000
  C   C19       1.0  0.8941842474809248  0.7525992300153632  0.3948972813839211  1.0000
  C   C20       1.0  0.8995235994023271  0.8660923429813646  0.46920268004854226  1.0000
  C   C21       1.0  0.8657027594673562  0.899122436780364  0.00934768352373561  1.0000
  O   O1        1.0  0.885435653218477  0.0009333292218267659  0.9372212308362634  1.0000
  N   N3        1.0  0.831791479180883  0.7985529192938354  0.9354526784083879  1.0000
  H   H9        1.0  0.915383393180443  0.17939144302155285  0.6791819503497953  1.0000
  H   H10       1.0  0.8789683403390083  0.09408371540739546  0.1863898167274638  1.0000
  H   H11       1.0  0.880770015469493  0.6764203433094191  0.18660243793596387  1.0000
  H   H12       1.0  0.9079902784831158  0.8581634764548968  0.5851616265600561  1.0000
  H   H13       1.0  0.9162102341344935  0.524126646635702  0.6790322931332204  1.0000
  H   H14       1.0  0.8274779735160208  0.807268923277867  0.8228601547350296  1.0000
  H   H15       1.0  0.8063969867502171  0.7198980558272046  0.9912726272665018  1.0000
  C   C22       1.0  0.8922771913144255  0.36915087388986695  0.9714875552974384  1.0000
  C   C23       1.0  0.9242715846451095  0.26138772911576513  0.053689416258792415  1.0000
  C   C24       1.0  0.9628485903623962  0.16103829637847003  0.9871566657024511  1.0000
  C   C25       1.0  0.9671299300204436  0.1668164070295854  0.8359370735336991  1.0000
  C   C26       1.0  0.9346908901975488  0.27189629154142025  0.752774169985774  1.0000
  C   C27       1.0  0.8962515608967154  0.3731757232718005  0.8183092210117628  1.0000
  C   C28       1.0  0.9950225182211686  0.04467623775930729  0.07698067256983898  1.0000
  F   F1        1.0  0.0203134029357388  0.0812269287634737  0.20880143969892617  1.0000
  F   F2        1.0  0.05491465963769615  0.988105657207149  0.006885543725333671  1.0000
  F   F3        1.0  0.9398902714483139  0.953797519138781  0.10091497745779598  1.0000
  H   H16       1.0  0.8445941629766831  0.6807241212486816  0.04848170527634866  1.0000
  H   H17       1.0  0.9205215643297504  0.25695111151501404  0.17059616027498792  1.0000
  H   H18       1.0  0.994912111622644  0.08919433796291831  0.781577160499527  1.0000
  H   H19       1.0  0.9379098618950272  0.27215888975838465  0.6360671180632735  1.0000
  H   H20       1.0  0.7613960445178467  0.5986613237655662  0.699213591559781  1.0000
  Zn  Zn1       1.0  0.8119507186101549  0.3750729959523568  0.39624124792090293  1.0000
  Zn  Zn2       1.0  0.9765708203022523  0.36725329588867983  0.39355500508638785  1.0000
  C   C29       1.0  0.8954997152459383  0.3672403491722034  0.6582418532310945  1.0000
  C   C30       1.0  0.8930236216329098  0.37508749687958365  0.1315545119562167  1.0000
  C   C31       1.0  0.894183721082328  0.608373079348407  0.3891521186774891  1.0000
  C   C32       1.0  0.8943395603116479  0.13395320913983522  0.4006443243022777  1.0000
  O   O2        1.0  0.9557466023236817  0.3741066795538812  0.18425502970023144  1.0000
  O   O3        1.0  0.9577195809473785  0.3622852132048897  0.6035021242752059  1.0000
  O   O4        1.0  0.9566560638948067  0.557002989491276  0.3862102735072792  1.0000
  O   O5        1.0  0.9568100626932289  0.17938891471397644  0.40154677327556  1.0000
  O   O6        1.0  0.8317114200423809  0.5629373797969177  0.38824948064082965  1.0000
  O   O7        1.0  0.8327749364030272  0.36822116374393393  0.6055412545254  1.0000
  O   O8        1.0  0.8308019497029011  0.3800425765868099  0.18629242642097532  1.0000
  O   O9        1.0  0.8318654105786759  0.18532480297028142  0.40358427809800146  1.0000
