data_image0
_chemical_formula_structural       NC12NC2H8C7NH5C6NH7Zn2C4O8
_chemical_formula_sum              "N4 C31 H20 Zn2 O8"
_cell_length_a       19.240039667572717
_cell_length_b       9.275154477615127
_cell_length_c       9.274774538082514
_cell_angle_alpha    85.29330631285735
_cell_angle_beta     90.34966360595384
_cell_angle_gamma    89.43370810513201

_space_group_name_H-M_alt    "P 1"
_space_group_IT_number       1

loop_
  _space_group_symop_operation_xyz
  'x, y, z'

loop_
  _atom_site_type_symbol
  _atom_site_label
  _atom_site_symmetry_multiplicity
  _atom_site_fract_x
  _atom_site_fract_y
  _atom_site_fract_z
  _atom_site_occupancy
  N   N1        1.0  0.6422286779670203  0.591684177953602  0.41436750681649254  1.0000
  C   C1        1.0  0.5820803084349809  0.59168427197794  0.41436741613566036  1.0000
  C   C2        1.0  0.5072622702197728  0.5916844035109161  0.41436726407447333  1.0000
  C   C3        1.0  0.4714715390644468  0.5191176871736374  0.5289991332419084  1.0000
  C   C4        1.0  0.3988016629238338  0.5189937553579812  0.5290948122974051  1.0000
  C   C5        1.0  0.3609300340392022  0.5916845084754043  0.4143670114709368  1.0000
  C   C6        1.0  0.39743408320014717  0.6643754672914253  0.2996394276605263  1.0000
  C   C7        1.0  0.47010564527195525  0.6642512728517953  0.2997352418010155  1.0000
  C   C8        1.0  0.28372494369828405  0.5916844220738126  0.41436690508985774  1.0000
  C   C9        1.0  0.24727354893507528  0.4655433951390433  0.46039333037978647  1.0000
  C   C10       1.0  0.17460199373923596  0.46566295374864564  0.46029231848561203  1.0000
  C   C11       1.0  0.1373926576585806  0.591684278083775  0.4143669722035803  1.0000
  C   C12       1.0  0.0625746219281597  0.5916841494058376  0.41436724802615577  1.0000
  N   N2        1.0  0.0024263059824336988  0.5916841020683302  0.41436747945370644  1.0000
  C   C13       1.0  0.1731308318590982  0.7177056871104235  0.3684415674827297  1.0000
  C   C14       1.0  0.24580065977584697  0.7178254472540473  0.36834037570304573  1.0000
  H   H1        1.0  0.49971743067038216  0.46292840030436283  0.6185023153862903  1.0000
  H   H2        1.0  0.3722388691096291  0.46367965901532976  0.6198411610798797  1.0000
  H   H3        1.0  0.3698103459149079  0.719689594158377  0.20889302249218256  1.0000
  H   H4        1.0  0.4972895265724668  0.7204404457455444  0.21023236569279047  1.0000
  H   H5        1.0  0.2749405660551189  0.3662664130441038  0.4946328100936881  1.0000
  H   H6        1.0  0.1474595739517131  0.3673741911106059  0.4956836900573524  1.0000
  H   H7        1.0  0.1448434283765347  0.8159944223681792  0.33305021197138585  1.0000
  H   H8        1.0  0.2723201209068206  0.8171025176797921  0.33410084658780353  1.0000
  C   C15       1.0  0.8243370984928556  0.1683093897172936  0.41269745314912387  1.0000
  C   C16       1.0  0.8048796305122179  0.2525956154223985  0.28545278811964936  1.0000
  C   C17       1.0  0.7797889619250004  0.1876056853100152  0.1649484638703249  1.0000
  C   C18       1.0  0.7737443181516162  0.03743886269686382  0.1702696049569279  1.0000
  C   C19       1.0  0.7938373036445153  0.9519701982283024  0.29461382899040855  1.0000
  C   C20       1.0  0.8203246524276853  0.015047738439507352  0.4160499749161859  1.0000
  C   C21       1.0  0.7594022418841279  0.27548706734621575  0.03617016893568459  1.0000
  N   N3        1.0  0.7430169657319148  0.34612750545337134  0.9326654060717662  1.0000
  H   H9        1.0  0.8388707136412543  0.24189818871705082  0.7669446541998721  1.0000
  H   H10       1.0  0.8077053006988745  0.36959227322142035  0.2811707054003636  1.0000
  H   H11       1.0  0.7540902228784101  0.9861181211511196  0.07765446356338979  1.0000
  H   H12       1.0  0.7901872641869344  0.8355037076790534  0.2944868223089401  1.0000
  H   H13       1.0  0.8330564523394777  0.7142122918149669  0.6534056755412777  1.0000
  C   C22       1.0  0.8210660636746364  0.595366002640791  0.9905719774370166  1.0000
  C   C23       1.0  0.869911491980563  0.6804454798972813  0.05764532931050792  1.0000
  C   C24       1.0  0.9219313194946153  0.7536487931953808  0.9771702331597636  1.0000
  C   C25       1.0  0.9255282691446134  0.742104632652806  0.8281471106164928  1.0000
  C   C26       1.0  0.8768907776827314  0.6602011518333668  0.7593837707980456  1.0000
  C   C27       1.0  0.8235956773523584  0.5879910638113937  0.8381754038143459  1.0000
  N   N4        1.0  0.9715755993446155  0.838527693662711  0.047248035865167466  1.0000
  H   H14       1.0  0.7185113821096177  0.3135322536626129  0.11537645545714705  1.0000
  H   H15       1.0  0.8686279992158272  0.6872832327508929  0.17369253152225284  1.0000
  H   H16       1.0  0.9656953488907746  0.7978074715177541  0.7648368741202951  1.0000
  H   H17       1.0  0.8800090625495665  0.6561907976179678  0.6431948424612554  1.0000
  H   H18       1.0  0.7523661232669179  0.40255518057468476  0.571359445415216  1.0000
  H   H19       1.0  0.9695144599294466  0.8475687595585318  0.15865375531397707  1.0000
  H   H20       1.0  0.010744868724823942  0.8930967789887432  0.9882219953843837  1.0000
  Zn  Zn1       1.0  0.7461739849618775  0.5916802345529477  0.41437580530189244  1.0000
  Zn  Zn2       1.0  0.8984811086385701  0.5916761826918182  0.41437091258645703  1.0000
  C   C28       1.0  0.8231431964793788  0.5836415840578877  0.677937468613004  1.0000
  C   C29       1.0  0.8215135521126493  0.5997166510151117  0.1508093980732057  1.0000
  C   C30       1.0  0.8210623460781062  0.8550461862432404  0.40966525702213996  1.0000
  C   C31       1.0  0.8235943589799934  0.3283103159999348  0.41908167975004607  1.0000
  O   O1        1.0  0.8794635228058874  0.6011689408998473  0.20458465856253594  1.0000
  O   O2        1.0  0.8807908124239254  0.582185134885214  0.6241580749178113  1.0000
  O   O3        1.0  0.8791097247190824  0.8013477704934661  0.4075263719481381  1.0000
  O   O4        1.0  0.8811445581668101  0.382006316547983  0.4212162533657063  1.0000
  O   O5        1.0  0.7635104834586608  0.8013501006998013  0.40753046451672803  1.0000
  O   O6        1.0  0.7651915627224557  0.5821891979243904  0.6241620973945095  1.0000
  O   O7        1.0  0.7638642682103345  0.601172968795509  0.2045869457112517  1.0000
  O   O8        1.0  0.7655453039402013  0.38201033319027466  0.4212186486750098  1.0000
