data_image0
_chemical_formula_structural       NC9NC5H8C9H10C8NH10Zn2C4O8
_chemical_formula_sum              "N3 C35 H28 Zn2 O8"
_cell_length_a       17.807436237873137
_cell_length_b       9.272676604525724
_cell_length_c       9.275652972338536
_cell_angle_alpha    86.18554014345204
_cell_angle_beta     89.8368236096327
_cell_angle_gamma    88.94495835625186

_space_group_name_H-M_alt    "P 1"
_space_group_IT_number       1

loop_
  _space_group_symop_operation_xyz
  'x, y, z'

loop_
  _atom_site_type_symbol
  _atom_site_label
  _atom_site_symmetry_multiplicity
  _atom_site_fract_x
  _atom_site_fract_y
  _atom_site_fract_z
  _atom_site_occupancy
  N   N1        1.0  0.7088028643570242  0.5303686764930311  0.40525056138019555  1.0000
  C   C1        1.0  0.6479695800302181  0.491223195231586  0.3928486137332021  1.0000
  C   C2        1.0  0.5722996604488094  0.44253052734666437  0.3774219377082022  1.0000
  C   C3        1.0  0.5533442338906207  0.3624983873276604  0.2605469322883176  1.0000
  C   C4        1.0  0.4798716640149683  0.31509718792979413  0.2454763931435979  1.0000
  C   C5        1.0  0.4243035449999376  0.3473087718313568  0.34724304926936145  1.0000
  C   C6        1.0  0.3462221493563599  0.29706166816257795  0.3313186036808904  1.0000
  C   C7        1.0  0.2846182032314941  0.38801055872703905  0.3604950128743907  1.0000
  C   C8        1.0  0.2110022521878256  0.3403840483343883  0.34543869252736026  1.0000
  C   C9        1.0  0.14836489353029403  0.4343234149212824  0.3750317639976064  1.0000
  N   N2        1.0  0.0980174095400946  0.5098441743515723  0.39882375941342385  1.0000
  C   C10       1.0  0.19840514595903086  0.20152206281285268  0.30117660292653414  1.0000
  C   C11       1.0  0.25915160761751493  0.11055773390650982  0.27199081673674774  1.0000
  C   C12       1.0  0.3326450223548787  0.15774478918974943  0.28682047824372403  1.0000
  C   C13       1.0  0.4439541130462181  0.4278913099255739  0.46436371245790964  1.0000
  C   C14       1.0  0.5174778002083542  0.4750800277571585  0.47926060040863705  1.0000
  H   H1        1.0  0.595296255047945  0.3370244600265522  0.18085089817064715  1.0000
  H   H2        1.0  0.4662920002074196  0.25490905620821946  0.153193419141316  1.0000
  H   H3        1.0  0.293789012714625  0.49641986178436565  0.3930068933001647  1.0000
  H   H4        1.0  0.1417027229719794  0.1636604355829141  0.28925630027100396  1.0000
  H   H5        1.0  0.2492817386467278  0.0030503285442893342  0.23815057792506497  1.0000
  H   H6        1.0  0.3788335545027608  0.0846202600529875  0.26536748989315706  1.0000
  H   H7        1.0  0.4027216765071558  0.4527760262011078  0.5454938615899276  1.0000
  H   H8        1.0  0.531588042909211  0.5366158004023756  0.5703933435767294  1.0000
  C   C15       1.0  0.9012784347530767  0.09671799399623593  0.40023106242931145  1.0000
  C   C16       1.0  0.871687401651872  0.16318469707537564  0.5200941086219821  1.0000
  C   C17       1.0  0.848981691790998  0.08107612399983634  0.6433662146217072  1.0000
  C   C18       1.0  0.8551349731005162  0.9300541464719049  0.6509227765418397  1.0000
  C   C19       1.0  0.8834911266350975  0.8621953865435608  0.5299695951637322  1.0000
  C   C20       1.0  0.9055490315241315  0.9434834829447769  0.403855620667096  1.0000
  C   C21       1.0  0.8298055312071527  0.8487102895808571  0.7898028064306599  1.0000
  C   C22       1.0  0.7917915446731283  0.7045233735686796  0.776079141004363  1.0000
  C   C23       1.0  0.8713354478999903  0.7081847564365926  0.8357544445393701  1.0000
  H   H9        1.0  0.917022533379533  0.3931157382342423  0.16377455406009722  1.0000
  H   H10       1.0  0.8677240551229172  0.2799152859775276  0.5200209886583493  1.0000
  H   H11       1.0  0.8270909477107744  0.13628968151432708  0.7342933161617342  1.0000
  H   H12       1.0  0.8870792793526983  0.745614888182226  0.5312488227802925  1.0000
  H   H13       1.0  0.9236418176964206  0.863326116893342  0.050624441176437385  1.0000
  H   H14       1.0  0.8089042591238623  0.91054940151476  0.8809012520386633  1.0000
  H   H15       1.0  0.7878718750253779  0.664736390074622  0.666260254542504  1.0000
  H   H16       1.0  0.7485943963425568  0.6785816231212096  0.8599474858458593  1.0000
  H   H17       1.0  0.9157119083036391  0.6704951534911748  0.7622705977699669  1.0000
  H   H18       1.0  0.8746260271842115  0.6843770791107111  0.9545192052854065  1.0000
  C   C24       1.0  0.9017276194374712  0.5173788889798372  0.9787881757204278  1.0000
  C   C25       1.0  0.8534900718713592  0.6142581061021277  0.04614335151345972  1.0000
  C   C26       1.0  0.81122491479506  0.7192378180256895  0.9645894503599348  1.0000
  C   C27       1.0  0.8161758327206275  0.7260028097332307  0.8137529757694745  1.0000
  C   C28       1.0  0.8627601097056601  0.6292749706118794  0.7450173016219237  1.0000
  C   C29       1.0  0.9050998441477952  0.5228226128242865  0.8252984815802309  1.0000
  C   C30       1.0  0.7590109847109577  0.8206547955539834  0.038425764094271786  1.0000
  C   C31       1.0  0.6814354033394691  0.7542820553453451  0.06018665507539955  1.0000
  N   N3        1.0  0.6309894682441683  0.8544023973432802  0.12965269119184963  1.0000
  H   H19       1.0  0.955695475844281  0.3002652997034301  0.27356953540519746  1.0000
  H   H20       1.0  0.8498974530878305  0.6104351858841035  0.16301269959398024  1.0000
  H   H21       1.0  0.7832657824598293  0.8054178070901845  0.7490520721955778  1.0000
  H   H22       1.0  0.8641472645094522  0.6353955963746665  0.6280015439752415  1.0000
  H   H23       1.0  0.7826585638034506  0.8447481924874947  0.1448601445210682  1.0000
  H   H24       1.0  0.7535234371701208  0.9250634696108617  0.9726611055089806  1.0000
  H   H25       1.0  0.6578331938002189  0.7313450010019613  0.9533394262093529  1.0000
  H   H26       1.0  0.6862161485966056  0.6507403633809101  0.12784977969214406  1.0000
  H   H27       1.0  0.5776998262389649  0.808783186154403  0.13472416580940116  1.0000
  H   H28       1.0  0.6486122412221405  0.860691381684864  0.23651312109134337  1.0000
  Zn  Zn1       1.0  0.8211217872111632  0.5244419550410284  0.4034042444042613  1.0000
  Zn  Zn2       1.0  0.9856984564192091  0.5157592194404137  0.40068187532113564  1.0000
  C   C32       1.0  0.9044317584747941  0.5160499970659655  0.6652653570095006  1.0000
  C   C33       1.0  0.9023902920659957  0.5241529026733531  0.13882088224081435  1.0000
  C   C34       1.0  0.9047150309824616  0.7833900621688816  0.3974269849435607  1.0000
  C   C35       1.0  0.9021069549696782  0.2568111088100696  0.4066593246642282  1.0000
  O   O1        1.0  0.9650686475967346  0.5231249806452352  0.1914961686625416  1.0000
  O   O2        1.0  0.9666632796896724  0.5104868333411587  0.6105234358832667  1.0000
  O   O3        1.0  0.966891189855765  0.726367370944992  0.3942420757833154  1.0000
  O   O4        1.0  0.9648406808932788  0.30724445562308356  0.4077774216661467  1.0000
  O   O5        1.0  0.8419795065751307  0.7329567218228703  0.39630869898068677  1.0000
  O   O6        1.0  0.8417516048357262  0.5170779159439169  0.6125899896446001  1.0000
  O   O7        1.0  0.8401569656361116  0.5297160018592433  0.19356098931663923  1.0000
  O   O8        1.0  0.8399289993080569  0.31383546721992217  0.4098423503380271  1.0000
