data_image0
_chemical_formula_structural       NC9NC5H8C8NH7C8NH10Zn2C4O8
_chemical_formula_sum              "N4 C34 H25 Zn2 O8"
_cell_length_a       17.807436237873137
_cell_length_b       9.27426342843186
_cell_length_c       9.275652972338536
_cell_angle_alpha    85.89520880153039
_cell_angle_beta     89.8368236096327
_cell_angle_gamma    89.00683889979415

_space_group_name_H-M_alt    "P 1"
_space_group_IT_number       1

loop_
  _space_group_symop_operation_xyz
  'x, y, z'

loop_
  _atom_site_type_symbol
  _atom_site_label
  _atom_site_symmetry_multiplicity
  _atom_site_fract_x
  _atom_site_fract_y
  _atom_site_fract_z
  _atom_site_occupancy
  N   N1        1.0  0.7096703412705767  0.530614019101068  0.3974757784025471  1.0000
  C   C1        1.0  0.6488148676492655  0.4914622621920533  0.38527270284829696  1.0000
  C   C2        1.0  0.5731173470290364  0.44276178809264577  0.3700934018063471  1.0000
  C   C3        1.0  0.5541165549096762  0.3627168176398643  0.25362498633399766  1.0000
  C   C4        1.0  0.48061711605350677  0.3153080190705937  0.23879526108194327  1.0000
  C   C5        1.0  0.42506725591021877  0.3475247670049315  0.34039827162475156  1.0000
  C   C6        1.0  0.346957378108665  0.297269607920716  0.3247290980712356  1.0000
  C   C7        1.0  0.2854049856153456  0.38823307904890136  0.3534434565856688  1.0000
  C   C8        1.0  0.21176203787547343  0.34059893336388525  0.3386290947862569  1.0000
  C   C9        1.0  0.1491779279762573  0.434553359935703  0.3677449229624594  1.0000
  N   N2        1.0  0.0988732523082001  0.5100862265532111  0.3911532477478617  1.0000
  C   C10       1.0  0.1990862188708227  0.20171468604216528  0.29507247035722806  1.0000
  C   C11       1.0  0.2597811181466633  0.11073577409708446  0.2663488132784315  1.0000
  C   C12       1.0  0.3333012804787115  0.15793039422099708  0.2809387488162234  1.0000
  C   C13       1.0  0.4447635015062989  0.42812022377055237  0.4571095486600843  1.0000
  C   C14       1.0  0.5183139372055214  0.4753165067093435  0.4717667021953276  1.0000
  H   H1        1.0  0.596054136380557  0.33723880646023896  0.17405836825796264  1.0000
  H   H2        1.0  0.46700333509788733  0.25511023822757783  0.14681806285065857  1.0000
  H   H3        1.0  0.2946372460214215  0.4966597618537072  0.3854045816170235  1.0000
  H   H4        1.0  0.142362334331378  0.16384698898701955  0.28334451738802846  1.0000
  H   H5        1.0  0.2498503094862313  0.0032111335760292028  0.23305474792025738  1.0000
  H   H6        1.0  0.3794483625879103  0.08479414205110869  0.25985725744747135  1.0000
  H   H7        1.0  0.40354517066425  0.45300892946463955  0.5381132751388715  1.0000
  H   H8        1.0  0.5324590609536367  0.5368621445244246  0.5625868231273359  1.0000
  C   C15       1.0  0.9019001003393391  0.09689381545485666  0.3946593694627887  1.0000
  C   C16       1.0  0.891669279043756  0.17991928539674595  0.26309722722075457  1.0000
  C   C17       1.0  0.8888091141852548  0.1142928635280074  0.13260778464358736  1.0000
  C   C18       1.0  0.8967195035924184  0.9640803065981646  0.1304429394535076  1.0000
  C   C19       1.0  0.9049313349214253  0.8796508601668674  0.2611543297536081  1.0000
  C   C20       1.0  0.9066506587606756  0.9437951146355719  0.39398208084969855  1.0000
  C   C21       1.0  0.8925157835045188  0.8933812675701485  0.989877478531187  1.0000
  C   C22       1.0  0.814468140506208  0.8583488842580238  0.9591109630196254  1.0000
  N   N3        1.0  0.7528668380478557  0.8306972863609974  0.9348371392705718  1.0000
  H   H9        1.0  0.9680307231173205  0.17387709399372087  0.72589413728483  1.0000
  H   H10       1.0  0.8875083740535558  0.2967419836147345  0.26080411373960133  1.0000
  H   H11       1.0  0.8811235671002331  0.18096346624396298  0.03284440155681478  1.0000
  H   H12       1.0  0.908166477146601  0.7629780704997073  0.25920317865475395  1.0000
  H   H13       1.0  0.9482592754371945  0.6456027857429902  0.6189930515664839  1.0000
  H   H14       1.0  0.9272350878145533  0.7924717856166434  0.9948914355953854  1.0000
  H   H15       1.0  0.9143373782497155  0.966448276336973  0.8998246619971253  1.0000
  C   C23       1.0  0.902587733196672  0.5176221491169013  0.9710793851930912  1.0000
  C   C24       1.0  0.8544051008190029  0.614516897529239  0.03794238227144997  1.0000
  C   C25       1.0  0.812199450630086  0.7195134393818956  0.9558551491896128  1.0000
  C   C26       1.0  0.817154203235634  0.7262795156259505  0.8049843061863783  1.0000
  C   C27       1.0  0.8636836508396001  0.6295361694828701  0.7367400417027975  1.0000
  C   C28       1.0  0.9059630436371419  0.5230667456774658  0.8175620351212665  1.0000
  C   C29       1.0  0.7600430079266386  0.8209466756759025  0.029176230873894312  1.0000
  C   C30       1.0  0.6824298037125601  0.7545632948540344  0.05127431749858191  1.0000
  N   N4        1.0  0.6320406210107149  0.8546996877462419  0.12023170890566348  1.0000
  H   H16       1.0  0.9564325205488099  0.3004737530550108  0.26696375427948316  1.0000
  H   H17       1.0  0.850810315044551  0.6106933644358788  0.15483115206093068  1.0000
  H   H18       1.0  0.7842891687137585  0.8057072444788296  0.7398799479553757  1.0000
  H   H19       1.0  0.8650742750698299  0.63565777647999  0.6196931892371187  1.0000
  H   H20       1.0  0.7837042441632762  0.8450439351668038  0.1354882088134799  1.0000
  H   H21       1.0  0.7546146435850598  0.9253720881153603  0.9628811414229919  1.0000
  H   H22       1.0  0.6588145924924645  0.7316225633334978  0.944543616513958  1.0000
  H   H23       1.0  0.6871518572121166  0.651005003498135  0.11946346842292588  1.0000
  H   H24       1.0  0.5787251201303735  0.8090731630672093  0.12553494432180745  1.0000
  H   H25       1.0  0.6496669588478021  0.8609896803127357  0.22706018866846336  1.0000
  Zn  Zn1       1.0  0.8219859046113439  0.5246863475006989  0.39565957114707834  1.0000
  Zn  Zn2       1.0  0.9865576520820356  0.5160022199185113  0.3929813132549249  1.0000
  C   C31       1.0  0.9052911189625298  0.516293044160373  0.6575633176960307  1.0000
  C   C32       1.0  0.9032542456192162  0.5243972487932997  0.13107767746600563  1.0000
  C   C33       1.0  0.9057259309901222  0.783675968157236  0.38836676898982647  1.0000
  C   C34       1.0  0.9028193680230399  0.25701259575892177  0.40027430531236324  1.0000
  O   O1        1.0  0.965932018480797  0.5233691619728189  0.18375818607426186  1.0000
  O   O2        1.0  0.9675194867437474  0.510728988571326  0.6028496592958271  1.0000
  O   O3        1.0  0.9678697670193  0.7266441352827124  0.38547155410774847  1.0000
  O   O4        1.0  0.9655816816750131  0.3074540278451312  0.4011361841020751  1.0000
  O   O5        1.0  0.8429618188580844  0.7332345425390668  0.3875047012063036  1.0000
  O   O6        1.0  0.842611547990834  0.5173211278301836  0.6048827281606048  1.0000
  O   O7        1.0  0.8410240725864093  0.529961239833084  0.18578952214367916  1.0000
  O   O8        1.0  0.8406737361505748  0.3140460960866851  0.40316762823813357  1.0000
