data_image0
_chemical_formula_structural       NC10NC5H10C6SCOC6H10C7OC3FC3H9Zn2C4O8
_chemical_formula_sum              "N2 C45 H29 S1 O10 F1 Zn2"
_cell_length_a       19.4436361288709
_cell_length_b       10.302038109246572
_cell_length_c       10.29938172300155
_cell_angle_alpha    85.58271297890445
_cell_angle_beta     89.68829794462899
_cell_angle_gamma    89.43651638143119

_space_group_name_H-M_alt    "P 1"
_space_group_IT_number       1

loop_
  _space_group_symop_operation_xyz
  'x, y, z'

loop_
  _atom_site_type_symbol
  _atom_site_label
  _atom_site_symmetry_multiplicity
  _atom_site_fract_x
  _atom_site_fract_y
  _atom_site_fract_z
  _atom_site_occupancy
  N   N1        1.0  0.6481021266456153  0.4085956609375449  0.5623010265370623  1.0000
  C   C1        1.0  0.5892665245378872  0.4184962973208356  0.5766864581583224  1.0000
  C   C2        1.0  0.5159376512951238  0.4308437224222776  0.5946805921581058  1.0000
  C   C3        1.0  0.4737572722575785  0.39884700121134836  0.5000021444669254  1.0000
  C   C4        1.0  0.3978538445391707  0.40928316196025083  0.5053317589642632  1.0000
  C   C5        1.0  0.3581003505527052  0.3845499781345423  0.6124005531535974  1.0000
  C   C6        1.0  0.28198167856005824  0.3884645903589252  0.5994417499946487  1.0000
  C   C7        1.0  0.24141949813876676  0.4461193478920962  0.6932209242553156  1.0000
  C   C8        1.0  0.1697577017721757  0.44975535803971295  0.682677558527623  1.0000
  C   C9        1.0  0.1376632371470786  0.3953407194511014  0.5786414868680883  1.0000
  C   C10       1.0  0.063872220980689  0.3990379453098942  0.5679428481501629  1.0000
  N   N2        1.0  0.004549248951975099  0.4020103209054486  0.5593418519356528  1.0000
  C   C11       1.0  0.17750037264991583  0.3369790756984141  0.48524544340395703  1.0000
  C   C12       1.0  0.24917861290524412  0.3332888345612839  0.4955370236972892  1.0000
  C   C13       1.0  0.3862139796793678  0.3441096996370048  0.7434892311800523  1.0000
  C   C14       1.0  0.44488024987388464  0.3872247988523863  0.790738086884893  1.0000
  C   C15       1.0  0.4891110063351151  0.48505298740858716  0.7163850751547634  1.0000
  H   H1        1.0  0.4958600401486598  0.36972978079928964  0.40969102896269716  1.0000
  H   H2        1.0  0.3731680232268437  0.4317648042762024  0.4121767177231404  1.0000
  H   H3        1.0  0.2652894518213716  0.48940611576984927  0.774075637029733  1.0000
  H   H4        1.0  0.1394134800774311  0.49506471756503023  0.7556051036277489  1.0000
  H   H5        1.0  0.1531585371296586  0.29388794419236164  0.4047252424599553  1.0000
  H   H6        1.0  0.2788567789299648  0.28573669258634804  0.42330548091795045  1.0000
  H   H7        1.0  0.3552317145535346  0.2799135678686182  0.8077266772102318  1.0000
  H   H8        1.0  0.46001519306583505  0.35317381524048597  0.8886675081679563  1.0000
  H   H9        1.0  0.45901949608788384  0.575742942543386  0.6911465384845707  1.0000
  H   H10       1.0  0.5323943478593367  0.5106377712528134  0.7794738312354722  1.0000
  C   C16       1.0  0.8262638410813298  0.02402568955425144  0.5607818179852488  1.0000
  C   C17       1.0  0.7674785176963779  0.029860577177447608  0.4817508921453045  1.0000
  C   C18       1.0  0.7385529768476166  0.9157991599697999  0.44194178310054455  1.0000
  C   C19       1.0  0.7676997469054658  0.7947238775644483  0.4816950498324355  1.0000
  C   C20       1.0  0.8263941317364721  0.7865702038515332  0.5608723100118034  1.0000
  C   C21       1.0  0.8554088971457628  0.901879096331187  0.5999197939087708  1.0000
  S   S1        1.0  0.6639355323899053  0.9246859017780433  0.33995295894422717  1.0000
  C   C22       1.0  0.714523714938212  0.9322075867956684  0.19311216696721356  1.0000
  O   O1        1.0  0.7311146092140226  0.8266212486213419  0.146624751291776  1.0000
  C   C23       1.0  0.7372168272244514  0.057937431057703215  0.12742673569043883  1.0000
  C   C24       1.0  0.7858598315644436  0.05935154666681908  0.025517179167881883  1.0000
  C   C25       1.0  0.8079739649539432  0.17726306860886742  0.9636109835336405  1.0000
  C   C26       1.0  0.781817348453653  0.2949932621213345  0.0023290945901652833  1.0000
  C   C27       1.0  0.7333813936900824  0.2950475516318771  0.10288389881140515  1.0000
  C   C28       1.0  0.7110379615293304  0.17744398713010168  0.16511216809052387  1.0000
  H   H11       1.0  0.9369876102810277  0.22033315328905956  0.7099152715209698  1.0000
  H   H12       1.0  0.7440834319855685  0.122806718780063  0.45066955911397755  1.0000
  H   H13       1.0  0.7445263138303948  0.7073922633096734  0.45012334948262517  1.0000
  H   H14       1.0  0.900728536572153  0.8964604884411408  0.6608440411206515  1.0000
  H   H15       1.0  0.8488297200913738  0.4561533531522549  0.5906523983531238  1.0000
  H   H16       1.0  0.8071405171451236  0.9693857479032688  0.9940431833109766  1.0000
  H   H17       1.0  0.8455038856136097  0.17730298837353198  0.8856024271102113  1.0000
  H   H18       1.0  0.7990162077253931  0.38616750443529524  0.9543124035625871  1.0000
  H   H19       1.0  0.7130023779147959  0.38637912247809836  0.13258976907776288  1.0000
  H   H20       1.0  0.6731053155528723  0.18079892199232223  0.24199173875311475  1.0000
  C   C29       1.0  0.8263868583162287  0.40519575588475426  0.17945889064989018  1.0000
  C   C30       1.0  0.8481301207732124  0.27437081050104695  0.18812396861322145  1.0000
  C   C31       1.0  0.8598441092671547  0.2088286417006453  0.0752794740427416  1.0000
  C   C32       1.0  0.8480643879639204  0.274665088857314  0.9528584994737203  1.0000
  C   C33       1.0  0.8262710669958157  0.4054000923952424  0.9421952317500327  1.0000
  C   C34       1.0  0.8157317910074792  0.47000964527783795  0.05608255415458929  1.0000
  C   C35       1.0  0.8821072913869835  0.07028195775928858  0.08432336223785963  1.0000
  O   O2        1.0  0.8609108619020212  0.9974469871532086  0.0003092806849715977  1.0000
  C   C36       1.0  0.9284214557410134  0.014366383992234997  0.18857747981970152  1.0000
  C   C37       1.0  0.9228582236366442  0.8825399004507951  0.23388097420616338  1.0000
  C   C38       1.0  0.9668296844294915  0.82853313824705  0.3310660187434318  1.0000
  F   F1        1.0  0.9607174268721954  0.701609301082133  0.3747703092223149  1.0000
  C   C39       1.0  0.017075483522154274  0.9052098532540046  0.3831261329291804  1.0000
  C   C40       1.0  0.023628985416459303  0.03581288221437285  0.33774921449196627  1.0000
  C   C41       1.0  0.9797939830700952  0.09022879513287818  0.24063406239787266  1.0000
  H   H21       1.0  0.7843442171883499  0.6514838898016128  0.37048277780592453  1.0000
  H   H22       1.0  0.8552470091356132  0.2228611572038566  0.282864308010744  1.0000
  H   H23       1.0  0.856580619584526  0.2239703676885252  0.8657559265331615  1.0000
  H   H24       1.0  0.7989690330169532  0.570865634497665  0.04859837200921757  1.0000
  H   H25       1.0  0.817344690253873  0.45529430571868384  0.6106731438786519  1.0000
  H   H26       1.0  0.8841020763586426  0.8217543761483974  0.19482238719824663  1.0000
  H   H27       1.0  0.05113632719959616  0.8633820171998495  0.45825510684349946  1.0000
  H   H28       1.0  0.06292452162105389  0.0948411221268399  0.377442037850686  1.0000
  H   H29       1.0  0.9865734080223448  0.191038291284229  0.2053291753912212  1.0000
  Zn  Zn1       1.0  0.7509650659954802  0.40669180553326534  0.561454584381426  1.0000
  Zn  Zn2       1.0  0.9016862976843986  0.40390357403845994  0.5601989739918265  1.0000
  C   C42       1.0  0.8262905543550829  0.4001890895398008  0.7980211124898346  1.0000
  C   C43       1.0  0.8263624554564741  0.41040789784437126  0.32363255983274186  1.0000
  C   C44       1.0  0.8263667301013015  0.6424317286999899  0.555680051013248  1.0000
  C   C45       1.0  0.8262862280026396  0.16816369972664666  0.5659736907912103  1.0000
  O   O3        1.0  0.8835521866018043  0.41109335659874113  0.3715420619820582  1.0000
  O   O4        1.0  0.8834947504991492  0.3973864480089915  0.7491582571461626  1.0000
  O   O5        1.0  0.8835554921172885  0.5930004573329279  0.5534661419842728  1.0000
  O   O6        1.0  0.8834913935690843  0.21547935748813685  0.567234080199029  1.0000
  O   O7        1.0  0.7691599186770364  0.5951160230364871  0.5544194785958703  1.0000
  O   O8        1.0  0.7690991773327552  0.39950357362298394  0.7501115246975252  1.0000
  O   O9        1.0  0.7691566137104131  0.41321043654843276  0.3724937681300773  1.0000
  O   O10       1.0  0.769095820658516  0.21759642817739433  0.5681858837136142  1.0000
