data_image0
_chemical_formula_structural       NC8NC6H8C8NH7C8H6Zn2C4O8
_chemical_formula_sum              "N3 C34 H21 Zn2 O8"
_cell_length_a       17.457602349358154
_cell_length_b       9.274263428431858
_cell_length_c       9.275144076552241
_cell_angle_alpha    85.91390011552684
_cell_angle_beta     93.32514331016303
_cell_angle_gamma    92.30649601595262

_space_group_name_H-M_alt    "P 1"
_space_group_IT_number       1

loop_
  _space_group_symop_operation_xyz
  'x, y, z'

loop_
  _atom_site_type_symbol
  _atom_site_label
  _atom_site_symmetry_multiplicity
  _atom_site_fract_x
  _atom_site_fract_y
  _atom_site_fract_z
  _atom_site_occupancy
  N   N1        1.0  0.725101232663428  0.6031361484302145  0.4746492113706459  1.0000
  C   C1        1.0  0.663680091705112  0.5520289338980229  0.4628717890764862  1.0000
  C   C2        1.0  0.5872696913717066  0.4884579837274774  0.44823126936425695  1.0000
  C   C3        1.0  0.5293552386389023  0.5336746294209866  0.5313847389378945  1.0000
  C   C4        1.0  0.4543993485335873  0.4724619522893485  0.5174260097195515  1.0000
  C   C5        1.0  0.3929294446751879  0.5202059725648054  0.6054887145819301  1.0000
  C   C6        1.0  0.3182334746957766  0.5402796617559049  0.5435683710458838  1.0000
  C   C7        1.0  0.2603183647732741  0.5852928282421634  0.6268417445495895  1.0000
  C   C8        1.0  0.1841774933466911  0.6060219531564768  0.562461358464162  1.0000
  N   N2        1.0  0.12297310933129113  0.6226810829947764  0.510699697105458  1.0000
  C   C9        1.0  0.2766110440131009  0.6105064880721747  0.7726000380619995  1.0000
  C   C10       1.0  0.3505266417070094  0.5908680503551582  0.8349506656862782  1.0000
  C   C11       1.0  0.408433483810452  0.5460585720562543  0.7521854807414357  1.0000
  C   C12       1.0  0.4386353858012035  0.3652685975515535  0.41872292484809415  1.0000
  C   C13       1.0  0.49654180917767954  0.3203647522995774  0.3360135365176511  1.0000
  C   C14       1.0  0.5707162812421979  0.3817066623433629  0.35058287350150047  1.0000
  H   H1        1.0  0.5424969348828719  0.6177461971233813  0.6053517067802092  1.0000
  H   H2        1.0  0.30530485630169046  0.5228344127615481  0.43028963429836714  1.0000
  H   H3        1.0  0.2322282951988078  0.6452860850391504  0.8379213466826712  1.0000
  H   H4        1.0  0.3629496800115549  0.6100408730156217  0.9478146292094424  1.0000
  H   H5        1.0  0.46504431932180706  0.529770358892085  0.8033824755106189  1.0000
  H   H6        1.0  0.3818111043442876  0.31481621211764144  0.40690527670852683  1.0000
  H   H7        1.0  0.48391529575379133  0.23752401180801372  0.26071579004284073  1.0000
  H   H8        1.0  0.6150959830329635  0.34596491214642633  0.28582927006777137  1.0000
  C   C15       1.0  0.9216127224911733  0.1892081881400567  0.49276109499619797  1.0000
  C   C16       1.0  0.9111228873607263  0.2711350667983783  0.36007772645489444  1.0000
  C   C17       1.0  0.9081681619393803  0.2051693519696045  0.22926957628920985  1.0000
  C   C18       1.0  0.916254263268617  0.05577055640996665  0.22796583014761862  1.0000
  C   C19       1.0  0.9246799293156162  0.9722315210627006  0.35957858744882354  1.0000
  C   C20       1.0  0.9264689513404192  0.036598402827507925  0.49260097150896826  1.0000
  C   C21       1.0  0.9119236699518654  0.9845904246389169  0.08693482112220052  1.0000
  C   C22       1.0  0.8321300492380274  0.9415111939672943  0.04766937285512407  1.0000
  N   N3        1.0  0.7691506868965134  0.9075083982115472  0.016687527370941483  1.0000
  H   H9        1.0  0.9892948621746718  0.2731144003620591  0.8312142099405684  1.0000
  H   H10       1.0  0.9068687458386946  0.38752854438733597  0.35733147810584187  1.0000
  H   H11       1.0  0.9002878194853716  0.2710143564706564  0.12866385886952214  1.0000
  H   H12       1.0  0.9279866812023179  0.8558911726534868  0.35797954357242023  1.0000
  H   H13       1.0  0.9690576884901534  0.7427676018791707  0.7221545728009584  1.0000
  H   H14       1.0  0.9474176183323519  0.8872575862566332  0.09572902157016405  1.0000
  H   H15       1.0  0.9342101096218651  0.05987341321672334  0.999252718059358  1.0000
  C   C23       1.0  0.9222155541682773  0.6098619261236657  0.0692322278620312  1.0000
  C   C24       1.0  0.8726985357274807  0.701500067832723  0.13065265844362783  1.0000
  C   C25       1.0  0.8293828063058154  0.8005896324021795  0.04372102355670448  1.0000
  C   C26       1.0  0.83480199410683  0.8100734134541848  0.8937750375596383  1.0000
  C   C27       1.0  0.8827245713508551  0.7182511678042713  0.8304543796162491  1.0000
  C   C28       1.0  0.9258661151900898  0.6159446588428883  0.9161298621303735  1.0000
  C   C29       1.0  0.790393933411065  0.9130744696654096  0.804371704864435  1.0000
  C   C30       1.0  0.7532156332505663  0.999310643846163  0.7295041533704891  1.0000
  H   H16       1.0  0.08073128017423858  0.4282976488430614  0.20233324413412435  1.0000
  H   H17       1.0  0.8688444261385931  0.698885961170471  0.24697528563731108  1.0000
  H   H18       1.0  0.7921822262516844  0.870884326839619  0.0937376384930102  1.0000
  H   H19       1.0  0.8849599453831889  0.7243547377930033  0.7135680657746852  1.0000
  H   H20       1.0  0.030904249041140867  0.4890347678807459  0.6559265914710353  1.0000
  H   H21       1.0  0.7205808004009691  0.07500759707615634  0.6637845090974595  1.0000
  Zn  Zn1       1.0  0.8399184755110302  0.6087725848703054  0.4850609293939425  1.0000
  Zn  Zn2       1.0  0.008155835328626626  0.617032901625759  0.5002997870281449  1.0000
  C   C31       1.0  0.9251414260558328  0.6090468227414612  0.7560489694255639  1.0000
  C   C32       1.0  0.922934732973584  0.6167605754788792  0.22931205459130186  1.0000
  C   C33       1.0  0.9255222956876531  0.8763821129197862  0.4868846678215544  1.0000
  C   C34       1.0  0.9225537963311817  0.34942354953884136  0.498476428201315  1.0000
  O   O1        1.0  0.9870212611515377  0.6222042777468815  0.2888193750327237  1.0000
  O   O2        1.0  0.9887431532048274  0.6098714183076761  0.7081071744351961  1.0000
  O   O3        1.0  0.9890498560485182  0.8257480145540088  0.49075501826470364  1.0000
  O   O4        1.0  0.9867145004929347  0.4063276882267486  0.5061714178823804  1.0000
  O   O5        1.0  0.8613597529355438  0.8194777954519921  0.4791892933318471  1.0000
  O   O6        1.0  0.8610530596912563  0.6036029321500469  0.6965413722884777  1.0000
  O   O7        1.0  0.8593311599278247  0.6159357288605258  0.2772518392159933  1.0000
  O   O8        1.0  0.8590243996729555  0.4000591297968689  0.4946039901786273  1.0000
