data_image0
_chemical_formula_structural       NC9NC5H8C9H10C12H10Zn2C4O8
_chemical_formula_sum              "N2 C39 H28 Zn2 O8"
_cell_length_a       17.807436237873137
_cell_length_b       9.272676604525724
_cell_length_c       10.299141136925906
_cell_angle_alpha    85.79349771759213
_cell_angle_beta     89.41385425082623
_cell_angle_gamma    88.94495835625186

_space_group_name_H-M_alt    "P 1"
_space_group_IT_number       1

loop_
  _space_group_symop_operation_xyz
  'x, y, z'

loop_
  _atom_site_type_symbol
  _atom_site_label
  _atom_site_symmetry_multiplicity
  _atom_site_fract_x
  _atom_site_fract_y
  _atom_site_fract_z
  _atom_site_occupancy
  N   N1        1.0  0.7148364644066322  0.541104676544943  0.5629862319855583  1.0000
  C   C1        1.0  0.6540501018031551  0.5020426863369247  0.5518109532318325  1.0000
  C   C2        1.0  0.5784385477498825  0.45345387225536227  0.5379101200941773  1.0000
  C   C3        1.0  0.5599253079211087  0.3742085455337125  0.4325951484391368  1.0000
  C   C4        1.0  0.4865097561597311  0.3269088023929372  0.4190152269054408  1.0000
  C   C5        1.0  0.4305566115810732  0.35843528379564327  0.5107162066556383  1.0000
  C   C6        1.0  0.3525354647348086  0.3082953849607548  0.4963668380310381  1.0000
  C   C7        1.0  0.2908211321255871  0.3990478572522064  0.5226574268200639  1.0000
  C   C8        1.0  0.2172621454005713  0.3515227073943916  0.509090317711661  1.0000
  C   C9        1.0  0.1545128238520884  0.44526285069946675  0.5357563569719621  1.0000
  N   N2        1.0  0.10407532485310779  0.5206234402260503  0.5571951009859788  1.0000
  C   C10       1.0  0.2048325010560977  0.21295869833532977  0.46920616373915736  1.0000
  C   C11       1.0  0.2656893846760124  0.12219085082879834  0.4429071254266899  1.0000
  C   C12       1.0  0.3391266926393354  0.16927807146538254  0.45626999437929583  1.0000
  C   C13       1.0  0.4497640634724823  0.43822935480178854  0.6162525382229258  1.0000
  C   C14       1.0  0.5232313895149954  0.48531778541210896  0.6296759842937333  1.0000
  H   H1        1.0  0.6021788523044402  0.34927113927202513  0.3607817992635085  1.0000
  H   H2        1.0  0.4732792372040531  0.2673419281489864  0.335859904205112  1.0000
  H   H3        1.0  0.29986893565016487  0.5072382873370864  0.5519535774657167  1.0000
  H   H4        1.0  0.14817517752915704  0.17517731968038963  0.458464890771712  1.0000
  H   H5        1.0  0.25594754739573927  0.014911261069982645  0.41241400349314605  1.0000
  H   H6        1.0  0.3853963903599663  0.09629796582140736  0.43693890770307237  1.0000
  H   H7        1.0  0.4082246778541644  0.4625678954435833  0.6893581549928399  1.0000
  H   H8        1.0  0.5369968391653681  0.5462400440395812  0.7117948447730402  1.0000
  C   C15       1.0  0.9073310256537777  0.10748778577723828  0.5584632085398202  1.0000
  C   C16       1.0  0.8772865008228121  0.1731475597934273  0.6664706757216805  1.0000
  C   C17       1.0  0.8541144013418115  0.0902091075504381  0.7775500147349945  1.0000
  C   C18       1.0  0.8602390930363895  0.9391362585519157  0.7843591618367998  1.0000
  C   C19       1.0  0.8890528627352972  0.8720917665769614  0.675369384059599  1.0000
  C   C20       1.0  0.9115879092143216  0.9542288738660037  0.5617292639868592  1.0000
  C   C21       1.0  0.83438421025875  0.8568574485127509  0.9095026547388662  1.0000
  C   C22       1.0  0.7964221460558404  0.7127629214797827  0.8971363884856046  1.0000
  C   C23       1.0  0.8757402728029308  0.7160225647098979  0.9509092450319365  1.0000
  H   H9        1.0  0.9239697375442844  0.40547737700051384  0.3453944656799644  1.0000
  H   H10       1.0  0.8733234309370754  0.2898786409459067  0.6664047880079669  1.0000
  H   H11       1.0  0.8318796422388659  0.14481053544555889  0.8594835734711869  1.0000
  H   H12       1.0  0.8926361756030609  0.7555026563375317  0.6765220840718418  1.0000
  H   H13       1.0  0.931017115773717  0.8764494926374574  0.24343595976763122  1.0000
  H   H14       1.0  0.8131382748869024  0.9180832773232414  0.991590610008324  1.0000
  H   H15       1.0  0.79291796690632  0.6737152488405864  0.7981796194709777  1.0000
  H   H16       1.0  0.7529076889134008  0.6862565616129476  0.9727093677381438  1.0000
  H   H17       1.0  0.920394753145497  0.6788276617867067  0.8846936396352125  1.0000
  H   H18       1.0  0.8785815156277837  0.6914153520798131  0.057927057494501666  1.0000
  C   C24       1.0  0.909374703968691  0.530985873077082  0.17870497444597055  1.0000
  C   C25       1.0  0.9879040024464645  0.542385024535829  0.17578241865663036  1.0000
  C   C26       1.0  0.02780874779414999  0.548033804629394  0.05716505362242441  1.0000
  C   C27       1.0  0.9881227195687189  0.542129650988475  0.9405125013706727  1.0000
  C   C28       1.0  0.9095442278263302  0.5307307964250707  0.9414875129745353  1.0000
  C   C29       1.0  0.8706540498044247  0.5252267185775514  0.06102279521065369  1.0000
  C   C30       1.0  0.11088485343069808  0.5600947761124093  0.055118054279220896  1.0000
  C   C31       1.0  0.15518675393557158  0.4789045045935599  0.9719255564107231  1.0000
  C   C32       1.0  0.23337712139426056  0.49043655663678115  0.9702375295276716  1.0000
  C   C33       1.0  0.2681669686468038  0.5829246552845111  0.05124878481926176  1.0000
  C   C34       1.0  0.2248368440545907  0.6640733592580101  0.1341821814025277  1.0000
  C   C35       1.0  0.14662861258528048  0.6529038115280743  0.13634171176247611  1.0000
  H   H19       1.0  0.8791636291401081  0.5266746148359562  0.507300149417476  1.0000
  H   H20       1.0  0.018316157176826216  0.5449015343506989  0.26609851860652634  1.0000
  H   H21       1.0  0.018495695508830012  0.5484283039816349  0.84866582121558  1.0000
  H   H22       1.0  0.8100824284328082  0.5164383087242026  0.06256113340685898  1.0000
  H   H23       1.0  0.7611872245165443  0.5101332191040726  0.7359767533039019  1.0000
  H   H24       1.0  0.12945587394900193  0.40519527026775076  0.9095019434629124  1.0000
  H   H25       1.0  0.26703199078529594  0.42730256078968093  0.9062669827524245  1.0000
  H   H26       1.0  0.32869836267339636  0.5917107540737558  0.04975982056553607  1.0000
  H   H27       1.0  0.2518490858696729  0.7360130031800431  0.1966602500970141  1.0000
  H   H28       1.0  0.11406772281488609  0.7181513261216663  0.2002003916495139  1.0000
  Zn  Zn1       1.0  0.8271623726453888  0.5351903846688157  0.5613225330681708  1.0000
  Zn  Zn2       1.0  0.991749341707341  0.526525976307521  0.5588694318101736  1.0000
  C   C36       1.0  0.9094816144666741  0.5250355535737241  0.7972831266313702  1.0000
  C   C37       1.0  0.9094319063442613  0.5366825318558361  0.3229089459497567  1.0000
  C   C38       1.0  0.9107782308739213  0.7941787312576936  0.5559364806062526  1.0000
  C   C39       1.0  0.9081352250821723  0.26753762493784605  0.5642556553733354  1.0000
  O   O1        1.0  0.9719109693698138  0.53529999494963  0.37037415270200835  1.0000
  O   O2        1.0  0.9719202471249077  0.5198409175021148  0.7479556947220418  1.0000
  O   O3        1.0  0.9729664395825163  0.7371774811355107  0.5530665888211772  1.0000
  O   O4        1.0  0.9708647207800315  0.31796344461889836  0.5652631620993591  1.0000
  O   O5        1.0  0.8480469374072497  0.7437529193157475  0.5549288036092825  1.0000
  O   O6        1.0  0.8470007536390337  0.5264180878746811  0.7498178469419841  1.0000
  O   O7        1.0  0.8469914753343285  0.5418771156008835  0.3722347432352691  1.0000
  O   O8        1.0  0.8459452267112709  0.3245405549257965  0.5671238499664311  1.0000
