data_image0
_chemical_formula_structural       NC5NC4H6C10H6C9H6Zn2C4O8
_chemical_formula_sum              "N2 C32 H18 Zn2 O8"
_cell_length_a       13.854160002989762
_cell_length_b       9.275150299802176
_cell_length_c       9.275153671780862
_cell_angle_alpha    85.37735250896073
_cell_angle_beta     89.40940609581031
_cell_angle_gamma    89.48388968248379

_space_group_name_H-M_alt    "P 1"
_space_group_IT_number       1

loop_
  _space_group_symop_operation_xyz
  'x, y, z'

loop_
  _atom_site_type_symbol
  _atom_site_label
  _atom_site_symmetry_multiplicity
  _atom_site_fract_x
  _atom_site_fract_y
  _atom_site_fract_z
  _atom_site_occupancy
  N   N1        1.0  0.9104482774029937  0.5749702859414081  0.40056835739569396  1.0000
  C   C1        1.0  0.8383729483808616  0.6000420314918218  0.3413652544820467  1.0000
  C   C2        1.0  0.7487102323873187  0.6312319612926968  0.2677143291862154  1.0000
  C   C3        1.0  0.6608195720148532  0.6019194666638634  0.33962143827284796  1.0000
  C   C4        1.0  0.5735678200904817  0.631231975569053  0.2677143059269807  1.0000
  C   C5        1.0  0.48326480726568716  0.6000418843429329  0.34136534696054366  1.0000
  N   N2        1.0  0.4106747071863696  0.5749702224166646  0.40056835766899956  1.0000
  C   C6        1.0  0.5742355967882026  0.6904636808390554  0.1239156258695091  1.0000
  C   C7        1.0  0.6620813521115926  0.7219269694607104  0.051892863471076474  1.0000
  C   C8        1.0  0.6627945149435381  0.7813705166036904  0.8966011367116269  1.0000
  C   C9        1.0  0.7493126864563463  0.6904636792821346  0.12391553557772861  1.0000
  H   H1        1.0  0.6603286965183496  0.5559639354709025  0.4509196068280432  1.0000
  H   H2        1.0  0.5066170152198135  0.7121172087597631  0.06812954616332845  1.0000
  H   H3        1.0  0.7274047795711273  0.8494998890121883  0.8724225247173591  1.0000
  H   H4        1.0  0.5976963014509561  0.8494998910564108  0.8724225898067419  1.0000
  H   H5        1.0  0.6638321624800001  0.690623721181326  0.8255434853737555  1.0000
  H   H6        1.0  0.8174399742185491  0.7121173210736063  0.06812946007934007  1.0000
  C   C10       1.0  0.1630962085709537  0.15127088241584002  0.4029823135494781  1.0000
  C   C11       1.0  0.21461066068365922  0.23304431555704985  0.2938937552761465  1.0000
  C   C12       1.0  0.2578855832310843  0.1666019684139115  0.1792614580384686  1.0000
  C   C13       1.0  0.2500873430940498  0.01741652594039444  0.1722412028851743  1.0000
  C   C14       1.0  0.20068465628264986  0.9341975966649901  0.28068171979136003  1.0000
  C   C15       1.0  0.15803596891660532  0.9986585179201524  0.39816697468328366  1.0000
  C   C16       1.0  0.3094290060542369  0.25211116831097113  0.06767870083006144  1.0000
  C   C17       1.0  0.3525838429407319  0.32372753463777576  0.974260676083778  1.0000
  C   C18       1.0  0.40311615614977825  0.4075952517352115  0.8648722432669311  1.0000
  C   C19       1.0  0.4462626729495278  0.4792061816513349  0.7714721260993556  1.0000
  H   H7        1.0  0.11574307813204232  0.4141794942429655  0.6319550206322597  1.0000
  H   H8        1.0  0.21923290311809562  0.349498368644668  0.29612130469062325  1.0000
  H   H9        1.0  0.28305673673909765  0.9650448205973327  0.08353988974820004  1.0000
  H   H10       1.0  0.19777580958591123  0.8181816370126264  0.274456445517937  1.0000
  H   H11       1.0  0.09294720856266481  0.8690627050610744  0.7407595512574112  1.0000
  H   H12       1.0  0.4841489133784497  0.5420866578372485  0.6894591088681539  1.0000
  C   C20       1.0  0.1634939839280245  0.5738803498519662  0.9771511800233816  1.0000
  C   C21       1.0  0.18811091278325556  0.7013930147921931  0.040170286502643204  1.0000
  C   C22       1.0  0.20370135222726815  0.830263759240625  0.9544455771142722  1.0000
  C   C23       1.0  0.19476572760913358  0.8332269550463807  0.8044882181192223  1.0000
  C   C24       1.0  0.1720043634182471  0.7073236066859205  0.7398415638769573  1.0000
  C   C25       1.0  0.15763825031252812  0.5760490560571714  0.8239981326849553  1.0000
  C   C26       1.0  0.22779360859121953  0.9601499106739801  0.02081655734234156  1.0000
  C   C27       1.0  0.24796600432476287  0.06889274108425836  0.07641030775192181  1.0000
  C   C28       1.0  0.2917553700847437  0.3049478456026212  0.1971074160728492  1.0000
  H   H13       1.0  0.1693515781909365  0.3349061109159266  0.27704562574128055  1.0000
  H   H14       1.0  0.19297931561732928  0.7014660650706614  0.156785264063944  1.0000
  H   H15       1.0  0.20634072507571943  0.9327021304877909  0.7372162702594545  1.0000
  H   H16       1.0  0.1678729764312922  0.7118411516374958  0.622984215500086  1.0000
  H   H17       1.0  0.1718563514029483  0.22121029395105762  0.7495157100372714  1.0000
  H   H18       1.0  0.3094649576380213  0.40041471030937914  0.24592137202356978  1.0000
  Zn  Zn1       1.0  0.05480279053460001  0.5749664260548089  0.4005767150443825  1.0000
  Zn  Zn2       1.0  0.2663201838510123  0.5749623057036286  0.4005719090236346  1.0000
  C   C29       1.0  0.15877725695966702  0.5698912047606536  0.6639585641717525  1.0000
  C   C30       1.0  0.16234801533951712  0.5800393478151861  0.13719019102116525  1.0000
  C   C31       1.0  0.15902724931814832  0.8384695240625522  0.3933313206151594  1.0000
  C   C32       1.0  0.16209796062497417  0.3114592952214841  0.40781752130384064  1.0000
  O   O1        1.0  0.24223320383263758  0.5820985055263708  0.19089895699624654  1.0000
  O   O2        1.0  0.2394288851843287  0.5678278302674095  0.6102457416524141  1.0000
  O   O3        1.0  0.23962966473351777  0.7847082236008075  0.391712319247179  1.0000
  O   O4        1.0  0.24203235279282898  0.3652181222389096  0.40943227123204196  1.0000
  O   O5        1.0  0.07909054941232063  0.7847106095224852  0.39171635283002226  1.0000
  O   O6        1.0  0.07888976003873056  0.5678319494838484  0.6102496885032219  1.0000
  O   O7        1.0  0.08169409103880752  0.5821025700240053  0.19090117055234823  1.0000
  O   O8        1.0  0.08149323930915603  0.36522217669356455  0.4094345929516304  1.0000
