data_image0
_chemical_formula_structural       NC10NC5H10C12ClH9C13NH9Zn2C4O8
_chemical_formula_sum              "N3 C44 H28 Cl1 Zn2 O8"
_cell_length_a       19.4436361288709
_cell_length_b       10.299768534541528
_cell_length_c       10.29852850225146
_cell_angle_alpha    85.5429176668528
_cell_angle_beta     89.70161212865115
_cell_angle_gamma    89.43641405984484

_space_group_name_H-M_alt    "P 1"
_space_group_IT_number       1

loop_
  _space_group_symop_operation_xyz
  'x, y, z'

loop_
  _atom_site_type_symbol
  _atom_site_label
  _atom_site_symmetry_multiplicity
  _atom_site_fract_x
  _atom_site_fract_y
  _atom_site_fract_z
  _atom_site_occupancy
  N   N1        1.0  0.6479198501057529  0.40977838977898884  0.561976508832678  1.0000
  C   C1        1.0  0.5890860547635953  0.41967266545955173  0.5763627936045652  1.0000
  C   C2        1.0  0.5157594415544495  0.43201212581464093  0.5943579984528409  1.0000
  C   C3        1.0  0.47356714760398944  0.4000648332038812  0.49967062690282055  1.0000
  C   C4        1.0  0.3976643844537449  0.4105001812852777  0.5049998822376132  1.0000
  C   C5        1.0  0.3579244079938828  0.38569720426510096  0.6120848457528709  1.0000
  C   C6        1.0  0.2818040992860098  0.38962047384682924  0.5991239936839741  1.0000
  C   C7        1.0  0.24125370213806638  0.44723219450868146  0.6929094168581365  1.0000
  C   C8        1.0  0.1695905738085393  0.45087535122964995  0.6823643391228817  1.0000
  C   C9        1.0  0.13748303034859163  0.3965106341378333  0.5783203826994909  1.0000
  C   C10       1.0  0.06369066259788632  0.4002151135672789  0.5676200059961167  1.0000
  N   N2        1.0  0.004366603984955598  0.40319332056439383  0.5590176125514317  1.0000
  C   C11       1.0  0.17730843138859212  0.33819163645051353  0.4849182098765987  1.0000
  C   C12       1.0  0.2489879718986885  0.33449438722879776  0.49521147536672827  1.0000
  C   C13       1.0  0.38605459440475887  0.3451691578547899  0.7431943340345364  1.0000
  C   C14       1.0  0.4447267913704846  0.38826578258430877  0.7904449347075561  1.0000
  C   C15       1.0  0.4889481033238252  0.48616083626615003  0.716072647752765  1.0000
  H   H1        1.0  0.49565854919535784  0.37099508151547256  0.40935085914942104  1.0000
  H   H2        1.0  0.3729668015532119  0.4330427666388405  0.41183067686458874  1.0000
  H   H3        1.0  0.2651338197151906  0.49048039180476977  0.7737701580588687  1.0000
  H   H4        1.0  0.1392555150604735  0.4961513511866797  0.7552966964083958  1.0000
  H   H5        1.0  0.15295647401206972  0.29513891972743145  0.40439200379584594  1.0000
  H   H6        1.0  0.27865706432877  0.28697467619911426  0.42297543322939535  1.0000
  H   H7        1.0  0.3550804744242893  0.2809198936895514  0.8074464053669457  1.0000
  H   H8        1.0  0.45987410636610027  0.35414835620913243  0.8883902853621362  1.0000
  H   H9        1.0  0.4588533463199432  0.5768866008202994  0.6908218332721425  1.0000
  H   H10       1.0  0.5322393812883023  0.5117136561182746  0.7791669248278306  1.0000
  C   C16       1.0  0.8260816465756203  0.025121603393263747  0.5604954738402974  1.0000
  C   C17       1.0  0.8306150995022162  0.03465000524839824  0.4239720760936603  1.0000
  C   C18       1.0  0.8329783575092831  0.9223375309802706  0.3548014255876333  1.0000
  C   C19       1.0  0.8307464605068895  0.7993598557366696  0.42398647753713137  1.0000
  C   C20       1.0  0.8262113895729803  0.7878399547564949  0.5605098266574353  1.0000
  C   C21       1.0  0.8239048857678912  0.9012777244231988  0.627999788921729  1.0000
  C   C22       1.0  0.8377752872687991  0.9334714367306837  0.2103710443272193  1.0000
  C   C23       1.0  0.7986489884472779  0.027759689757231417  0.13622283891012987  1.0000
  C   C24       1.0  0.803225276402528  0.038042309399384695  0.00028833659022309364  1.0000
  C   C25       1.0  0.8468614879253076  0.9545606129525176  0.9368105240784739  1.0000
  C   C26       1.0  0.8859765549358531  0.8605853262898125  0.009447415737403818  1.0000
  C   C27       1.0  0.8815224072391232  0.8499081939805578  0.14539554924506337  1.0000
  Cl  Cl1       1.0  0.8525264862495933  0.9677091481200929  0.7662574647010572  1.0000
  H   H11       1.0  0.8243188878227462  0.3489452166017648  0.6125146483431445  1.0000
  H   H12       1.0  0.8332681729930921  0.1296313110946674  0.3712109566045221  1.0000
  H   H13       1.0  0.8316046279201256  0.7125282382106314  0.37102667587691407  1.0000
  H   H14       1.0  0.8204068389622358  0.8931588251631679  0.7333213115076966  1.0000
  H   H15       1.0  0.8245107000387352  0.4559960797856153  0.612536287870143  1.0000
  H   H16       1.0  0.7638724260357946  0.09236216653444673  0.1832607525680161  1.0000
  H   H17       1.0  0.7726894316866513  0.1107394537635116  0.944423130497316  1.0000
  H   H18       1.0  0.919986120021041  0.7959509791894377  0.9607261824614923  1.0000
  H   H19       1.0  0.9129310586008426  0.7774887429682159  0.19975902065415085  1.0000
  C   C28       1.0  0.8261563129639719  0.4066070925204388  0.1790857193426254  1.0000
  C   C29       1.0  0.7546565723166662  0.42778973830670974  0.1771895436565778  1.0000
  C   C30       1.0  0.7184341486857082  0.43838279461354857  0.05908218396729037  1.0000
  C   C31       1.0  0.7546359959063558  0.427525261723393  0.9419300054689157  1.0000
  C   C32       1.0  0.8261367174487767  0.40635447734027424  0.9419195963112169  1.0000
  C   C33       1.0  0.8614390339835352  0.39602819755277485  0.06096808964066259  1.0000
  C   C34       1.0  0.6428445408096056  0.46077138883113045  0.058085216511250426  1.0000
  C   C35       1.0  0.6124924243705557  0.5492622767611761  0.1392550012787621  1.0000
  C   C36       1.0  0.5413399960216242  0.5702896178397308  0.13819707579823914  1.0000
  C   C37       1.0  0.49959294055589276  0.5032030001657732  0.056193186089122715  1.0000
  C   C38       1.0  0.5292662686541598  0.41496098425775235  0.9751330479773466  1.0000
  C   C39       1.0  0.6004113392179629  0.39383941543872386  0.975954422386445  1.0000
  C   C40       1.0  0.42634144985504974  0.52490136377183  0.05522471594183153  1.0000
  N   N3        1.0  0.3674521908086665  0.5423455079418618  0.05444616627771138  1.0000
  H   H20       1.0  0.9612056705215173  0.3657729149025415  0.39005653920995  1.0000
  H   H21       1.0  0.726880775784754  0.4343106374562595  0.26793585448201673  1.0000
  H   H22       1.0  0.7271194811448579  0.43738072673110584  0.8504546442464136  1.0000
  H   H23       1.0  0.9165452669837897  0.37970703571866427  0.061694629914872616  1.0000
  H   H24       1.0  0.9613134426036765  0.36716071257631516  0.7345114518463074  1.0000
  H   H25       1.0  0.6438744490495293  0.6034502441792158  0.20229863426770134  1.0000
  H   H26       1.0  0.5189296062271271  0.6390932470483064  0.2010915350030491  1.0000
  H   H27       1.0  0.497409115445849  0.36223194116192153  0.9115216597350838  1.0000
  H   H28       1.0  0.6221462374004126  0.32391808903551145  0.9136123275363293  1.0000
  Zn  Zn1       1.0  0.7507826840850917  0.4078746072348653  0.5611301483015614  1.0000
  Zn  Zn2       1.0  0.9015037594420388  0.40508649201977787  0.5598746554075791  1.0000
  C   C41       1.0  0.826138004920117  0.40122866689840103  0.797727598902747  1.0000
  C   C42       1.0  0.8261500847519154  0.41173404046717715  0.3232773186098905  1.0000
  C   C43       1.0  0.8261834523930277  0.64367176550903  0.555331356537037  1.0000
  C   C44       1.0  0.8261045855812583  0.16928938250176384  0.5656736306219097  1.0000
  O   O1        1.0  0.883345856151817  0.41239095016840127  0.37119288341334444  1.0000
  O   O2        1.0  0.8833360421108082  0.398454662674959  0.7488587701312674  1.0000
  O   O3        1.0  0.8833719704307034  0.5942305447306779  0.5531220958757253  1.0000
  O   O4        1.0  0.8833098764051107  0.21661507838643043  0.5669294607105431  1.0000
  O   O5        1.0  0.7689765156883146  0.5963460218210757  0.5540753434202035  1.0000
  O   O6        1.0  0.7689405876324604  0.4005717000730036  0.7498119484510435  1.0000
  O   O7        1.0  0.7689504017516323  0.41450794282725867  0.3721445001345174  1.0000
  O   O8        1.0  0.7689144219980317  0.21873206172440218  0.5678811748116661  1.0000
