data_image0
_chemical_formula_structural       NC8NH4C6ClH5C6SCH7Zn2C4O8
_chemical_formula_sum              "N2 C25 H16 Cl1 S1 Zn2 O8"
_cell_length_a       11.048855714531884
_cell_length_b       9.276545438789551
_cell_length_c       9.275274088470228
_cell_angle_alpha    86.1334652357246
_cell_angle_beta     89.72578532380932
_cell_angle_gamma    89.40961225544244

_space_group_name_H-M_alt    "P 1"
_space_group_IT_number       1

loop_
  _space_group_symop_operation_xyz
  'x, y, z'

loop_
  _atom_site_type_symbol
  _atom_site_label
  _atom_site_symmetry_multiplicity
  _atom_site_fract_x
  _atom_site_fract_y
  _atom_site_fract_z
  _atom_site_occupancy
  N   N1        1.0  0.13254191771940182  0.5629750154059434  0.411292213803224  1.0000
  C   C1        1.0  0.0788803727929639  0.5042258488337525  0.3262865074917378  1.0000
  C   C2        1.0  0.011927322272358824  0.43092363549340007  0.2202233794184405  1.0000
  C   C3        1.0  0.8842105681176736  0.43092344590279663  0.22022348101006806  1.0000
  C   C4        1.0  0.8224883189985781  0.35846093935632295  0.11537563869247026  1.0000
  C   C5        1.0  0.8869538085406616  0.28657161093453953  0.011357062437554305  1.0000
  C   C6        1.0  0.013360021820217897  0.28657150103578477  0.011357085032554387  1.0000
  C   C7        1.0  0.07574585707704087  0.3584610375196813  0.11537561103941484  1.0000
  C   C8        1.0  0.8151369511201979  0.5042259236351048  0.3262864944057742  1.0000
  N   N2        1.0  0.7597758033712381  0.5629750583465538  0.4112922426142138  1.0000
  H   H1        1.0  0.7244392059387105  0.35755353440591375  0.11406204990052915  1.0000
  H   H2        1.0  0.8388624886413573  0.2308125749893768  0.9306784486827562  1.0000
  H   H3        1.0  0.06306452892409323  0.230812684395868  0.9306784481384477  1.0000
  H   H4        1.0  0.1738212169977087  0.35755348797568537  0.11406232493888811  1.0000
  C   C9        1.0  0.4498183975324679  0.13953762126394276  0.41105466037301497  1.0000
  C   C10       1.0  0.45081025411779524  0.22192620581806818  0.27803851328440693  1.0000
  C   C11       1.0  0.4407793357358705  0.1556114171087259  0.14791748583791375  1.0000
  C   C12       1.0  0.4295146995842561  0.006028755005526463  0.1488107253979145  1.0000
  C   C13       1.0  0.4303999165721947  0.9220785749087332  0.2793853595108544  1.0000
  C   C14       1.0  0.44251101313450314  0.9864014781970967  0.41154225957464735  1.0000
  Cl  Cl1       1.0  0.44050175502311173  0.2606707802732253  0.9833914945229467  1.0000
  H   H5        1.0  0.5108089461880769  0.40464778627487896  0.6376288135361937  1.0000
  H   H6        1.0  0.45649283047034994  0.3386196821657772  0.275185265964371  1.0000
  H   H7        1.0  0.42122487687011634  0.9543513789123029  0.048141328817060895  1.0000
  H   H8        1.0  0.4244935262472618  0.8057929495584867  0.27673535214449263  1.0000
  H   H9        1.0  0.4010038160339937  0.6898783904238803  0.6445768246494916  1.0000
  C   C15       1.0  0.4478989512241496  0.5589515365225337  0.9880992262267307  1.0000
  C   C16       1.0  0.5505289915165891  0.6097067719171474  0.05747679646538061  1.0000
  C   C17       1.0  0.6463377222643378  0.6719499465019487  0.9774485716536634  1.0000
  C   C18       1.0  0.6411225810208689  0.683576176851733  0.8268951393749289  1.0000
  C   C19       1.0  0.5410882466711708  0.6317294563003231  0.7560140287720363  1.0000
  C   C20       1.0  0.444430435410875  0.5669875493959597  0.834497676828367  1.0000
  S   S1        1.0  0.7757606998751756  0.7373270931652751  0.06817457032839602  1.0000
  C   C21       1.0  0.7119939943189659  0.9178116316955562  0.0800106483126195  1.0000
  H   H10       1.0  0.15532944893865785  0.49962107682551316  0.09676976668899395  1.0000
  H   H11       1.0  0.7150750599138441  0.731889344025002  0.7644250858261321  1.0000
  H   H12       1.0  0.5406681515991999  0.6392001736201689  0.6389588666202508  1.0000
  H   H13       1.0  0.2489488280356467  0.5211591221439131  0.5575564826728668  1.0000
  H   H14       1.0  0.6942581709502065  0.9682025472592107  0.9700775693034606  1.0000
  H   H15       1.0  0.6264758724652608  0.9123950805022393  0.14337309378144925  1.0000
  H   H16       1.0  0.7775322035375825  0.9850909205095627  0.13504870754403672  1.0000
  Zn  Zn1       1.0  0.3135480817746015  0.562971238425712  0.4113005391418782  1.0000
  Zn  Zn2       1.0  0.5787697201625723  0.5629671204966253  0.4112957046857004  1.0000
  C   C22       1.0  0.4451329203411763  0.5597241653396483  0.6745069414582656  1.0000
  C   C23       1.0  0.44718776152938466  0.5662160142552217  0.14808944481159747  1.0000
  C   C24       1.0  0.44390954495718066  0.8262716253461093  0.4057072737296026  1.0000
  C   C25       1.0  0.4484110610455948  0.2996668225611907  0.4168891883775059  1.0000
  O   O1        1.0  0.5475993636064472  0.5686461858861622  0.2017817854245334  1.0000
  O   O2        1.0  0.54601841607602  0.557289776562081  0.620810516127446  1.0000
  O   O3        1.0  0.5450291620277086  0.7725302357183015  0.4037528835222743  1.0000
  O   O4        1.0  0.5485885275063803  0.3534057360204552  0.4188393099821204  1.0000
  O   O5        1.0  0.34372918392368224  0.7725326229047857  0.4037569338395283  1.0000
  O   O6        1.0  0.34471842333266794  0.5572938954390378  0.6208144906015252  1.0000
  O   O7        1.0  0.3462993784775806  0.568650238064532  0.20178402720732103  1.0000
  O   O8        1.0  0.34728854201878084  0.3534097789112143  0.4188416598065632  1.0000
