data_image0
_chemical_formula_structural       NC10NC3NCH9C13OH12C16H10Zn2C4O8
_chemical_formula_sum              "N3 C47 H31 O9 Zn2"
_cell_length_a       19.437513618241372
_cell_length_b       10.29915010939255
_cell_length_c       10.299151387937775
_cell_angle_alpha    85.56522917257966
_cell_angle_beta     90.33614197722552
_cell_angle_gamma    89.50394211810362

_space_group_name_H-M_alt    "P 1"
_space_group_IT_number       1

loop_
  _space_group_symop_operation_xyz
  'x, y, z'

loop_
  _atom_site_type_symbol
  _atom_site_label
  _atom_site_symmetry_multiplicity
  _atom_site_fract_x
  _atom_site_fract_y
  _atom_site_fract_z
  _atom_site_occupancy
  N   N1        1.0  0.6477539654069473  0.4099727971126863  0.5752330812932225  1.0000
  C   C1        1.0  0.588817946508967  0.42698298900291376  0.5722523648616114  1.0000
  C   C2        1.0  0.5153741205411397  0.44823567547411675  0.5685524760887943  1.0000
  C   C3        1.0  0.47362955134563556  0.34703372998147825  0.5569210413895098  1.0000
  C   C4        1.0  0.3977383504503396  0.3570965349980122  0.5496968855285913  1.0000
  C   C5        1.0  0.3581462618160618  0.4379757908508403  0.6154173977553608  1.0000
  C   C6        1.0  0.2819660197330038  0.4293637227895377  0.6069756309909178  1.0000
  C   C7        1.0  0.248850391988611  0.30801170581443915  0.6116524922239797  1.0000
  C   C8        1.0  0.1771172277138654  0.3016367925616656  0.6044861587432808  1.0000
  C   C9        1.0  0.1375291226721992  0.4161413107469078  0.5930053277381095  1.0000
  C   C10       1.0  0.0636815523979738  0.40942812964561903  0.5856709953761035  1.0000
  N   N2        1.0  0.004313203799442096  0.4040313223202436  0.5797746504020138  1.0000
  C   C11       1.0  0.1699281620472731  0.5371830092120662  0.589073831612849  1.0000
  C   C12       1.0  0.241645684688655  0.543811955589667  0.596302116761555  1.0000
  C   C13       1.0  0.3868093615960252  0.5303006368905372  0.7053122967064511  1.0000
  N   N3        1.0  0.44378516984561334  0.5935104003320426  0.6848905799030696  1.0000
  C   C14       1.0  0.48763370949820556  0.5842073432016586  0.5717850778217377  1.0000
  H   H1        1.0  0.49602988861087355  0.25196604509449494  0.544825993309817  1.0000
  H   H2        1.0  0.3730388509318204  0.28755794958599457  0.4913976625668963  1.0000
  H   H3        1.0  0.2783149249662118  0.21809723136153547  0.6226981778891534  1.0000
  H   H4        1.0  0.1525389672527408  0.2074049927589587  0.6083993271694439  1.0000
  H   H5        1.0  0.1397783265676776  0.6264433672570273  0.5803404843911693  1.0000
  H   H6        1.0  0.2657423562623887  0.6384565798446717  0.5923733746614677  1.0000
  H   H7        1.0  0.3567981270472673  0.5507183584443345  0.7896736956898479  1.0000
  H   H8        1.0  0.5303744178056156  0.6545270632402247  0.5775291167198084  1.0000
  H   H9        1.0  0.45796699390343076  0.6122852671105614  0.4811313596431133  1.0000
  C   C15       1.0  0.8261017116828424  0.025601315257054672  0.5776488783972422  1.0000
  C   C16       1.0  0.8248200876471785  0.013877405665934312  0.7144434916102242  1.0000
  C   C17       1.0  0.8241104406972023  0.8907994182013502  0.7835368071259415  1.0000
  C   C18       1.0  0.8246874771043881  0.7786241141822837  0.7140784069689017  1.0000
  C   C19       1.0  0.8259720524687574  0.7883926056127676  0.57737023045075  1.0000
  C   C20       1.0  0.826673555045599  0.9123420588693667  0.5099544022641709  1.0000
  C   C21       1.0  0.8227486385112458  0.8793786625527554  0.9281597987276324  1.0000
  C   C22       1.0  0.7804359497304895  0.7872327913787617  0.995642363669106  1.0000
  C   C23       1.0  0.7791317013993416  0.7765676608542427  0.1317321638970026  1.0000
  C   C24       1.0  0.8205678196251621  0.8568836963665899  0.2028053481689509  1.0000
  C   C25       1.0  0.8622222123801737  0.9499944483598493  0.13595697089226322  1.0000
  C   C26       1.0  0.8635424312089112  0.9608351096670875  0.9998670853717133  1.0000
  C   C27       1.0  0.8177197030112844  0.847801610755487  0.3488555645944247  1.0000
  O   O1        1.0  0.7662929211786853  0.9318512990767303  0.38844124410110403  1.0000
  H   H10       1.0  0.8280738550757283  0.2550310282574759  0.3194369422506349  1.0000
  H   H11       1.0  0.8234170359181299  0.10069566155605834  0.7674342787746444  1.0000
  H   H12       1.0  0.8250744856738126  0.6835164915110982  0.7669169317510747  1.0000
  H   H13       1.0  0.8276624396535888  0.9205930296146748  0.4045072702859008  1.0000
  H   H14       1.0  0.8264198377005508  0.46467521366428377  0.52478688130899  1.0000
  H   H15       1.0  0.7475386951019004  0.7247513745270564  0.9431145682071325  1.0000
  H   H16       1.0  0.7456584364450927  0.7058160858313708  0.18168144316896007  1.0000
  H   H17       1.0  0.8938520917462001  0.014050254491019046  0.18921483030140052  1.0000
  H   H18       1.0  0.8970386634709522  0.03203205947667098  0.9507247431343411  1.0000
  H   H19       1.0  0.8683230209012464  0.874803723445063  0.3896701815822283  1.0000
  H   H20       1.0  0.8065349675727329  0.7459818996509007  0.38652574085943514  1.0000
  H   H21       1.0  0.7665376303108243  0.9222088430477509  0.4850711891401929  1.0000
  C   C28       1.0  0.8260767840793471  0.4068275573829289  0.1961391343901888  1.0000
  C   C29       1.0  0.7596852691419792  0.4618911951400856  0.19036542301258375  1.0000
  C   C30       1.0  0.7259823344122367  0.48998423654783974  0.07028149065668199  1.0000
  C   C31       1.0  0.7595655196568559  0.4622708147183623  0.9550514263684806  1.0000
  C   C32       1.0  0.8259969697141384  0.40716636396912786  0.9588799718340916  1.0000
  C   C33       1.0  0.8588443088268384  0.3797859047615917  0.07984509842270748  1.0000
  C   C34       1.0  0.6557481521800277  0.5482352076140012  0.06521901072749636  1.0000
  C   C35       1.0  0.6382559225485462  0.6483469214750057  0.9696551761545704  1.0000
  C   C36       1.0  0.5721401777544314  0.7031337089191128  0.9650185118067482  1.0000
  C   C37       1.0  0.5226493226675689  0.6586317512073117  0.055632599175148734  1.0000
  C   C38       1.0  0.5395179039534551  0.5590888126137832  0.15102619451944155  1.0000
  C   C39       1.0  0.6056139252185018  0.5042147540570798  0.15591220440744902  1.0000
  C   C40       1.0  0.4545926357406575  0.7150807353644117  0.050731254922221636  1.0000
  C   C41       1.0  0.3975961207725689  0.7623559074352424  0.04662636317589385  1.0000
  C   C42       1.0  0.3308537944127506  0.8177147091816381  0.041819576146134844  1.0000
  C   C43       1.0  0.2738664901529858  0.8649824792416104  0.037715454188301356  1.0000
  H   H22       1.0  0.8515991853470489  0.3855853974602861  0.525840231644753  1.0000
  H   H23       1.0  0.7344020172618305  0.484708654725148  0.2793391037855937  1.0000
  H   H24       1.0  0.7334560069163217  0.4820864317037066  0.8623389292537397  1.0000
  H   H25       1.0  0.9100529585939914  0.3373103655837197  0.0835830268277371  1.0000
  H   H26       1.0  0.9512101245459418  0.3024040828276373  0.7588701050023308  1.0000
  H   H27       1.0  0.6759671031364308  0.685423511771518  0.8995754106076213  1.0000
  H   H28       1.0  0.5596847377912832  0.7803965723763737  0.8909794456676986  1.0000
  H   H29       1.0  0.5015395752260804  0.523658000878438  0.22143336954847026  1.0000
  H   H30       1.0  0.6172564349033549  0.42620373989419463  0.22954817535970218  1.0000
  H   H31       1.0  0.2238269319176049  0.90648742158291  0.03411170365753269  1.0000
  Zn  Zn1       1.0  0.750649264819687  0.40825472966008225  0.5765511902933056  1.0000
  Zn  Zn2       1.0  0.9014179112938583  0.4057387240759731  0.5784672152144494  1.0000
  C   C44       1.0  0.8260114078080103  0.40192827708554163  0.8147074755400114  1.0000
  C   C45       1.0  0.8260574144025727  0.4120667879884256  0.34031107775894043  1.0000
  C   C46       1.0  0.8259935604130696  0.6442066134384736  0.5722476454497529  1.0000
  C   C47       1.0  0.8260752106087114  0.16978689209232734  0.5827709770043674  1.0000
  O   O2        1.0  0.8832668303247934  0.41286464442064785  0.3894236225226242  1.0000
  O   O3        1.0  0.8832319062163384  0.3992198506612452  0.767048775868129  1.0000
  O   O4        1.0  0.8832167227800135  0.594862684765223  0.5712607373312681  1.0000
  O   O5        1.0  0.883281962322601  0.2172218204229481  0.5852115630272319  1.0000
  O   O6        1.0  0.768785162341005  0.5967716341731077  0.5698068418198463  1.0000
  O   O7        1.0  0.7688003455161926  0.40113036047229617  0.7655948105408621  1.0000
  O   O8        1.0  0.768835269841468  0.4147751082775339  0.3879680958056706  1.0000
  O   O9        1.0  0.7688504018278536  0.21913227503355626  0.5837561336818551  1.0000
