data_image0
_chemical_formula_structural       NC12NC2H8C7OC3FC3H8C7OC6H10Zn2C4O8
_chemical_formula_sum              "N2 C44 H26 O10 F1 Zn2"
_cell_length_a       17.80743265337812
_cell_length_b       10.29937835083307
_cell_length_c       10.299382801718286
_cell_angle_alpha    85.56292937340861
_cell_angle_beta     91.51478421497153
_cell_angle_gamma    89.45609770286683

_space_group_name_H-M_alt    "P 1"
_space_group_IT_number       1

loop_
  _space_group_symop_operation_xyz
  'x, y, z'

loop_
  _atom_site_type_symbol
  _atom_site_label
  _atom_site_symmetry_multiplicity
  _atom_site_fract_x
  _atom_site_fract_y
  _atom_site_fract_z
  _atom_site_occupancy
  N   N1        1.0  0.7079785152444191  0.4064246783496057  0.6011950863114122  1.0000
  C   C1        1.0  0.6571778319591686  0.4359692372456043  0.5324943754645496  1.0000
  C   C2        1.0  0.5939767650870198  0.47272052476109344  0.44703933923200284  1.0000
  C   C3        1.0  0.6057386081398395  0.5267149433002019  0.32041600559595185  1.0000
  C   C4        1.0  0.5444441299723326  0.5619631193109081  0.23735707694961955  1.0000
  C   C5        1.0  0.47123368518052394  0.5434802036854682  0.28026156329198737  1.0000
  C   C6        1.0  0.45849495564169473  0.48936708244447774  0.4073530430600212  1.0000
  C   C7        1.0  0.5206467537016198  0.45412215676196416  0.4903954600022777  1.0000
  C   C8        1.0  0.38071553225739474  0.4697706374955428  0.45311789103731764  1.0000
  C   C9        1.0  0.3619114666278365  0.49698660199204475  0.5801561976977118  1.0000
  C   C10       1.0  0.2886710768135626  0.47854527039791517  0.6231012411357675  1.0000
  C   C11       1.0  0.2332915747531617  0.43263388136359365  0.5398459576923706  1.0000
  C   C12       1.0  0.157914205259648  0.41364001828055397  0.5841919625331133  1.0000
  N   N2        1.0  0.0973161380734276  0.39837022977397746  0.6198430997196265  1.0000
  C   C13       1.0  0.2514040115067559  0.40524912016277237  0.4133506283905743  1.0000
  C   C14       1.0  0.3245915968562319  0.423705180136541  0.3701497018979525  1.0000
  H   H1        1.0  0.6622137195654251  0.5415315168102324  0.28597802734167366  1.0000
  H   H2        1.0  0.5536689972848197  0.6040397576620349  0.13957521493767522  1.0000
  H   H3        1.0  0.4246125914777538  0.5731020748776177  0.21466871994906195  1.0000
  H   H4        1.0  0.5121200127827469  0.4106601284745505  0.5880530436568628  1.0000
  H   H5        1.0  0.4035832058567991  0.53418209146575  0.6457234318574324  1.0000
  H   H6        1.0  0.27521391921988553  0.500413769219336  0.7211053492003459  1.0000
  H   H7        1.0  0.20901557251397773  0.3693210546272226  0.34819618907671424  1.0000
  H   H8        1.0  0.33751999363537266  0.40030114339110545  0.2724491048646646  1.0000
  C   C15       1.0  0.9025717272298155  0.021014071484466212  0.610579467847782  1.0000
  C   C16       1.0  0.824192606258916  0.022640336048974644  0.590800549922434  1.0000
  C   C17       1.0  0.784564668832243  0.9061750097743755  0.5822973819856205  1.0000
  C   C18       1.0  0.8243762998839056  0.7873925341954948  0.5908162234975375  1.0000
  C   C19       1.0  0.9027300981121487  0.783770747483153  0.6104702593490616  1.0000
  C   C20       1.0  0.9413512040013784  0.9011114567421189  0.6205789793754006  1.0000
  C   C21       1.0  0.7018948271377592  0.9078524376664959  0.56004346709985  1.0000
  O   O1        1.0  0.6728905005783486  0.8237501770584829  0.49199311255243827  1.0000
  C   C22       1.0  0.6521286625629149  0.004839747593638373  0.6149988732830046  1.0000
  C   C23       1.0  0.5852206157533837  0.0462106893023586  0.5480132161204188  1.0000
  C   C24       1.0  0.5374879899990722  0.13646465952979803  0.599787996011953  1.0000
  F   F1        1.0  0.4734003860589294  0.17646951641197983  0.5339987911319586  1.0000
  C   C25       1.0  0.5557495937784288  0.1854047524631015  0.719267995257368  1.0000
  C   C26       1.0  0.6215788859245575  0.14380399570003477  0.7874165492235423  1.0000
  C   C27       1.0  0.6694667707792354  0.05361849352896653  0.7360539187503092  1.0000
  H   H9        1.0  0.7939669148546264  0.1147754959380749  0.5805396865715615  1.0000
  H   H10       1.0  0.7939644833178228  0.6975520140218937  0.5833072764912101  1.0000
  H   H11       1.0  0.0017756817451453086  0.8990537241517047  0.6358263131559648  1.0000
  H   H12       1.0  0.9329009690196918  0.45500593125624406  0.6169277714158772  1.0000
  H   H13       1.0  0.5702708142409508  0.009501706417123897  0.4551386006174386  1.0000
  H   H14       1.0  0.5187786935378014  0.25516505913352994  0.7593762806573365  1.0000
  H   H15       1.0  0.6353672224252964  0.18102420757806928  0.8804491051644148  1.0000
  H   H16       1.0  0.7195227477188886  0.02103051429807579  0.7916037114712119  1.0000
  C   C28       1.0  0.9027258455889812  0.40231761921042786  0.2291586728786543  1.0000
  C   C29       1.0  0.9816503369185181  0.40154836841781066  0.2316351072684881  1.0000
  C   C30       1.0  0.02145730321621131  0.39967224816203273  0.11582624807187059  1.0000
  C   C31       1.0  0.9814672751082963  0.4015801934007377  0.996380766233741  1.0000
  C   C32       1.0  0.9025759647374448  0.4024671814128799  0.991891005813418  1.0000
  C   C33       1.0  0.8636628036106542  0.4024860148091187  0.1088677504305171  1.0000
  C   C34       1.0  0.10479159449327624  0.4002440229204507  0.11818884118534842  1.0000
  O   O2        1.0  0.1379049185939951  0.4602703545755806  0.025238709283130312  1.0000
  C   C35       1.0  0.15056066018585446  0.3327112496650273  0.22589738675550491  1.0000
  C   C36       1.0  0.22118321593908563  0.38171210475866935  0.2603736649313568  1.0000
  C   C37       1.0  0.2651208080911398  0.31786668494913783  0.3607421754322089  1.0000
  C   C38       1.0  0.23935566585302556  0.20409144058764772  0.4268895505314745  1.0000
  C   C39       1.0  0.16972899883148584  0.15362296077278503  0.39243817473547454  1.0000
  C   C40       1.0  0.1255773175577839  0.21709408166965982  0.2921615287695365  1.0000
  H   H17       1.0  0.7537839336946519  0.4057810786246385  0.4316495259557433  1.0000
  H   H18       1.0  0.012256224958246074  0.403865804045088  0.32369942058411943  1.0000
  H   H19       1.0  0.012080298079159668  0.40111824287865216  0.906895519837057  1.0000
  H   H20       1.0  0.8028179675402584  0.40307984794869633  0.10615437068924737  1.0000
  H   H21       1.0  0.8722696323310191  0.4039129413923217  0.6626242689412849  1.0000
  H   H22       1.0  0.24205865100772092  0.4699569228222156  0.21042447434006625  1.0000
  H   H23       1.0  0.3192062452330251  0.35663317308253584  0.3871992741775656  1.0000
  H   H24       1.0  0.2734729126508608  0.1547563820230491  0.5044744935671407  1.0000
  H   H25       1.0  0.15007630335904443  0.06489691987659164  0.44307476230180054  1.0000
  H   H26       1.0  0.07239327475650237  0.17502664240735322  0.2655618851624588  1.0000
  Zn  Zn1       1.0  0.8203329441850793  0.4040968725333207  0.60658398753709  1.0000
  Zn  Zn2       1.0  0.9849617023578826  0.4006874438080841  0.6144647929861121  1.0000
  C   C41       1.0  0.9026015678079764  0.39726506485512236  0.8477189581772372  1.0000
  C   C42       1.0  0.9026948767911327  0.407520852961881  0.3733300356350237  1.0000
  C   C43       1.0  0.9026973241232578  0.63959254296105  0.6053155779807775  1.0000
  C   C44       1.0  0.9025990639619532  0.1651918156714289  0.6157334826038681  1.0000
  O   O3        1.0  0.965160237959739  0.4079675793527866  0.4247059874057339  1.0000
  O   O4        1.0  0.9650856247123648  0.39422968111777207  0.802323981689833  1.0000
  O   O5        1.0  0.9651621066795848  0.5899122020441807  0.6065814966267233  1.0000
  O   O6        1.0  0.965083699836936  0.21228506886126564  0.6204483724043566  1.0000
  O   O7        1.0  0.8402108905263119  0.5924992486450222  0.6006004054226823  1.0000
  O   O8        1.0  0.8401344088932765  0.39681828806802155  0.7963428210172452  1.0000
  O   O9        1.0  0.8402090224879791  0.4105561407381754  0.418723265352495  1.0000
  O   O10       1.0  0.8401324843410456  0.21487362097665016  0.614465747719442  1.0000
