data_image0
_chemical_formula_structural       NC6NC3H6C10H5C9H6Zn2C4O8
_chemical_formula_sum              "N2 C32 H17 Zn2 O8"
_cell_length_a       14.934028789175542
_cell_length_b       9.275150299802176
_cell_length_c       9.275153671780862
_cell_angle_alpha    85.37735250896073
_cell_angle_beta     89.38462069014352
_cell_angle_gamma    89.44625895822752

_space_group_name_H-M_alt    "P 1"
_space_group_IT_number       1

loop_
  _space_group_symop_operation_xyz
  'x, y, z'

loop_
  _atom_site_type_symbol
  _atom_site_label
  _atom_site_symmetry_multiplicity
  _atom_site_fract_x
  _atom_site_fract_y
  _atom_site_fract_z
  _atom_site_occupancy
  N   N1        1.0  0.8446227570093968  0.5741189152747036  0.40004857529780297  1.0000
  C   C1        1.0  0.7671471483485409  0.5730184768323547  0.39937577234126165  1.0000
  C   C2        1.0  0.670763632626353  0.5716444722677643  0.39853590476680645  1.0000
  C   C3        1.0  0.6219876442023718  0.6786525911154067  0.4638383168538376  1.0000
  C   C4        1.0  0.5284863680257441  0.6775493640311917  0.46316493563944583  1.0000
  C   C5        1.0  0.48284801276156497  0.5694926278167067  0.3972226685538835  1.0000
  C   C6        1.0  0.38618027985517633  0.5718110975265867  0.3986388213866978  1.0000
  N   N2        1.0  0.30868272613254527  0.5736510963878687  0.39976304564262155  1.0000
  C   C7        1.0  0.5316324545424442  0.46100407362734047  0.3310162568093701  1.0000
  C   C8        1.0  0.4844288009808897  0.34352394313069307  0.259324536466829  1.0000
  C   C9        1.0  0.6257541379831458  0.46323303859539466  0.332376549745496  1.0000
  H   H1        1.0  0.6562334309256265  0.7629650642343496  0.5152911497061172  1.0000
  H   H2        1.0  0.49165835997473484  0.7612125084569036  0.51422136733892  1.0000
  H   H3        1.0  0.4419749179783236  0.39239088772973374  0.17041406114230684  1.0000
  H   H4        1.0  0.4415194423838057  0.2808527935113898  0.33981756451762607  1.0000
  H   H5        1.0  0.5326083282314781  0.26743035172166185  0.2128814697559531  1.0000
  H   H6        1.0  0.6640646636658609  0.38068286411706476  0.2819996061800145  1.0000
  C   C10       1.0  0.0790042122464731  0.1501832577598223  0.4023182927562656  1.0000
  C   C11       1.0  0.12679416325101897  0.231908519143746  0.2932003244761767  1.0000
  C   C12       1.0  0.16694030367278323  0.1654257051222856  0.1785433212441158  1.0000
  C   C13       1.0  0.15970587723930027  0.01624755487290553  0.17152751816758238  1.0000
  C   C14       1.0  0.11387501064977834  0.9330748226187394  0.27999623945706986  1.0000
  C   C15       1.0  0.07430982853016221  0.9975756251524962  0.3975058428207756  1.0000
  C   C16       1.0  0.2147571308019125  0.2508867061712141  0.06693113748934354  1.0000
  C   C17       1.0  0.25479186777053275  0.3224627179131802  0.9734884753065272  1.0000
  C   C18       1.0  0.30167068863274715  0.40628318166272726  0.8640711931937639  1.0000
  C   C19       1.0  0.3416977070578986  0.47785376477422065  0.7706464433396589  1.0000
  H   H7        1.0  0.13108221699930617  0.3483582499192454  0.295425235016014  1.0000
  H   H8        1.0  0.19029157974273023  0.9638450194702509  0.0828073825439053  1.0000
  H   H9        1.0  0.11117647392045965  0.8170615830624132  0.273772625867154  1.0000
  H   H10       1.0  0.013926993409331555  0.8680406775426289  0.7401355790812307  1.0000
  H   H11       1.0  0.37684476772901543  0.5406988131005039  0.6886117965551706  1.0000
  C   C20       1.0  0.07937322839719613  0.5727923532316319  0.976486932137082  1.0000
  C   C21       1.0  0.10221035032368041  0.7002819985982576  0.0394919846176256  1.0000
  C   C22       1.0  0.11667359911333226  0.8291381642472638  0.9537583745244889  1.0000
  C   C23       1.0  0.10838402123407254  0.8321097158584811  0.8038061169479658  1.0000
  C   C24       1.0  0.08726830642264044  0.7062276519117401  0.739172457347927  1.0000
  C   C25       1.0  0.07394086502918484  0.5749665352007611  0.8233372278831332  1.0000
  C   C26       1.0  0.13902398243301106  0.9590017867343059  0.020115600293499892  1.0000
  C   C27       1.0  0.15773791151918592  0.06772575370507727  0.07569783412335404  1.0000
  C   C28       1.0  0.19836130084711912  0.30373991028334624  0.19636994275021302  1.0000
  H   H12       1.0  0.08480731788759027  0.3338126367917553  0.276378033708246  1.0000
  H   H13       1.0  0.10672676704498668  0.7003504963771829  0.15610418276937474  1.0000
  H   H14       1.0  0.11912214498613431  0.93157406738649  0.7365275608309073  1.0000
  H   H15       1.0  0.08343561921371065  0.7107490601708542  0.6223174676124508  1.0000
  H   H16       1.0  0.08713099569392013  0.22011447758461716  0.7488466880094664  1.0000
  H   H17       1.0  0.214790483081848  0.39919021455088366  0.24517378815780974  1.0000
  Zn  Zn1       1.0  0.978540421410665  0.5739800678208398  0.39997451981711574  1.0000
  Zn  Zn2       1.0  0.17476508164940596  0.5737781551198501  0.39984895684930444  1.0000
  C   C29       1.0  0.07499752135819966  0.5688076188060138  0.6632970091020575  1.0000
  C   C30       1.0  0.07831011347601423  0.5789524228032727  0.13652659737736594  1.0000
  C   C31       1.0  0.07522943923897558  0.8373857043371793  0.39266962282285656  1.0000
  C   C32       1.0  0.07807813774752724  0.31037260403861294  0.40715407041824847  1.0000
  O   O1        1.0  0.15241959319488171  0.5809368789549345  0.19018975626866624  1.0000
  O   O2        1.0  0.14981802712346917  0.5666688260466285  0.6095381419324546  1.0000
  O   O3        1.0  0.1500042902870078  0.7835490316287588  0.3910046049005924  1.0000
  O   O4        1.0  0.15223326370950407  0.36405668348559317  0.4087231851719041  1.0000
  O   O5        1.0  0.0010721723887598944  0.7837015395255511  0.39110029152977116  1.0000
  O   O6        1.0  0.0008859001111261031  0.5668230672473691  0.6096337418352071  1.0000
  O   O7        1.0  0.0034874776412723266  0.5810910654253196  0.1902836228696616  1.0000
  O   O8        1.0  0.0033011475159276946  0.36421085991364427  0.40881715993677903  1.0000
