data_image0
_chemical_formula_structural       NC12NC2H8C11NC2H9C10IC2H9Zn2C4O8
_chemical_formula_sum              "N3 C43 H26 I1 Zn2 O8"
_cell_length_a       17.80743265337812
_cell_length_b       10.29977213141725
_cell_length_c       10.299773630820606
_cell_angle_alpha    85.54704457802963
_cell_angle_beta     91.53904260144846
_cell_angle_gamma    89.45311095633302

_space_group_name_H-M_alt    "P 1"
_space_group_IT_number       1

loop_
  _space_group_symop_operation_xyz
  'x, y, z'

loop_
  _atom_site_type_symbol
  _atom_site_label
  _atom_site_symmetry_multiplicity
  _atom_site_fract_x
  _atom_site_fract_y
  _atom_site_fract_z
  _atom_site_occupancy
  N   N1        1.0  0.7075936771316028  0.40705625262464723  0.601490302352383  1.0000
  C   C1        1.0  0.6567751443870389  0.43663400865594565  0.5327952926722024  1.0000
  C   C2        1.0  0.5935518749924978  0.47342658914208585  0.44734734832395473  1.0000
  C   C3        1.0  0.6052808316578503  0.5274822191544135  0.32073442030287125  1.0000
  C   C4        1.0  0.5439647860841806  0.5627705563471179  0.23768227949889423  1.0000
  C   C5        1.0  0.4707654893615086  0.5442669104401324  0.2805831982766265  1.0000
  C   C6        1.0  0.45805976564384354  0.4900923469588212  0.4076642519690592  1.0000
  C   C7        1.0  0.5202331269223618  0.4548072682851511  0.49069988158221456  1.0000
  C   C8        1.0  0.3802922303925792  0.47047378313954297  0.45342532095541827  1.0000
  C   C9        1.0  0.3615189941919521  0.4976238512005051  0.5804713017732195  1.0000
  C   C10       1.0  0.2882897614141909  0.479161766474834  0.6234127874179263  1.0000
  C   C11       1.0  0.2328908018541186  0.43329510996526055  0.5401462261371999  1.0000
  C   C12       1.0  0.15752495205906064  0.41427981403462244  0.5844885680417065  1.0000
  N   N2        1.0  0.09693614591869881  0.39899279499462326  0.6201367604729635  1.0000
  C   C13       1.0  0.2509725485311861  0.4059759792603827  0.4136431920206596  1.0000
  C   C14       1.0  0.3241489128970931  0.4244529212636028  0.3704458233426613  1.0000
  H   H1        1.0  0.6617469954122055  0.5423154332083402  0.28629930137497706  1.0000
  H   H2        1.0  0.5531642475383624  0.6048944428267362  0.13990853771291079  1.0000
  H   H3        1.0  0.4241273160640194  0.5739203991016748  0.21499611286241782  1.0000
  H   H4        1.0  0.5117317978424871  0.4112981312006314  0.5883490350914578  1.0000
  H   H5        1.0  0.4032060294514688  0.5347840546183515  0.6460476488034803  1.0000
  H   H6        1.0  0.27485636407124353  0.50097938119781  0.721423009957403  1.0000
  H   H7        1.0  0.20856888232549883  0.37008292069750115  0.3484799271727479  1.0000
  H   H8        1.0  0.33705366565261063  0.40109969937069606  0.27273877394224133  1.0000
  C   C15       1.0  0.9021994711000464  0.02166212446069004  0.6107890248813199  1.0000
  C   C16       1.0  0.9195691605398137  0.030670749252797776  0.4782413740974696  1.0000
  C   C17       1.0  0.9284404384411781  0.9180932949868108  0.4111091504012869  1.0000
  C   C18       1.0  0.9197083756152588  0.7953769808776008  0.47830230968565285  1.0000
  C   C19       1.0  0.9023375463114583  0.784376780846273  0.6108495469638495  1.0000
  C   C20       1.0  0.8936806507183167  0.8980732724492927  0.6763506714172804  1.0000
  C   C21       1.0  0.9468178519151382  0.9286778091189442  0.27088462557461646  1.0000
  C   C22       1.0  0.9999321853033512  0.8438008172251136  0.22282110515036838  1.0000
  C   C23       1.0  0.017203873601528974  0.8538885608896705  0.09082383616352696  1.0000
  C   C24       1.0  0.9816474696901771  0.9487407558207428  0.00514426433110371  1.0000
  C   C25       1.0  0.9994579383180839  0.9590005914841213  0.8692581201506604  1.0000
  N   N3        1.0  0.013776344330565406  0.9672486844465809  0.7600148216512808  1.0000
  C   C26       1.0  0.928725917868846  0.033589670715448605  0.05195378455271649  1.0000
  C   C27       1.0  0.9113999461474797  0.02374804939492801  0.18392715841324048  1.0000
  H   H9        1.0  0.8955490545420203  0.34568450224427494  0.6612821760619187  1.0000
  H   H10       1.0  0.9272524738213115  0.1254262930331962  0.4273395300951992  1.0000
  H   H11       1.0  0.9254769828645443  0.7083690501416009  0.4265590400881576  1.0000
  H   H12       1.0  0.880280357552658  0.890355334724214  0.7786049672816966  1.0000
  H   H13       1.0  0.8957505289010175  0.45273000153266857  0.6613715032815273  1.0000
  H   H14       1.0  0.028822279568936574  0.7707414532033635  0.28761753970737347  1.0000
  H   H15       1.0  0.058414519622937755  0.787927124840651  0.05569515023891846  1.0000
  H   H16       1.0  0.9007100675025288  0.10715189599007502  0.9864125907784976  1.0000
  H   H17       1.0  0.8695952707759401  0.08936840447109204  0.21766621254553598  1.0000
  C   C28       1.0  0.9022487116504982  0.4031380083948254  0.22944823977548404  1.0000
  C   C29       1.0  0.9779991917034061  0.4397605642433471  0.229126411077591  1.0000
  C   C30       1.0  0.01640250466013571  0.4581969469682396  0.11183504989065307  1.0000
  C   C31       1.0  0.9780391487578084  0.43952094977965145  0.9938604654743615  1.0000
  C   C32       1.0  0.9022882921105789  0.4029009543129637  0.9921903220975256  1.0000
  C   C33       1.0  0.8648173393491285  0.3849138770747824  0.11048594231496156  1.0000
  C   C34       1.0  0.09653934224801564  0.4969391958465593  0.1125481499084533  1.0000
  C   C35       1.0  0.14779101088079027  0.43986444438670136  0.0315510201629594  1.0000
  C   C36       1.0  0.22319566177999928  0.4764558688242131  0.03242252941229018  1.0000
  C   C37       1.0  0.24831435844722516  0.5703167208484254  0.11389694219254044  1.0000
  I   I1        1.0  0.36209231477763093  0.6253245713154229  0.1149076192957479  1.0000
  C   C38       1.0  0.1979324115046901  0.6276754981022504  0.1947005844700631  1.0000
  C   C39       1.0  0.1224856217852619  0.5913361061721194  0.19423142947476713  1.0000
  H   H18       1.0  0.8733746581688749  0.3892402614944892  0.5570192997564811  1.0000
  H   H19       1.0  0.0076033850388526085  0.452299245441005  0.32045827388518133  1.0000
  H   H20       1.0  0.007095149919912779  0.45534125887402355  0.9030508009882281  1.0000
  H   H21       1.0  0.8063791333685632  0.3566622869292746  0.10996580389570144  1.0000
  H   H22       1.0  0.8734330871869128  0.3888912571275156  0.6641051481969877  1.0000
  H   H23       1.0  0.1297709057970979  0.3657783905686809  0.9688445390834834  1.0000
  H   H24       1.0  0.2620989596306813  0.4315649289300276  0.9699740995868908  1.0000
  H   H25       1.0  0.2171426806033363  0.7006622511903763  0.2576653440905583  1.0000
  H   H26       1.0  0.0842546496763179  0.6382270626355492  0.25643812632027974  1.0000
  Zn  Zn1       1.0  0.8199495064629629  0.40472584338542117  0.6068787540795473  1.0000
  Zn  Zn2       1.0  0.9845803127255953  0.4013126076648228  0.6147589010154559  1.0000
  C   C40       1.0  0.9022782040336548  0.39777217864059145  0.8480152732312858  1.0000
  C   C41       1.0  0.9022534132214305  0.4082678736888935  0.37362259551192145  1.0000
  C   C42       1.0  0.9023073076609038  0.6402091812116715  0.6056627411891939  1.0000
  C   C43       1.0  0.9022242531383389  0.16582931198535064  0.6159751939802292  1.0000
  O   O1        1.0  0.9647315230819731  0.40868853253214876  0.4249993005907624  1.0000
  O   O2        1.0  0.9647510666321404  0.3947599732729208  0.8026190434167029  1.0000
  O   O3        1.0  0.9647737260357515  0.5905309359250117  0.6069176189019221  1.0000
  O   O4        1.0  0.9647088074976474  0.21291758036509378  0.620700625042105  1.0000
  O   O5        1.0  0.8398209555104961  0.5931208718513356  0.6009370273569601  1.0000
  O   O6        1.0  0.8397982963823127  0.39735146949789274  0.7966383827495866  1.0000
  O   O7        1.0  0.8397787527928761  0.4112799839862491  0.4190170785129819  1.0000
  O   O8        1.0  0.8397560372088501  0.2155090225003442  0.6147185003318247  1.0000
