data_image0
_chemical_formula_structural       NC9NC5H8C7NC2NH8C6SCNH5Zn2C4O8
_chemical_formula_sum              "N5 C34 H21 S1 Zn2 O8"
_cell_length_a       17.807436237873137
_cell_length_b       9.273995741505848
_cell_length_c       10.302218930750287
_cell_angle_alpha    85.6945973122959
_cell_angle_beta     89.41007646359061
_cell_angle_gamma    88.97465214434487

_space_group_name_H-M_alt    "P 1"
_space_group_IT_number       1

loop_
  _space_group_symop_operation_xyz
  'x, y, z'

loop_
  _atom_site_type_symbol
  _atom_site_label
  _atom_site_symmetry_multiplicity
  _atom_site_fract_x
  _atom_site_fract_y
  _atom_site_fract_z
  _atom_site_occupancy
  N   N1        1.0  0.7153225623747942  0.5408716684782457  0.5608383614687387  1.0000
  C   C1        1.0  0.6545257566923788  0.5018085552166862  0.5497321865696243  1.0000
  C   C2        1.0  0.578901212599633  0.4532183441776769  0.5359173110222348  1.0000
  C   C3        1.0  0.5603700473698715  0.3739585349197574  0.4307679882937667  1.0000
  C   C4        1.0  0.4869418520863866  0.32665742481249427  0.41727175862729915  1.0000
  C   C5        1.0  0.4309938739548937  0.3581970224104367  0.5088914963048881  1.0000
  C   C6        1.0  0.35295932258112656  0.3080556813170583  0.49463083074005953  1.0000
  C   C7        1.0  0.2912692394039992  0.39881081110048644  0.5207607702147612  1.0000
  C   C8        1.0  0.2176975458455295  0.35128429921058957  0.5072777279253129  1.0000
  C   C9        1.0  0.1549732913816213  0.44502711512612314  0.5337779800785654  1.0000
  N   N2        1.0  0.10455594454115939  0.5203898534080706  0.5550834423921733  1.0000
  C   C10       1.0  0.2052308664823016  0.21271627058605969  0.46763877963898404  1.0000
  C   C11       1.0  0.2660634967194324  0.1219457645473121  0.4415004190886629  1.0000
  C   C12       1.0  0.3395133975523712  0.16903432296614374  0.45478002027540465  1.0000
  C   C13       1.0  0.4502193954124881  0.43800560123510945  0.6142611883438691  1.0000
  C   C14       1.0  0.5236993122718024  0.4850953785569219  0.6276013459547793  1.0000
  H   H1        1.0  0.6026194766147018  0.34901086038522977  0.35901867908644847  1.0000
  H   H2        1.0  0.47369801653896293  0.2670790747992227  0.3342421802298394  1.0000
  H   H3        1.0  0.3003460325807862  0.5070041071523883  0.5498660333003369  1.0000
  H   H4        1.0  0.1485634395748059  0.17493381568361865  0.45696432418552635  1.0000
  H   H5        1.0  0.2562929708017569  0.014663119767899465  0.4111970223479549  1.0000
  H   H6        1.0  0.385763523243411  0.09605234767997728  0.4355775645733786  1.0000
  H   H7        1.0  0.408683907084728  0.4623546090651766  0.6873033737424099  1.0000
  H   H8        1.0  0.5374784970610067  0.5460289416028117  0.7095925030625323  1.0000
  C   C15       1.0  0.9076964818879182  0.10725996240434889  0.5570456215922541  1.0000
  C   C16       1.0  0.9208632410683774  0.1898223142733639  0.4394345622010085  1.0000
  C   C17       1.0  0.9407513253708101  0.12367954049214848  0.3265939905263364  1.0000
  C   C18       1.0  0.9483025170322333  0.9728358494692606  0.32813738782862734  1.0000
  C   C19       1.0  0.9335584590019087  0.8890790734093831  0.4446962132579384  1.0000
  C   C20       1.0  0.912189142603043  0.9539900676852973  0.5588872970936454  1.0000
  C   C21       1.0  0.9702956818879789  0.9047006831457609  0.20716021523287886  1.0000
  N   N3        1.0  0.9730113543986231  0.9788613844654397  0.0891422375281008  1.0000
  C   C22       1.0  0.9955254111333284  0.8798023782881523  0.007152206118348216  1.0000
  C   C23       1.0  0.006253902706810699  0.7483122586207495  0.07591922140196772  1.0000
  N   N4        1.0  0.9904192224188486  0.7641240613808418  0.2016880785782147  1.0000
  H   H9        1.0  0.8468210642081266  0.375034808607031  0.7448059125313249  1.0000
  H   H10       1.0  0.9175945394939806  0.306838870607419  0.4352953388133345  1.0000
  H   H11       1.0  0.9513362721280363  0.1913367346077448  0.2382383116437847  1.0000
  H   H12       1.0  0.9361019722623958  0.7723828387801641  0.44645788486704197  1.0000
  H   H13       1.0  0.9132089256676431  0.6558707774544549  0.7747832607168339  1.0000
  H   H14       1.0  0.0038171498648074116  0.9024044063619566  0.9035143792128694  1.0000
  H   H15       1.0  0.02469335118639582  0.648236684304859  0.03715760952157132  1.0000
  H   H16       1.0  0.9945141039663478  0.6833555894726473  0.27752080757415554  1.0000
  C   C24       1.0  0.9098731435779251  0.5306962538037467  0.1766924868386912  1.0000
  C   C25       1.0  0.9802537120946269  0.459798435303467  0.1792792083818735  1.0000
  C   C26       1.0  0.015239209414553695  0.4240682315241322  0.06358862126690212  1.0000
  C   C27       1.0  0.9804358939087099  0.45961024175254445  0.9441218655729204  1.0000
  C   C28       1.0  0.910012466308207  0.5305538161158609  0.9392404533882637  1.0000
  C   C29       1.0  0.8751047666288972  0.5656552283624798  0.05608795610653105  1.0000
  S   S1        1.0  0.10521242887074167  0.33412043786919954  0.06832840725492306  1.0000
  C   C30       1.0  0.06500083673103707  0.1610096744501055  0.08079098327512702  1.0000
  N   N5        1.0  0.03861605954019319  0.04752881320077252  0.08896159828525496  1.0000
  H   H17       1.0  0.8830988085544946  0.5577450892163884  0.5030381500630778  1.0000
  H   H18       1.0  0.008142447104128257  0.4317928624121983  0.270878923670552  1.0000
  H   H19       1.0  0.008449500984871069  0.43147560613731567  0.855452238118457  1.0000
  H   H20       1.0  0.8208226404809732  0.6203147090919281  0.05324622319652872  1.0000
  H   H21       1.0  0.777308339941084  0.6644121023456211  0.722811891080064  1.0000
  Zn  Zn1       1.0  0.8276468883318948  0.534957210745969  0.5591851166917536  1.0000
  Zn  Zn2       1.0  0.9922315399820291  0.5262925570744024  0.5567473355618786  1.0000
  C   C31       1.0  0.9099539913055854  0.5248373616086537  0.7950900949712314  1.0000
  C   C32       1.0  0.909926243942785  0.5364141306575709  0.3208424620532806  1.0000
  C   C33       1.0  0.9113351218798446  0.7939412663416918  0.5533653756957841  1.0000
  C   C34       1.0  0.9085450480293606  0.2673084967232138  0.5625672476144221  1.0000
  O   O1        1.0  0.972403049098768  0.5350386217185297  0.36829537164676096  1.0000
  O   O2        1.0  0.9723931226833391  0.5196355113439075  0.7457865897879516  1.0000
  O   O3        1.0  0.9735075613580871  0.7369403617734389  0.5505921844624488  1.0000
  O   O4        1.0  0.9712885542993602  0.3177337845772319  0.5634896804761165  1.0000
  O   O5        1.0  0.8485898178499066  0.743515986201531  0.5524427726025853  1.0000
  O   O6        1.0  0.8474753883496665  0.52621286793171  0.7476371124674626  1.0000
  O   O7        1.0  0.8474853142632436  0.5416159283550721  0.37014433320422935  1.0000
  O   O8        1.0  0.8463708194238383  0.32431108088393246  0.565338739354802  1.0000
