data_image0
_chemical_formula_structural       NC9NC3NH7C9H10C12H10Zn2C4O8
_chemical_formula_sum              "N3 C37 H27 Zn2 O8"
_cell_length_a       16.053384444249904
_cell_length_b       9.272676604525723
_cell_length_c       10.299141136925906
_cell_angle_alpha    85.79349771759213
_cell_angle_beta     89.82059794555093
_cell_angle_gamma    89.72820801156413

_space_group_name_H-M_alt    "P 1"
_space_group_IT_number       1

loop_
  _space_group_symop_operation_xyz
  'x, y, z'

loop_
  _atom_site_type_symbol
  _atom_site_label
  _atom_site_symmetry_multiplicity
  _atom_site_fract_x
  _atom_site_fract_y
  _atom_site_fract_z
  _atom_site_occupancy
  N   N1        1.0  0.7927882678465807  0.5592536830651599  0.5705623482209097  1.0000
  C   C1        1.0  0.7418897769288474  0.5361702899080332  0.4956218089805388  1.0000
  C   C2        1.0  0.6786369014558152  0.5074889170326536  0.40252736642692905  1.0000
  C   C3        1.0  0.6921537912986853  0.4941211042745605  0.2717374828326242  1.0000
  C   C4        1.0  0.6153626947636321  0.4660175202177174  0.21937214217460244  1.0000
  C   C5        1.0  0.5582750439511235  0.463803708880683  0.32103858238396943  1.0000
  C   C6        1.0  0.4674732530440385  0.4373584717155292  0.3106879883405813  1.0000
  C   C7        1.0  0.4118599476557998  0.4847517079853654  0.4047835342494137  1.0000
  C   C8        1.0  0.3261697409404375  0.4596708968897773  0.3948705940197738  1.0000
  C   C9        1.0  0.2697876240206855  0.5090006624264255  0.4913457028343573  1.0000
  N   N2        1.0  0.2244730232359815  0.5486548380916334  0.5688965849436085  1.0000
  C   C10       1.0  0.2953661197235155  0.387072510883298  0.29087533206449767  1.0000
  C   C11       1.0  0.3499716545995547  0.33981201249007537  0.1969919814342327  1.0000
  C   C12       1.0  0.4354547926606569  0.3647089476655247  0.2065076059589934  1.0000
  N   N3        1.0  0.5976276302025095  0.4892736219983537  0.43269694497867217  1.0000
  H   H1        1.0  0.750931543202201  0.5037250242730238  0.2201573078025081  1.0000
  H   H2        1.0  0.6029972914897069  0.4507575472059621  0.11813366423271711  1.0000
  H   H3        1.0  0.4345178357604214  0.5429702677872775  0.4848123776410726  1.0000
  H   H4        1.0  0.2292310648024686  0.3671270663707349  0.28236448325724983  1.0000
  H   H5        1.0  0.3260335399969189  0.28341634967217977  0.11673640929359873  1.0000
  H   H6        1.0  0.4763403968787389  0.32537920129398035  0.13310347669611278  1.0000
  H   H7        1.0  0.5714964936602748  0.49187272323714554  0.5254694541515468  1.0000
  C   C13       1.0  0.006274061282828479  0.1305240430479899  0.5680794573695436  1.0000
  C   C14       1.0  0.972953227798507  0.19542101563447464  0.6757685009346903  1.0000
  C   C15       1.0  0.9472542469481665  0.1118942461951644  0.786602252981157  1.0000
  C   C16       1.0  0.9540468267358657  0.9609768971956402  0.7934763119593062  1.0000
  C   C17       1.0  0.9860026931572703  0.8946639589678379  0.6847919137749037  1.0000
  C   C18       1.0  0.010995151367663382  0.9773732092935685  0.571390628932311  1.0000
  C   C19       1.0  0.9253725092474938  0.8780416566867449  0.9183457847086134  1.0000
  C   C20       1.0  0.8832707410503615  0.7329833095563911  0.905577181661895  1.0000
  C   C21       1.0  0.9712383860205419  0.7382567633168615  0.9601906827160658  1.0000
  H   H8        1.0  0.02472719879844587  0.4289360750750361  0.35518705808135165  1.0000
  H   H9        1.0  0.9685579913122483  0.31205147827519997  0.6756606110574073  1.0000
  H   H10       1.0  0.9225948219846648  0.16593115505967046  0.8683001590501775  1.0000
  H   H11       1.0  0.9899767607140292  0.7781658255767354  0.6859825911374153  1.0000
  H   H12       1.0  0.0325430826509987  0.9000871168297775  0.2533032430378799  1.0000
  H   H13       1.0  0.9018097377033631  0.9387280717448723  0.0002085672512720506  1.0000
  H   H14       1.0  0.8793844366206087  0.6938466691974446  0.8065832739870736  1.0000
  H   H15       1.0  0.8350111001087447  0.705372159705098  0.9806889776905162  1.0000
  H   H16       1.0  0.02076236791723773  0.7021955944646752  0.8944483429546997  1.0000
  H   H17       1.0  0.9743894619516168  0.713721687094363  0.06723860778055557  1.0000
  C   C22       1.0  0.008540599535967088  0.554074017363829  0.18834288297722357  1.0000
  C   C23       1.0  0.09563339574227059  0.5674669517660411  0.18625261138541904  1.0000
  C   C24       1.0  0.1398896914382528  0.5741288747525107  0.06805817243871659  1.0000
  C   C25       1.0  0.09587596362616324  0.5672171312349024  0.9509850121490059  1.0000
  C   C26       1.0  0.008728609706332598  0.5538232447586185  0.9511272181858877  1.0000
  C   C27       1.0  0.9655975183233205  0.5473317829014177  0.07025032711555346  1.0000
  C   C28       1.0  0.23202511704459594  0.5882990682155824  0.06689164613238519  1.0000
  C   C29       1.0  0.2811580708212673  0.5082335791066348  0.9841686771203236  1.0000
  C   C30       1.0  0.367874976108572  0.5217508089625238  0.9833093423114007  1.0000
  C   C31       1.0  0.4064586020360559  0.6151221881870884  0.06468931400138267  1.0000
  C   C32       1.0  0.3584033948222616  0.6951707822013137  0.14716348098914223  1.0000
  C   C33       1.0  0.27166667748179174  0.6820156031087565  0.1484941299451954  1.0000
  H   H18       1.0  0.9750350540361069  0.5489957291496279  0.516617869170046  1.0000
  H   H19       1.0  0.12936194859411598  0.5707555967782296  0.2768910312373867  1.0000
  H   H20       1.0  0.129561065301683  0.5742869247137856  0.8594602366638534  1.0000
  H   H21       1.0  0.898420655951417  0.5370055181596418  0.07114670359474418  1.0000
  H   H22       1.0  0.8441935061781369  0.5294590265981323  0.7440441130105575  1.0000
  H   H23       1.0  0.2526212784352577  0.43387106262203873  0.921472358249797  1.0000
  H   H24       1.0  0.4051998566059165  0.45947127770198015  0.9196954829955759  1.0000
  H   H25       1.0  0.4735908503335957  0.6254451205313736  0.06384188511954703  1.0000
  H   H26       1.0  0.38836127954909605  0.767796240819768  0.20992783597980735  1.0000
  H   H27       1.0  0.23555507337938786  0.7464364282003835  0.21200771679639918  1.0000
  Zn  Zn1       1.0  0.917363141486829  0.5561912373699722  0.5700891231803198  1.0000
  Zn  Zn2       1.0  0.09989806326233475  0.5517055329827784  0.5693803789473555  1.0000
  C   C34       1.0  0.008659168457294975  0.5481264122146225  0.8069221682418657  1.0000
  C   C35       1.0  0.008604039741529016  0.5597721284555789  0.33254746073414276  1.0000
  C   C36       1.0  0.010097178864914904  0.8173025097352272  0.5655892642641991  1.0000
  C   C37       1.0  0.007165957406747745  0.29059430005435105  0.5738804274229128  1.0000
  O   O1        1.0  0.07789634730983552  0.5599758745367258  0.38067484501555837  1.0000
  O   O2        1.0  0.0779066367896768  0.5445170326424398  0.7582564853648668  1.0000
  O   O3        1.0  0.0790669149058616  0.7618801580905722  0.56337846742056  1.0000
  O   O4        1.0  0.07673600694035132  0.34261276096611576  0.5755527658614412  1.0000
  O   O5        1.0  0.9405251355186093  0.7652840109189579  0.5639167365012683  1.0000
  O   O6        1.0  0.9393648670393825  0.5479226178837704  0.7587946919695057  1.0000
  O   O7        1.0  0.9393545769499954  0.563381410042789  0.3812114899276906  1.0000
  O   O8        1.0  0.9381942365436072  0.34601828612697916  0.5760895081070319  1.0000
