data_image0
_chemical_formula_structural       NC11NC3H8C7OFH5C7OIH5Zn2C4O8
_chemical_formula_sum              "N2 C32 H18 O10 F1 I1 Zn2"
_cell_length_a       17.807433833752565
_cell_length_b       10.300142710592459
_cell_length_c       10.297413674417344
_cell_angle_alpha    85.55282999795756
_cell_angle_beta     88.53982198225897
_cell_angle_gamma    90.68454205236124

_space_group_name_H-M_alt    "P 1"
_space_group_IT_number       1

loop_
  _space_group_symop_operation_xyz
  'x, y, z'

loop_
  _atom_site_type_symbol
  _atom_site_label
  _atom_site_symmetry_multiplicity
  _atom_site_fract_x
  _atom_site_fract_y
  _atom_site_fract_z
  _atom_site_occupancy
  N   N1        1.0  0.7071847210905124  0.4386087698172356  0.5343730871843955  1.0000
  C   C1        1.0  0.6563756000990059  0.40387461053784124  0.6009486285697554  1.0000
  C   C2        1.0  0.5931639266401851  0.36066817988802335  0.6837601060613261  1.0000
  C   C3        1.0  0.6049101361751499  0.2971042388484577  0.8065028528231392  1.0000
  C   C4        1.0  0.54360550042045  0.2555778155231845  0.8870299551435932  1.0000
  C   C5        1.0  0.4704004071767218  0.2773019921341855  0.8454552336329693  1.0000
  C   C6        1.0  0.45767733277681  0.34102053999284376  0.7222521974676324  1.0000
  C   C7        1.0  0.3799035879947402  0.3640751520768495  0.6778962727038045  1.0000
  C   C8        1.0  0.3610998950852241  0.34722132202871303  0.5482891101594256  1.0000
  C   C9        1.0  0.2878648524903294  0.36890677845442205  0.5066703075696943  1.0000
  C   C10       1.0  0.2324903015294793  0.40776468900651364  0.5938382294559805  1.0000
  C   C11       1.0  0.15711832593091582  0.4301087646625849  0.5508578622167628  1.0000
  N   N2        1.0  0.0965246314781329  0.4480717415172568  0.5163047750585903  1.0000
  C   C12       1.0  0.2506023484091114  0.42482915833350976  0.7229141518329816  1.0000
  C   C13       1.0  0.3237846689562251  0.4031087388469925  0.7647884356531796  1.0000
  C   C14       1.0  0.5198392829671334  0.38254239637061804  0.6417415142806309  1.0000
  H   H1        1.0  0.6613811126794625  0.27968604962470445  0.8398750020929233  1.0000
  H   H2        1.0  0.5528183215467792  0.2061150001256844  0.9817848614671394  1.0000
  H   H3        1.0  0.4237710045943522  0.24273897653881038  0.9089068529154591  1.0000
  H   H4        1.0  0.40276758785280464  0.3155903409405627  0.4795580824106361  1.0000
  H   H5        1.0  0.2744078425918375  0.3550403083614202  0.4066150854515904  1.0000
  H   H6        1.0  0.20821779265850132  0.45523724148285116  0.7911302891587585  1.0000
  H   H7        1.0  0.33671321750743294  0.41852056860484205  0.8646608866322141  1.0000
  H   H8        1.0  0.5113249752132158  0.4333674669311194  0.5472209902838976  1.0000
  C   C15       1.0  0.9018584948941216  0.06198821105461613  0.5253445024050849  1.0000
  C   C16       1.0  0.9687870673720343  0.056988186389409494  0.5947143267136303  1.0000
  C   C17       1.0  0.0025960238793472116  0.9372295248474318  0.6297565885360443  1.0000
  C   C18       1.0  0.9687869909540365  0.8216805705155523  0.5947145579795592  1.0000
  C   C19       1.0  0.9018580335658065  0.8246824747493191  0.525344219935159  1.0000
  C   C20       1.0  0.8687722061671473  0.9453112198022695  0.49105141752155146  1.0000
  C   C21       1.0  0.07306277876298141  0.9319792388894328  0.7027935033517532  1.0000
  O   O1        1.0  0.1041544143928197  0.03476194684291833  0.735018063934082  1.0000
  F   F1        1.0  0.1053360599857287  0.8159229571821237  0.7362452024758837  1.0000
  H   H9        1.0  0.8763179908248542  0.39133073177149263  0.4988725173823441  1.0000
  H   H10       1.0  0.9946713605296041  0.14641874178012548  0.6215425077924928  1.0000
  H   H11       1.0  0.9947036839737182  0.7291912934712722  0.6215769420104833  1.0000
  H   H12       1.0  0.817150963613679  0.9483929074848086  0.43754710315538836  1.0000
  H   H13       1.0  0.8763205719736658  0.4983903201294817  0.4988756602430695  1.0000
  C   C22       1.0  0.9017995626719639  0.44338631583428834  0.1438946522200455  1.0000
  C   C23       1.0  0.8315938407224206  0.5042310643099925  0.14108163149735042  1.0000
  C   C24       1.0  0.7959374670226884  0.5351330558913261  0.022537636286463103  1.0000
  C   C25       1.0  0.8317291926802098  0.5041136202924401  0.9058875168092264  1.0000
  C   C26       1.0  0.9019169851518384  0.44328436361830387  0.906794107928255  1.0000
  C   C27       1.0  0.9365222226675156  0.4132933440659158  0.026278178864181486  1.0000
  C   C28       1.0  0.7216972587172016  0.5994742188970361  0.022101751713916595  1.0000
  O   O2        1.0  0.6906258940408622  0.6264019915983112  0.12780765779937875  1.0000
  I   I1        1.0  0.6630738356016923  0.6502820161444711  0.849371678178505  1.0000
  H   H14       1.0  0.03435366590176404  0.32850546333602115  0.3564199553494538  1.0000
  H   H15       1.0  0.8046147316961694  0.5276129468647452  0.23164565001987025  1.0000
  H   H16       1.0  0.8052891561453887  0.5270279803944685  0.813807882764825  1.0000
  H   H17       1.0  0.9906398424821611  0.3663916050628626  0.027639624629943287  1.0000
  H   H18       1.0  0.9290889108635503  0.4197358050781085  0.579589026707394  1.0000
  Zn  Zn1       1.0  0.8195398099763681  0.44133610355225134  0.529166448707622  1.0000
  Zn  Zn2       1.0  0.9841695294675527  0.4453337872430334  0.5215220017955329  1.0000
  C   C29       1.0  0.9018931035379977  0.43813015177618286  0.762589817164284  1.0000
  C   C30       1.0  0.9018180336759796  0.448541421204091  0.2880986773545777  1.0000
  C   C31       1.0  0.9018534606858281  0.6805176250410108  0.5201681779085259  1.0000
  C   C32       1.0  0.9018576203631262  0.20615238633199118  0.5305203884727432  1.0000
  O   O3        1.0  0.9643003532889673  0.45178295629322873  0.3335938377481574  1.0000
  O   O4        1.0  0.9643609316894522  0.4379217864788394  0.7112923245200315  1.0000
  O   O5        1.0  0.964328077584846  0.633652715916452  0.5155351747549837  1.0000
  O   O6        1.0  0.9643331512016083  0.25605203479430494  0.5293508927264381  1.0000
  O   O7        1.0  0.8393761320622681  0.630617854638181  0.521337560378559  1.0000
  O   O8        1.0  0.8394089861518534  0.43488848544504144  0.7170946408830412  1.0000
  O   O9        1.0  0.8393484075610166  0.4487496102153558  0.3393945923774073  1.0000
  O   O10       1.0  0.8393812054855782  0.25301867941494494  0.5351517447442979  1.0000
