data_image0
_chemical_formula_structural       NC5NC4H6C6ClH5C6BrH4Zn2C4O8
_chemical_formula_sum              "N2 C25 H15 Cl1 Br1 Zn2 O8"
_cell_length_a       13.854160002989762
_cell_length_b       10.30297070629231
_cell_length_c       9.27656775626242
_cell_angle_alpha    86.12016662879066
_cell_angle_beta     90.1862127555096
_cell_angle_gamma    89.9983107048755

_space_group_name_H-M_alt    "P 1"
_space_group_IT_number       1

loop_
  _space_group_symop_operation_xyz
  'x, y, z'

loop_
  _atom_site_type_symbol
  _atom_site_label
  _atom_site_symmetry_multiplicity
  _atom_site_fract_x
  _atom_site_fract_y
  _atom_site_fract_z
  _atom_site_occupancy
  N   N1        1.0  0.9054192753397307  0.4068192831457169  0.4106559425625752  1.0000
  C   C1        1.0  0.8329576727523674  0.42899469780903304  0.35163755758487714  1.0000
  C   C2        1.0  0.7428144159714393  0.45658150930655284  0.27821642687363557  1.0000
  C   C3        1.0  0.6553997788454448  0.4306727486367363  0.34990564979728833  1.0000
  C   C4        1.0  0.567672003549507  0.4565815220016913  0.2782164037121069  1.0000
  C   C5        1.0  0.4778495315901617  0.4289945659998217  0.3516376491616343  1.0000
  N   N2        1.0  0.4056457047429677  0.4068192259851708  0.4106559424749573  1.0000
  C   C6        1.0  0.5673915291070916  0.5089450938777649  0.13485693013147462  1.0000
  C   C7        1.0  0.6547731661483503  0.5367884798881892  0.06306435000405308  1.0000
  C   C8        1.0  0.6544350512450434  0.5892678916522021  0.908221253435594  1.0000
  C   C9        1.0  0.7424686179464353  0.5089450918892564  0.13485683989543662  1.0000
  H   H1        1.0  0.655642167793279  0.3900441759946134  0.46086324825050484  1.0000
  H   H2        1.0  0.4993970959663694  0.5280668821758918  0.079233713721508  1.0000
  H   H3        1.0  0.7192362416110015  0.6504163323618979  0.8844468117474662  1.0000
  H   H4        1.0  0.5895277640938471  0.6504163346249106  0.8844468768019  1.0000
  H   H5        1.0  0.6542812497623474  0.5071476137257425  0.8366991184153888  1.0000
  H   H6        1.0  0.8102200548603519  0.5280669826806241  0.07923362833687286  1.0000
  C   C10       1.0  0.155537109741128  0.025571856863479944  0.4106621753545118  1.0000
  C   C11       1.0  0.25526616017197146  0.022673537841456644  0.4384153372822975  1.0000
  C   C12       1.0  0.3047490529660961  0.9042786245018701  0.4521856147676962  1.0000
  C   C13       1.0  0.255266159253833  0.7875655685739211  0.43841526951720033  1.0000
  C   C14       1.0  0.1555371202216882  0.788056799403592  0.41066225783740795  1.0000
  C   C15       1.0  0.10615872902712506  0.9076535001787355  0.39692092937258017  1.0000
  Cl  Cl1       1.0  0.42933439778377785  0.9021614495669176  0.48685582701751745  1.0000
  H   H7        1.0  0.11797092137905316  0.3539667140869524  0.4002072386382246  1.0000
  H   H8        1.0  0.29493082695978434  0.1120460693469374  0.44945332055853027  1.0000
  H   H9        1.0  0.29493078856326904  0.6968448756058577  0.44945321703613583  1.0000
  H   H10       1.0  0.029244658801538707  0.9089604442384912  0.37551681225008515  1.0000
  H   H11       1.0  0.11797091726427597  0.46093874980994154  0.400207510680229  1.0000
  C   C16       1.0  0.15461579004086512  0.40308335858431055  0.9875354382850441  1.0000
  C   C17       1.0  0.0688420589919263  0.4343376601199025  0.05814626921144339  1.0000
  C   C18       1.0  0.9873575377410828  0.4762860566886817  0.9794452732970368  1.0000
  C   C19       1.0  0.9901162204762457  0.487829786174387  0.8289494302660105  1.0000
  C   C20       1.0  0.07399765870034192  0.45517303616247506  0.7566115367631827  1.0000
  C   C21       1.0  0.1564584923766148  0.4105453039996766  0.8337889615493137  1.0000
  Br  Br1       1.0  0.8785898420788051  0.5462868385523215  0.7216991955384452  1.0000
  H   H12       1.0  0.28740105883134026  0.2851624363122818  0.2783696342732833  1.0000
  H   H13       1.0  0.922283692887419  0.5010390061947853  0.03576265572892813  1.0000
  H   H14       1.0  0.07384574657824626  0.4618047652180446  0.6395610738487596  1.0000
  H   H15       1.0  0.31527593516693364  0.3971392781830776  0.5543942430058344  1.0000
  Zn  Zn1       1.0  0.04977384107062276  0.4068158642348047  0.41066427231464986  1.0000
  Zn  Zn2       1.0  0.26129116595359564  0.4068121252912589  0.41065944633395307  1.0000
  C   C22       1.0  0.1561080011836078  0.4039627710567552  0.6738289094771159  1.0000
  C   C23       1.0  0.15495931591122947  0.4096668577731468  0.14749495054219208  1.0000
  C   C24       1.0  0.15551966398733058  0.6438802560974586  0.40492037493713234  1.0000
  C   C25       1.0  0.1555475810986355  0.16974781360548574  0.41640356190364686  1.0000
  O   O1        1.0  0.2353443287925269  0.41186925739554847  0.2011769926691316  1.0000
  O   O2        1.0  0.2362597428075397  0.4017565505949161  0.6201427897622969  1.0000
  O   O3        1.0  0.23578357426908786  0.5954929671659701  0.4029972455735065  1.0000
  O   O4        1.0  0.23582042491920008  0.21813284916041192  0.4183224288229005  1.0000
  O   O5        1.0  0.07524450992451981  0.5954951403682742  0.40300128981977046  1.0000
  O   O6        1.0  0.07572067829134374  0.4017602829267999  0.6201467571811576  1.0000
  O   O7        1.0  0.07480526056839505  0.4118729292106193  0.2011792277223572  1.0000
  O   O8        1.0  0.07528135692634792  0.21813651264218722  0.418324771905215  1.0000
