data_image0
_chemical_formula_structural       NC8NH4C7NH5C8H8Zn2C4O8
_chemical_formula_sum              "N3 C27 H17 Zn2 O8"
_cell_length_a       13.859017124695912
_cell_length_b       9.275154477615127
_cell_length_c       9.275657083861812
_cell_angle_alpha    86.07548322511155
_cell_angle_beta     89.50282398356396
_cell_angle_gamma    89.43373790894346

_space_group_name_H-M_alt    "P 1"
_space_group_IT_number       1

loop_
  _space_group_symop_operation_xyz
  'x, y, z'

loop_
  _atom_site_type_symbol
  _atom_site_label
  _atom_site_symmetry_multiplicity
  _atom_site_fract_x
  _atom_site_fract_y
  _atom_site_fract_z
  _atom_site_occupancy
  N   N1        1.0  0.9074051327132446  0.5697564827713375  0.416137874628167  1.0000
  C   C1        1.0  0.8355304355258089  0.5466142523761348  0.3598760363360907  1.0000
  C   C2        1.0  0.7461225437728819  0.5178286991758045  0.28989354192621236  1.0000
  C   C3        1.0  0.6579255220742988  0.5458916928888287  0.3581176719013932  1.0000
  C   C4        1.0  0.5708922191631656  0.5178299217418818  0.28989296740442927  1.0000
  C   C5        1.0  0.572238518793653  0.4616975514741619  0.15342319503455595  1.0000
  C   C6        1.0  0.660250741691218  0.43374241842543837  0.08546167735674115  1.0000
  C   C7        1.0  0.7471038863747426  0.4616952086091788  0.1534243642375912  1.0000
  C   C8        1.0  0.48029059356870646  0.546615176158503  0.3598755419219395  1.0000
  N   N2        1.0  0.4074562574227314  0.5697568041977223  0.4161376598671076  1.0000
  H   H1        1.0  0.657024651393642  0.5893403299171575  0.4637485485732511  1.0000
  H   H2        1.0  0.5054010475484961  0.4396109168675353  0.09972334428748166  1.0000
  H   H3        1.0  0.6611498490031367  0.39038252295699843  0.9800447240277994  1.0000
  H   H4        1.0  0.8148572809776173  0.43960647889023635  0.09972550453213369  1.0000
  C   C9        1.0  0.16023721312816686  0.14635879959766163  0.41446962068529847  1.0000
  C   C10       1.0  0.13449448410710518  0.22888528181328271  0.28736705045299576  1.0000
  C   C11       1.0  0.10086411359475789  0.16222881710989268  0.16699729641002747  1.0000
  C   C12       1.0  0.09241943717340817  0.0121355762091051  0.17231249780324331  1.0000
  C   C13       1.0  0.1190733716979877  0.9283865444667143  0.29651786559152504  1.0000
  C   C14       1.0  0.15463341322182544  0.993143507378939  0.4178184002920653  1.0000
  C   C15       1.0  0.07384663338813491  0.24832924539372644  0.03836280913378132  1.0000
  N   N3        1.0  0.05213208943344627  0.3175382528716484  0.9349736307910593  1.0000
  H   H5        1.0  0.17687960593184227  0.22484665381478572  0.7683212461723457  1.0000
  H   H6        1.0  0.1384599940401987  0.34582272393940783  0.28308974831336164  1.0000
  H   H7        1.0  0.06605825295596013  0.9595339977556967  0.07980078219737319  1.0000
  H   H8        1.0  0.11400740327980441  0.8119182934586641  0.2963910020378049  1.0000
  H   H9        1.0  0.16994057795397932  0.6955905703986498  0.6549090529671102  1.0000
  C   C16       1.0  0.15990749999999698  0.5675776514420459  0.9928155128272116  1.0000
  C   C17       1.0  0.20916241229993693  0.677485968389157  0.05819052051459895  1.0000
  C   C18       1.0  0.24985656199919282  0.7935652301981326  0.9749109691120276  1.0000
  C   C19       1.0  0.24273435605921873  0.7987525245337668  0.8242925992659118  1.0000
  C   C20       1.0  0.19555920052388354  0.6894897432629905  0.7574675397707109  1.0000
  C   C21       1.0  0.15496311695820061  0.5719246159002427  0.8394724919419914  1.0000
  C   C22       1.0  0.3035346551318243  0.909185276246743  0.04656808087830311  1.0000
  C   C23       1.0  0.4097914508857663  0.8680431691985241  0.06424995035946647  1.0000
  H   H10       1.0  0.21416899217727936  0.6748129076194949  0.17490497346486666  1.0000
  H   H11       1.0  0.2746803772819003  0.8868750926197978  0.7582548473511128  1.0000
  H   H12       1.0  0.042137390757618576  0.4057552889925929  0.5709810037917779  1.0000
  H   H13       1.0  0.29755772067442177  0.013856035459523845  0.9811417087768253  1.0000
  H   H14       1.0  0.27133402413068364  0.9255144422125866  0.15450916422842356  1.0000
  H   H15       1.0  0.4173391724374873  0.7654750225475517  0.13259251351000834  1.0000
  H   H16       1.0  0.4438349538079851  0.8547735683398545  0.9570226474272117  1.0000
  H   H17       1.0  0.4480214587483837  0.9545931730484631  0.11715881671242225  1.0000
  Zn  Zn1       1.0  0.05170906544738463  0.5697527688417967  0.416146126664783  1.0000
  Zn  Zn2       1.0  0.26315232583866655  0.5697488173940748  0.4161411849310215  1.0000
  C   C24       1.0  0.1559335721740469  0.5653591125768835  0.6794134561423966  1.0000
  C   C25       1.0  0.15893011520051248  0.5741442935468379  0.15287400408452112  1.0000
  C   C26       1.0  0.15572122777294206  0.833053658945939  0.4114408116334818  1.0000
  C   C27       1.0  0.15914239846560976  0.3064480153171605  0.4208467186011662  1.0000
  O   O1        1.0  0.23884375293248805  0.5763403289328748  0.2065891956653576  1.0000
  O   O2        1.0  0.23650048623654363  0.563158988309487  0.6256940946206322  1.0000
  O   O3        1.0  0.23632792499811361  0.7793257276783794  0.40930429418274583  1.0000
  O   O4        1.0  0.239016242582623  0.36017359932443127  0.4229788880575449  1.0000
  O   O5        1.0  0.07584507654825522  0.7793279869143193  0.4093084235323696  1.0000
  O   O6        1.0  0.07601762676751878  0.5631629794089277  0.6256981539566362  1.0000
  O   O7        1.0  0.07836090398177253  0.5763442608901874  0.20659152161113603  1.0000
  O   O8        1.0  0.07853339306502893  0.36017752152417426  0.42298132204313316  1.0000
