data_image0
_chemical_formula_structural       NC5NC4H6C7NH5C9H10Zn2C4O8
_chemical_formula_sum              "N3 C29 H21 Zn2 O8"
_cell_length_a       13.854160002989762
_cell_length_b       9.275154477615127
_cell_length_c       10.297187173949778
_cell_angle_alpha    85.79368962705624
_cell_angle_beta     89.97408711938004
_cell_angle_gamma    89.43370676253429

_space_group_name_H-M_alt    "P 1"
_space_group_IT_number       1

loop_
  _space_group_symop_operation_xyz
  'x, y, z'

loop_
  _atom_site_type_symbol
  _atom_site_label
  _atom_site_symmetry_multiplicity
  _atom_site_fract_x
  _atom_site_fract_y
  _atom_site_fract_z
  _atom_site_occupancy
  N   N1        1.0  0.898949166330713  0.5776927358131456  0.5728119574145996  1.0000
  C   C1        1.0  0.8264676118257759  0.6028900134983828  0.5196960619532327  1.0000
  C   C2        1.0  0.7362995359525198  0.6342361102875664  0.4536178532021924  1.0000
  C   C3        1.0  0.648901604633636  0.6047702974332279  0.5181414295123312  1.0000
  C   C4        1.0  0.5611571234935016  0.6342361246099415  0.45361783237287223  1.0000
  C   C5        1.0  0.47135947140824797  0.6028898662338784  0.519696143985852  1.0000
  N   N2        1.0  0.3991755961530165  0.5776926723350757  0.5728119571094066  1.0000
  C   C6        1.0  0.5608391903282243  0.6937739763476845  0.324589943731058  1.0000
  C   C7        1.0  0.6481901948677019  0.7253892621194078  0.2599808494662248  1.0000
  C   C8        1.0  0.6478415079093393  0.7851667943784029  0.12060120976368881  1.0000
  C   C9        1.0  0.7359162794000792  0.6937739750118705  0.3245898623775742  1.0000
  H   H1        1.0  0.6491737196668506  0.5585778958861256  0.6180062482981454  1.0000
  H   H2        1.0  0.4928389811944819  0.7155472600000375  0.2745226265418652  1.0000
  H   H3        1.0  0.7122520423254299  0.8533042937871003  0.09941111177462346  1.0000
  H   H4        1.0  0.582543564634572  0.8533042956712444  0.09941117042858381  1.0000
  H   H5        1.0  0.6484621998440013  0.6946607177851603  0.055800745708242776  1.0000
  H   H6        1.0  0.8036619395582203  0.7155473724398793  0.2745225499674109  1.0000
  C   C10       1.0  0.15186064677220745  0.1543031986567083  0.5713088298632952  1.0000
  C   C11       1.0  0.1254047842243977  0.23746663671329782  0.4567790799645925  1.0000
  C   C12       1.0  0.09109581250255183  0.17141339515952073  0.34831614103364594  1.0000
  C   C13       1.0  0.08267761996481582  0.021293525963837594  0.3531055656985982  1.0000
  C   C14       1.0  0.11002895788990583  0.9369220560171477  0.46502470125779216  1.0000
  C   C15       1.0  0.14627343338804688  0.0010711298362724535  0.5743263499600286  1.0000
  C   C16       1.0  0.06335626550941331  0.2581584570773212  0.2324060089257047  1.0000
  N   N3        1.0  0.04106136502084312  0.32788558487503394  0.13924395282430035  1.0000
  H   H7        1.0  0.17046910101229468  0.23101782403805446  0.8901578916615669  1.0000
  H   H8        1.0  0.1293479895365019  0.3544255098222302  0.4529248849710572  1.0000
  H   H9        1.0  0.05579470784726802  0.969155562820319  0.2697449850811926  1.0000
  H   H10       1.0  0.10496051058503597  0.8204544450314197  0.4649103847930014  1.0000
  H   H11       1.0  0.16289937237101615  0.7023300755887015  0.7879642912068605  1.0000
  C   C17       1.0  0.14919498692468044  0.5776350360879376  0.1913642311916952  1.0000
  C   C18       1.0  0.05111619440266857  0.6172363287880829  0.1880234356049999  1.0000
  C   C19       1.0  0.0008675397996711329  0.6375249964646781  0.06969544292520746  1.0000
  C   C20       1.0  0.050735996455345295  0.617389289790016  0.9528012555798853  1.0000
  C   C21       1.0  0.14893909732573474  0.5777392971106201  0.9542709124038702  1.0000
  C   C22       1.0  0.19752729938475827  0.5581196788577183  0.07394229250159289  1.0000
  C   C23       1.0  0.8947882587942356  0.680356329896953  0.07551430266698711  1.0000
  C   C24       1.0  0.8275958170316375  0.6223653420447299  0.9750358013025946  1.0000
  C   C25       1.0  0.8552485325150174  0.7814266170130433  0.9645031220166644  1.0000
  H   H12       1.0  0.1869904032069798  0.5623884721905326  0.5201890039288699  1.0000
  H   H13       1.0  0.013252471227142902  0.6325249617313955  0.2781560647122969  1.0000
  H   H14       1.0  0.013922968808143914  0.63224998291407  0.8602471096571915  1.0000
  H   H15       1.0  0.27319696325224124  0.5275657324490062  0.07579243667591751  1.0000
  H   H16       1.0  0.3344135635122818  0.5028331764585192  0.7498314659953137  1.0000
  H   H17       1.0  0.8606927822990449  0.6941242638111615  0.17164064530882883  1.0000
  H   H18       1.0  0.8607134690629963  0.5572899031186294  0.9002789229990573  1.0000
  H   H19       1.0  0.7527059485922328  0.6028568425219016  0.010084856425096156  1.0000
  H   H20       1.0  0.9051641717225544  0.8129720247598197  0.8833491447321945  1.0000
  H   H21       1.0  0.7965195949093778  0.854882863603413  0.9933938743056004  1.0000
  Zn  Zn1       1.0  0.04330373699610267  0.5776888584441521  0.5728194529554548  1.0000
  Zn  Zn2       1.0  0.25482110093269417  0.5776847528707523  0.5728150876536411  1.0000
  C   C26       1.0  0.14902320249238699  0.5719758336030614  0.8100447429476153  1.0000
  C   C27       1.0  0.14910393315328396  0.5833995968529333  0.3355899315911366  1.0000
  C   C28       1.0  0.14732629948629894  0.8410132397378908  0.56857962503238  1.0000
  C   C29       1.0  0.150800775389752  0.3143604585067121  0.5770551125889982  1.0000
  O   O1        1.0  0.22934315346106346  0.5853263880489585  0.3839917151393115  1.0000
  O   O2        1.0  0.22932077453602828  0.5700448386489299  0.7616392684316278  1.0000
  O   O3        1.0  0.22794942137083773  0.7872959467507272  0.5666544826738731  1.0000
  O   O4        1.0  0.23071443441432102  0.3680752902491071  0.5789764035390859  1.0000
  O   O5        1.0  0.06741033133397223  0.7872983210687674  0.5666581370646726  1.0000
  O   O6        1.0  0.06878167308827976  0.5700489451813309  0.7616428597344641  1.0000
  O   O7        1.0  0.06880405293287548  0.5853304441255556  0.3839937445167707  1.0000
  O   O8        1.0  0.07017533391756259  0.3680793360267276  0.5789785302691884  1.0000
