data_image0
_chemical_formula_structural       NC10NC3NCH9C6NCOC6H11C7OC3OC4H12Zn2C4O8
_chemical_formula_sum              "N4 C45 H32 O11 Zn2"
_cell_length_a       19.437513618241372
_cell_length_b       10.29965916528486
_cell_length_c       10.299374482448636
_cell_angle_alpha    85.5657401976444
_cell_angle_beta     90.32903884356655
_cell_angle_gamma    89.53922106887035

_space_group_name_H-M_alt    "P 1"
_space_group_IT_number       1

loop_
  _space_group_symop_operation_xyz
  'x, y, z'

loop_
  _atom_site_type_symbol
  _atom_site_label
  _atom_site_symmetry_multiplicity
  _atom_site_fract_x
  _atom_site_fract_y
  _atom_site_fract_z
  _atom_site_occupancy
  N   N1        1.0  0.6483065405106103  0.4107766017323336  0.5761569803444435  1.0000
  C   C1        1.0  0.5893762975260954  0.4277869597689563  0.5731878262386689  1.0000
  C   C2        1.0  0.5159396865168849  0.44903983756063376  0.5695023842498266  1.0000
  C   C3        1.0  0.4741625940075344  0.34785660260055135  0.5578012993657415  1.0000
  C   C4        1.0  0.3982751522483942  0.35792316919551515  0.5505838235121578  1.0000
  C   C5        1.0  0.35870551947467244  0.43874962041379834  0.6163616522187705  1.0000
  C   C6        1.0  0.2825229767677612  0.43014414356943115  0.6079137400671013  1.0000
  C   C7        1.0  0.2493671828280891  0.3088020688746569  0.6125076288364755  1.0000
  C   C8        1.0  0.1776323730638237  0.30243265011408016  0.6053367194764983  1.0000
  C   C9        1.0  0.1380826107381394  0.41693252836358013  0.5939339720150172  1.0000
  C   C10       1.0  0.0642332943575581  0.41022499091250353  0.5865948271851393  1.0000
  N   N2        1.0  0.004863542054747002  0.404832720710872  0.5806946134045665  1.0000
  C   C11       1.0  0.1705216676313497  0.5379638179826527  0.5900852576634463  1.0000
  C   C12       1.0  0.24224091534812406  0.5445872009286703  0.5973182944841318  1.0000
  C   C13       1.0  0.3873933207414014  0.5310042112948372  0.7063224145000806  1.0000
  N   N3        1.0  0.44439117795680333  0.5942208612991622  0.6859433894502804  1.0000
  C   C14       1.0  0.4882437495880408  0.5849946813620284  0.5728282026092175  1.0000
  H   H1        1.0  0.49653245257184403  0.2528072780839947  0.5456407886460595  1.0000
  H   H2        1.0  0.3735564579970275  0.2884311876710002  0.4922352682808653  1.0000
  H   H3        1.0  0.2788014800031946  0.21888987588284836  0.6234920590146718  1.0000
  H   H4        1.0  0.1530229052605512  0.20820838180722867  0.6091854666923162  1.0000
  H   H5        1.0  0.1404017081064486  0.6272204138846287  0.5814127856891005  1.0000
  H   H6        1.0  0.2663689308833161  0.6392242596397357  0.5934542558662359  1.0000
  H   H7        1.0  0.35738350769403965  0.5513631400724983  0.790700268199756  1.0000
  H   H8        1.0  0.5310072031062704  0.6553029688772303  0.5786205691348631  1.0000
  H   H9        1.0  0.4585919412467499  0.6131303921243827  0.48219105823978414  1.0000
  C   C15       1.0  0.8265278410239724  0.026444927910062255  0.5783096065190949  1.0000
  C   C16       1.0  0.8270184238763819  0.03574998922424233  0.44149698239261914  1.0000
  C   C17       1.0  0.8282800701930725  0.9235846441825707  0.37267599701725396  1.0000
  C   C18       1.0  0.827148002463637  0.8005574663389388  0.4417950219839224  1.0000
  C   C19       1.0  0.8266488208133106  0.7891542027723302  0.5785533119365105  1.0000
  C   C20       1.0  0.826583654780871  0.9027018933901744  0.6460417666328708  1.0000
  N   N4        1.0  0.82772472641568  0.9366997600092957  0.2325998555614146  1.0000
  C   C21       1.0  0.8599880639034112  0.8450518759136659  0.15328266491059828  1.0000
  O   O1        1.0  0.9074418345653429  0.771431057865332  0.2008656054637481  1.0000
  C   C22       1.0  0.8400135415793257  0.8392209409207795  0.014659333715088207  1.0000
  C   C23       1.0  0.7764032144711379  0.8901495997923508  0.9675030693897134  1.0000
  C   C24       1.0  0.7579892411840207  0.8834740556297037  0.8367433708205887  1.0000
  C   C25       1.0  0.8025449562669313  0.8256645215559874  0.7518520034036076  1.0000
  C   C26       1.0  0.8655498692583184  0.7739587593991658  0.7976243151606658  1.0000
  C   C27       1.0  0.8842265094338964  0.7802736169907714  0.9282828797700401  1.0000
  H   H10       1.0  0.8249457705767947  0.21616739664382004  0.8363737146469616  1.0000
  H   H11       1.0  0.8269483062928258  0.13037318817805565  0.38767198985152995  1.0000
  H   H12       1.0  0.825448282920729  0.7138076884022173  0.38896697214070763  1.0000
  H   H13       1.0  0.8262146703370415  0.8946631998102595  0.751508978090186  1.0000
  H   H14       1.0  0.8255420179346744  0.45734608800423265  0.6310017886905666  1.0000
  H   H15       1.0  0.8081019185157156  0.023170686298611853  0.1864087647884185  1.0000
  H   H16       1.0  0.7403397006088577  0.9334323504118908  0.031527778576166954  1.0000
  H   H17       1.0  0.7089633048540699  0.9227328861997922  0.8013329999085067  1.0000
  H   H18       1.0  0.7881539911711964  0.8205710185889291  0.650709313035776  1.0000
  H   H19       1.0  0.8999858417910831  0.7289077838571657  0.7318151382624967  1.0000
  H   H20       1.0  0.9334251047990343  0.7398263135726468  0.9614766948189352  1.0000
  C   C28       1.0  0.8266520848870444  0.4078860083297271  0.19704977376983804  1.0000
  C   C29       1.0  0.8985182635322889  0.4213519618786281  0.1955976503472001  1.0000
  C   C30       1.0  0.934678900552481  0.429616614989435  0.07757681592579901  1.0000
  C   C31       1.0  0.8983538020244064  0.42129083418671387  0.9603566863221648  1.0000
  C   C32       1.0  0.8265245786845531  0.4077131448257256  0.9598131229274042  1.0000
  C   C33       1.0  0.7910699262061504  0.4014306412489699  0.07867104986854856  1.0000
  C   C34       1.0  0.010645151346801775  0.4424759045346285  0.0760090613475839  1.0000
  O   O2        1.0  0.044390540375408356  0.38837255718419383  0.9905743845329535  1.0000
  C   C35       1.0  0.04832604994369327  0.5167274052742394  0.1712802014755972  1.0000
  C   C36       1.0  0.11544415978086732  0.478891529001265  0.21028699296531528  1.0000
  C   C37       1.0  0.1522042187942325  0.5485411584506708  0.29898046382761967  1.0000
  O   O3        1.0  0.21876272836972954  0.5055403743535398  0.33510744603698717  1.0000
  C   C38       1.0  0.2618787670479017  0.5666908756615185  0.4240681279721941  1.0000
  C   C39       1.0  0.12146599308031415  0.6584376536493772  0.3485386673706621  1.0000
  C   C40       1.0  0.05515137051892881  0.6975933175305511  0.3090319704012403  1.0000
  C   C41       1.0  0.01878836758476821  0.6277040651980412  0.22058451117551156  1.0000
  H   H21       1.0  0.6911490587698076  0.38048466028398176  0.407266897118078  1.0000
  H   H22       1.0  0.9265398676845633  0.42397674489200265  0.28654652515371004  1.0000
  H   H23       1.0  0.9262171354072277  0.42668178587072925  0.869319531855703  1.0000
  H   H24       1.0  0.7356663529652614  0.39104852349537644  0.07898681522160267  1.0000
  H   H25       1.0  0.7989957025334904  0.40141265435647266  0.6322318550421864  1.0000
  H   H26       1.0  0.13929054311421418  0.3941838714206242  0.1726851893823258  1.0000
  H   H27       1.0  0.31139392542288147  0.5125094805816113  0.4346400186174802  1.0000
  H   H28       1.0  0.23703475193611467  0.5653041390715778  0.5209860874300876  1.0000
  H   H29       1.0  0.2724722768445229  0.6685176460816624  0.38657379372825607  1.0000
  H   H30       1.0  0.1484355308559675  0.7144244741282062  0.4170907627716558  1.0000
  H   H31       1.0  0.03195121320096828  0.7827792406196343  0.3466710843896339  1.0000
  H   H32       1.0  0.9679176686900874  0.6612781130699283  0.18972333512206707  1.0000
  Zn  Zn1       1.0  0.7512011928010743  0.4090578352316596  0.5774739513183704  1.0000
  Zn  Zn2       1.0  0.9019688924980062  0.40654081550394383  0.5793883092513112  1.0000
  C   C42       1.0  0.8265463309939697  0.4025723023271249  0.8156328806376758  1.0000
  C   C43       1.0  0.8266254009223295  0.41302795947357374  0.34122952883107693  1.0000
  C   C44       1.0  0.8266232856937781  0.6449871744077269  0.5733318750519381  1.0000
  C   C45       1.0  0.8265483945169599  0.1706115279715055  0.583530602505937  1.0000
  O   O4        1.0  0.8838320009437739  0.4137927837769256  0.39034405877626704  1.0000
  O   O5        1.0  0.8837689264224715  0.3998961386763387  0.7679709298967263  1.0000
  O   O6        1.0  0.8838302967969999  0.5956492262063857  0.5723111442043736  1.0000
  O   O7        1.0  0.8837705791401932  0.21803970641783035  0.5860037464404164  1.0000
  O   O8        1.0  0.7693994547092725  0.5975589451781242  0.5708585134691582  1.0000
  O   O9        1.0  0.76933808459069  0.40180741792989405  0.766518230412282  1.0000
  O   O10       1.0  0.7694011594115708  0.41570401812869523  0.38888979782492306  1.0000
  O   O11       1.0  0.7693397375874272  0.2199509314589989  0.584549582857169  1.0000
