data_image0
_chemical_formula_structural       NC9NC4H8C7F3H5C7NC2NH8Zn2C4O8
_chemical_formula_sum              "N4 C33 H21 F3 Zn2 O8"
_cell_length_a       16.32274767691083
_cell_length_b       9.272718291674593
_cell_length_c       9.27399911348925
_cell_angle_alpha    85.49165257692455
_cell_angle_beta     89.127461349941
_cell_angle_gamma    89.10298441660798

_space_group_name_H-M_alt    "P 1"
_space_group_IT_number       1

loop_
  _space_group_symop_operation_xyz
  'x, y, z'

loop_
  _atom_site_type_symbol
  _atom_site_label
  _atom_site_symmetry_multiplicity
  _atom_site_fract_x
  _atom_site_fract_y
  _atom_site_fract_z
  _atom_site_occupancy
  N   N1        1.0  0.770130133105006  0.5814237819015737  0.4080691305174513  1.0000
  C   C1        1.0  0.7182258552645577  0.5292804083142286  0.3473283056726432  1.0000
  C   C2        1.0  0.6537078572724561  0.46451793247104445  0.2718877155979013  1.0000
  C   C3        1.0  0.6659932836581214  0.3759344642143718  0.16869364323677716  1.0000
  C   C4        1.0  0.5869852060336348  0.3327052276985033  0.1183383400860485  1.0000
  C   C5        1.0  0.5275289128909382  0.3959701466879093  0.19204049597830153  1.0000
  C   C6        1.0  0.437729708694121  0.37924976333154775  0.17256560002607  1.0000
  C   C7        1.0  0.3815239142543848  0.452989183304039  0.25846200571339883  1.0000
  C   C8        1.0  0.2969335824854469  0.4386991427149911  0.2418175274557428  1.0000
  C   C9        1.0  0.2402971168201061  0.5147054554523227  0.33035369356541633  1.0000
  N   N2        1.0  0.19478044470017752  0.5758020274254846  0.40152177861740235  1.0000
  C   C10       1.0  0.26749699089221973  0.3505504168245431  0.13913841969634277  1.0000
  C   C11       1.0  0.3223800578708431  0.27690866682149795  0.05335616937285592  1.0000
  C   C12       1.0  0.4068147774719733  0.2908138012722816  0.06955214826961931  1.0000
  C   C13       1.0  0.5645199787553011  0.4882174402877669  0.29949975088736225  1.0000
  H   H1        1.0  0.7251857348982512  0.34148855231868946  0.12856382541183597  1.0000
  H   H2        1.0  0.579288802440228  0.26030607127213634  0.03399774805463739  1.0000
  H   H3        1.0  0.40306712359706476  0.5218041231635945  0.33862047778297  1.0000
  H   H4        1.0  0.2022026063201551  0.33877838155598444  0.12542707160593425  1.0000
  H   H5        1.0  0.29943564191797917  0.20871740792615356  0.9739244752619948  1.0000
  H   H6        1.0  0.44708332012709145  0.2319051377827606  0.0009323080717511584  1.0000
  H   H7        1.0  0.5475354157665395  0.4486703945907767  0.4120130361560699  1.0000
  H   H8        1.0  0.5473317012806563  0.6039573576301906  0.2757463453322788  1.0000
  C   C14       1.0  0.9842541894016028  0.1552339993967842  0.4015796334479704  1.0000
  C   C15       1.0  0.9346365950288286  0.23806738195555546  0.3026062694608309  1.0000
  C   C16       1.0  0.8791836174941255  0.17203507197613657  0.21511035714633484  1.0000
  C   C17       1.0  0.8755295542658925  0.020721691512170844  0.22360428105040642  1.0000
  C   C18       1.0  0.9252187132671812  0.9369553458694309  0.31945356161563043  1.0000
  C   C19       1.0  0.9806642317454334  0.001980453322323102  0.40802360428815065  1.0000
  C   C20       1.0  0.8281059291874955  0.2625646392845762  0.10697793065027517  1.0000
  F   F1        1.0  0.8068780513774283  0.3938105930106764  0.15975645387568327  1.0000
  F   F2        1.0  0.7566798048473651  0.19237096151158872  0.07792655719510777  1.0000
  F   F3        1.0  0.8727255236352586  0.2878510807725043  0.9798700137352361  1.0000
  H   H9        1.0  0.08051670774225061  0.22995500544914727  0.7115610492521105  1.0000
  H   H10       1.0  0.9379294352383533  0.3550508000981475  0.29583833825326455  1.0000
  H   H11       1.0  0.8348024610943159  0.9667693775331134  0.15483093141452442  1.0000
  H   H12       1.0  0.9218680323156805  0.8202137961910213  0.3214469968620812  1.0000
  H   H13       1.0  0.15599177717831325  0.8822410814820021  0.5790245274195283  1.0000
  C   C21       1.0  0.9838587305144434  0.5822783893175514  0.9809564700685502  1.0000
  C   C22       1.0  0.04847280212041771  0.5123903055589547  0.05792389445357271  1.0000
  C   C23       1.0  0.10770644081072933  0.43230992081221675  0.9877601405453601  1.0000
  C   C24       1.0  0.10392059566223666  0.41935867583570896  0.838424018052223  1.0000
  C   C25       1.0  0.040529400352674605  0.4916651828323937  0.7598974649235903  1.0000
  C   C26       1.0  0.9810597043855604  0.5749360744200562  0.8286466779083685  1.0000
  C   C27       1.0  0.167170211179833  0.33229926713568303  0.7661027025906209  1.0000
  N   N3        1.0  0.23600027391986458  0.28101592180820756  0.8327002137364277  1.0000
  C   C28       1.0  0.27597242360984686  0.2083518471177511  0.732216639414927  1.0000
  C   C29       1.0  0.2311839560349609  0.2161296527289798  0.607419331219984  1.0000
  N   N4        1.0  0.1627554509646465  0.2940159239949636  0.628888275498019  1.0000
  H   H14       1.0  0.8958646538735382  0.7654112764116132  0.2502633587390839  1.0000
  H   H15       1.0  0.052166383091098334  0.5166315575266425  0.17405046838598026  1.0000
  H   H16       1.0  0.15598417447269863  0.37856134267861385  0.0513427853260533  1.0000
  H   H17       1.0  0.03851907918935526  0.4877909941347867  0.6437940317403621  1.0000
  H   H18       1.0  0.852868161812159  0.6580002564389864  0.5454749546344675  1.0000
  H   H19       1.0  0.3341690583801684  0.1527113826700084  0.7492737864458459  1.0000
  H   H20       1.0  0.24711604590179978  0.16777990906697693  0.5081177900924265  1.0000
  H   H21       1.0  0.11630736034980795  0.3164827160982236  0.5540638969001948  1.0000
  Zn  Zn1       1.0  0.8926750351697843  0.5797975232665669  0.4061880120663268  1.0000
  Zn  Zn2       1.0  0.07223555992451813  0.5774163527505458  0.40341463118634  1.0000
  C   C30       1.0  0.9816113025937012  0.5705803627355888  0.668371430348695  1.0000
  C   C31       1.0  0.9833012451156666  0.5866353051746185  0.14123133812609964  1.0000
  C   C32       1.0  0.9813575955568195  0.8419772284758092  0.40105401049054934  1.0000
  C   C33       1.0  0.9835548979709072  0.3152367074020339  0.40854882269866194  1.0000
  O   O1        1.0  0.051256457947062024  0.587187594282311  0.19396851651770475  1.0000
  O   O2        1.0  0.049938379286604585  0.5682197362572574  0.6135288962792762  1.0000
  O   O3        1.0  0.049732584099681815  0.7873761368067035  0.39766821402542774  1.0000
  O   O4        1.0  0.05146219217575098  0.3680312057963431  0.40982909157631875  1.0000
  O   O5        1.0  0.9134483416433749  0.7891826710349821  0.3997735526151871  1.0000
  O   O6        1.0  0.913654129736763  0.5700280033321121  0.6156341710934576  1.0000
  O   O7        1.0  0.9149722143946099  0.5889958261457489  0.19607205564190155  1.0000
  O   O8        1.0  0.9151779483063562  0.36983942641051537  0.4119327388345895  1.0000
