data_image0
_chemical_formula_structural       NC11NC3H8C12SCH12C11NCOCH12Zn2C4O8
_chemical_formula_sum              "N3 C44 H32 S1 O9 Zn2"
_cell_length_a       17.807433833752565
_cell_length_b       10.299776766347529
_cell_length_c       10.299158637457994
_cell_angle_alpha    85.5824420436923
_cell_angle_beta     88.50589662061446
_cell_angle_gamma    90.66624570658541

_space_group_name_H-M_alt    "P 1"
_space_group_IT_number       1

loop_
  _space_group_symop_operation_xyz
  'x, y, z'

loop_
  _atom_site_type_symbol
  _atom_site_label
  _atom_site_symmetry_multiplicity
  _atom_site_fract_x
  _atom_site_fract_y
  _atom_site_fract_z
  _atom_site_occupancy
  N   N1        1.0  0.7074146706307477  0.43793198370337305  0.5346950196892533  1.0000
  C   C1        1.0  0.6565894359190333  0.40322947354809585  0.6012567916985143  1.0000
  C   C2        1.0  0.5933577193391387  0.3600624103233445  0.6840511417996014  1.0000
  C   C3        1.0  0.6050741328535457  0.296556833583848  0.8067685157253355  1.0000
  C   C4        1.0  0.5437499164893812  0.2550687061757406  0.8872789767403487  1.0000
  C   C5        1.0  0.4705548796333757  0.276773119713108  0.8457128547897919  1.0000
  C   C6        1.0  0.45786172849868767  0.34043308192378374  0.7225352842721966  1.0000
  C   C7        1.0  0.38009873558512053  0.36346660521701923  0.6781885309211564  1.0000
  C   C8        1.0  0.3613420529861994  0.34654866070330886  0.5486058169434382  1.0000
  C   C9        1.0  0.2881170888757315  0.3682143312725657  0.5069956213085207  1.0000
  C   C10       1.0  0.2327058249243273  0.4071161771689493  0.5941478682153627  1.0000
  C   C11       1.0  0.1573442669393407  0.4294398181669509  0.5511763880904053  1.0000
  N   N2        1.0  0.09675894749593571  0.4473863670427653  0.5166304455243529  1.0000
  C   C12       1.0  0.2507710023898762  0.4242445064475444  0.7231994500422707  1.0000
  C   C13       1.0  0.3239431644108274  0.40254399718098893  0.7650650768120104  1.0000
  C   C14       1.0  0.5200432545839475  0.38191665030823513  0.6420412391063773  1.0000
  H   H1        1.0  0.6615370333872639  0.2791545088247791  0.8401337626578449  1.0000
  H   H2        1.0  0.5529398084118977  0.20565093520414598  0.9820142847905103  1.0000
  H   H3        1.0  0.4239103895173492  0.242240224984471  0.9091513100916355  1.0000
  H   H4        1.0  0.4030388772338487  0.3148830076721325  0.4798871210787293  1.0000
  H   H5        1.0  0.27469652879204515  0.35429834022923345  0.4069592493265919  1.0000
  H   H6        1.0  0.2083577159455725  0.45468697260901325  0.7914033203542747  1.0000
  H   H7        1.0  0.3368350389092792  0.41800530393162955  0.864918755918474  1.0000
  H   H8        1.0  0.5115515444351239  0.4326968318169444  0.547540306333259  1.0000
  C   C15       1.0  0.9021612349985981  0.06129584302240864  0.5256576612102928  1.0000
  C   C16       1.0  0.9066504378528853  0.04989169587427565  0.6619639570429086  1.0000
  C   C17       1.0  0.9088528207732086  0.9269727482218614  0.7310401567232426  1.0000
  C   C18       1.0  0.9065067823952259  0.8146004365373707  0.6619858127110181  1.0000
  C   C19       1.0  0.9020195861295367  0.8240126846336414  0.5256786743917137  1.0000
  C   C20       1.0  0.8998715079955234  0.9478001079659291  0.4582776275181184  1.0000
  C   C21       1.0  0.9135936116979315  0.9159721523895443  0.8752372222848006  1.0000
  C   C22       1.0  0.870583512207074  0.8214936819902652  0.9512758491472695  1.0000
  C   C23       1.0  0.8750677146937169  0.8113758365318948  0.08697778488168506  1.0000
  C   C24       1.0  0.9223743716394232  0.8954539798859762  0.14845648145285184  1.0000
  C   C25       1.0  0.9655634986577825  0.9893634997095409  0.07378261991552626  1.0000
  C   C26       1.0  0.9611894586565869  0.9998339052795836  0.9380651578553951  1.0000
  S   S1        1.0  0.928211065657704  0.8820128661908435  0.32257689121769506  1.0000
  C   C27       1.0  0.8527149987689969  0.9962483839236617  0.3456085373492206  1.0000
  H   H9        1.0  0.9004802009379682  0.39309554042675815  0.47371740371757737  1.0000
  H   H10       1.0  0.9074085463522954  0.136760041795305  0.7148873814612509  1.0000
  H   H11       1.0  0.9092237795548329  0.7196714723278227  0.7146222121244914  1.0000
  H   H12       1.0  0.8964087925241511  0.9558294467770342  0.35312309217352605  1.0000
  H   H13       1.0  0.9002722527466243  0.500144499610316  0.47374615881288507  1.0000
  H   H14       1.0  0.8327737654727081  0.7565946995897437  0.9059157627563557  1.0000
  H   H15       1.0  0.8414690314790916  0.738517533471069  0.144258459788408  1.0000
  H   H16       1.0  0.0025733833988186307  0.054299500842860386  0.12076876048700426  1.0000
  H   H17       1.0  0.9957360668364413  0.07234677929349154  0.8821535513928107  1.0000
  H   H18       1.0  0.8677633748456622  0.09292609401148509  0.2960324250843954  1.0000
  H   H19       1.0  0.843990309673198  0.00675342309997551  0.4512931501492047  1.0000
  H   H20       1.0  0.7998587147647933  0.9594173739284725  0.30593863877031025  1.0000
  C   C28       1.0  0.9021608579516397  0.44251801143042807  0.14429179323015573  1.0000
  C   C29       1.0  0.9038809896090451  0.5792616851884567  0.1329010233987236  1.0000
  C   C30       1.0  0.904694130694667  0.6487310432020289  0.009970852800504248  1.0000
  C   C31       1.0  0.9037371068446685  0.5796180574935479  0.8975962274261448  1.0000
  C   C32       1.0  0.9020199398712158  0.44279054767005854  0.9070445519656795  1.0000
  C   C33       1.0  0.9012456735008473  0.3750819251004204  0.0307795980971921  1.0000
  C   C34       1.0  0.9065147192202816  0.7933890921649865  0.99889431285209  1.0000
  C   C35       1.0  0.9526127635547911  0.8623417128640494  0.07932414085199757  1.0000
  C   C36       1.0  0.9104640213354283  0.06839213654416863  0.9766565512307281  1.0000
  C   C37       1.0  0.8634712386094943  0.9997781735243785  0.8980513230943039  1.0000
  C   C38       1.0  0.861782684417616  0.863675829511898  0.9083436555520099  1.0000
  N   N3        1.0  0.910151111029609  0.2084291228752413  0.9654383384336269  1.0000
  C   C39       1.0  0.9745025456188352  0.28897886319383437  0.9856856482022289  1.0000
  O   O1        1.0  0.0392848581844767  0.2411397827293271  0.9911951065924547  1.0000
  C   C40       1.0  0.9656633887796492  0.43257794632039426  0.9907010416537455  1.0000
  H   H21       1.0  0.9035427694486142  0.6320701955757135  0.21986856934486565  1.0000
  H   H22       1.0  0.9053559775918124  0.6326704448275586  0.8025505093617468  1.0000
  H   H23       1.0  0.8999214675231978  0.26960839718021967  0.038850548532454406  1.0000
  H   H24       1.0  0.8992349618818165  0.1845314784595166  0.7175643924471  1.0000
  H   H25       1.0  0.9877839287682887  0.8109692434160404  0.14988383755941137  1.0000
  H   H26       1.0  0.9889898615328782  0.048653391535527384  0.13419380758700927  1.0000
  H   H27       1.0  0.8283213016075688  0.05202615709513347  0.8280599485602266  1.0000
  H   H28       1.0  0.824663757184969  0.8133886079345478  0.8467176748844746  1.0000
  H   H29       1.0  0.8614430157311586  0.254700879720358  0.9327524384475998  1.0000
  H   H30       1.0  0.9128335318907175  0.45300955373941715  0.044570430502604896  1.0000
  H   H31       1.0  0.9636348722972782  0.47919556637647176  0.890077246675984  1.0000
  H   H32       1.0  0.013585088265091862  0.47450885651057234  0.041133123118220816  1.0000
  Zn  Zn1       1.0  0.8197710176961415  0.44065684259456184  0.529489458370956  1.0000
  Zn  Zn2       1.0  0.9844025856866888  0.44465089249500095  0.5218465927707061  1.0000
  C   C41       1.0  0.9020458591381441  0.43756536781448635  0.7628678583103674  1.0000
  C   C42       1.0  0.9021295416883727  0.44774404953147323  0.28846823688547985  1.0000
  C   C43       1.0  0.9020434299117822  0.679841028745242  0.5204995919688788  1.0000
  C   C44       1.0  0.9021319150145153  0.20546682698248486  0.530836575031983  1.0000
  O   O2        1.0  0.9645958547845163  0.4510080111209635  0.3339547406241834  1.0000
  O   O3        1.0  0.9645310970826961  0.43733181784146286  0.7115802225446444  1.0000
  O   O4        1.0  0.9645282929847525  0.6329724580867886  0.5158661718150813  1.0000
  O   O5        1.0  0.9645986027211225  0.2553673787680372  0.5296686965854251  1.0000
  O   O6        1.0  0.8395749444810345  0.6299403549599636  0.5216673571575413  1.0000
  O   O7        1.0  0.8395777482985245  0.43430127497130866  0.7173813386833934  1.0000
  O   O8        1.0  0.8396425063471931  0.4479774224388503  0.33975429532818224  1.0000
  O   O9        1.0  0.8396452542644635  0.2523367808319627  0.5354683486590499  1.0000
