data_image0
_chemical_formula_structural       NC9NC3NH7C6NO2H5C7OCH10Zn2C4O8
_chemical_formula_sum              "N4 C30 H22 O11 Zn2"
_cell_length_a       16.053384444249904
_cell_length_b       9.273392599741053
_cell_length_c       10.300835455316063
_cell_angle_alpha    85.69422618191317
_cell_angle_beta     89.8165277291342
_cell_angle_gamma    88.5803697124526

_space_group_name_H-M_alt    "P 1"
_space_group_IT_number       1

loop_
  _space_group_symop_operation_xyz
  'x, y, z'

loop_
  _atom_site_type_symbol
  _atom_site_label
  _atom_site_symmetry_multiplicity
  _atom_site_fract_x
  _atom_site_fract_y
  _atom_site_fract_z
  _atom_site_occupancy
  N   N1        1.0  0.7748190284937557  0.5591046331971519  0.5678148934772056  1.0000
  C   C1        1.0  0.7241916405216955  0.5359737647415481  0.4929341783724876  1.0000
  C   C2        1.0  0.661275612416916  0.50723341362478  0.39991406398545054  1.0000
  C   C3        1.0  0.6749541237285792  0.49379292894540855  0.2691762397167061  1.0000
  C   C4        1.0  0.5984910332993368  0.4656516409450646  0.21687598742245034  1.0000
  C   C5        1.0  0.5414236240144246  0.463489550473676  0.3185264735868474  1.0000
  C   C6        1.0  0.4509284249044557  0.43702895711851203  0.30822937053560956  1.0000
  C   C7        1.0  0.3947616713920876  0.48448876858682016  0.40221399957338844  1.0000
  C   C8        1.0  0.309362243153534  0.4593933437696769  0.39235180970600875  1.0000
  C   C9        1.0  0.2524041412486316  0.5087916473294074  0.4887117614747747  1.0000
  N   N2        1.0  0.2066265298330401  0.5485009171244997  0.5661700738563564  1.0000
  C   C10       1.0  0.2794042867784921  0.386713728637579  0.28851845415186594  1.0000
  C   C11       1.0  0.3345617224102705  0.339386814964185  0.1947457199709439  1.0000
  C   C12       1.0  0.4197562309642182  0.3642980888938101  0.2042110308933118  1.0000
  N   N3        1.0  0.5804755462618056  0.4890268237920983  0.4301130541147422  1.0000
  H   H1        1.0  0.7336234605256184  0.5033738171054252  0.21758766629812173  1.0000
  H   H2        1.0  0.5863075856686807  0.45033355730663605  0.11568735974828191  1.0000
  H   H3        1.0  0.4167415767222769  0.5427707271689397  0.48211367704137914  1.0000
  H   H4        1.0  0.2135005058255734  0.3667563381483907  0.2800480894928108  1.0000
  H   H5        1.0  0.311280506637789  0.2829283258262747  0.11461581392236342  1.0000
  H   H6        1.0  0.4611008719008435  0.32491551488066484  0.13089801410440224  1.0000
  H   H7        1.0  0.55430942310052  0.49167486891647116  0.5228620218180944  1.0000
  C   C13       1.0  0.9932665360161412  0.13021150469584186  0.5661662536985237  1.0000
  C   C14       1.0  0.982632626748125  0.21378422682808762  0.4475924121021837  1.0000
  C   C15       1.0  0.9646465704825566  0.1490966017583486  0.3333505694227621  1.0000
  C   C16       1.0  0.956699123392294  0.9988760513629344  0.33449629561331684  1.0000
  C   C17       1.0  0.9686325377837  0.9141027838877256  0.4521597161634685  1.0000
  C   C18       1.0  0.9881870473863771  0.9773827602394658  0.5678298437016818  1.0000
  N   N4        1.0  0.9374157938126229  0.9328017404804793  0.21645193402145943  1.0000
  O   O1        1.0  0.9264603477377178  0.01613505864884601  0.10121530977320536  1.0000
  O   O2        1.0  0.9300786064735509  0.799048726100119  0.21668718010658483  1.0000
  H   H8        1.0  0.9763615232491766  0.20720064354819412  0.8849224001275666  1.0000
  H   H9        1.0  0.9862743029744119  0.33053604738463016  0.44374217314877273  1.0000
  H   H10       1.0  0.9561153675689675  0.21719708858580877  0.24413925100432296  1.0000
  H   H11       1.0  0.9646082485799075  0.7975997291128006  0.45309933984889245  1.0000
  H   H12       1.0  0.9796438398603061  0.6795709691440786  0.7832472469404149  1.0000
  C   C19       1.0  0.9906515233883046  0.5537254120728465  0.18568166683191345  1.0000
  C   C20       1.0  0.0666850595227022  0.6256456510451427  0.1795988986925281  1.0000
  C   C21       1.0  0.1044877293577502  0.663408533513665  0.05931681176384584  1.0000
  C   C22       1.0  0.06688291001091096  0.6258324460481623  0.944299732120091  1.0000
  C   C23       1.0  0.9908020740366249  0.5538688681688368  0.9483144828699623  1.0000
  C   C24       1.0  0.9530383936793931  0.5185498037462022  0.06943706025004913  1.0000
  C   C25       1.0  0.187024532870937  0.7365555063457847  0.05418307785021014  1.0000
  O   O3        1.0  0.2513321352688991  0.6297051594176384  0.061241836454697385  1.0000
  C   C26       1.0  0.3291816480388454  0.697016617335138  0.056539773253056584  1.0000
  H   H13       1.0  0.9620044570525575  0.5246738535916422  0.5155094181678621  1.0000
  H   H14       1.0  0.09682416582591058  0.6525602489471987  0.268276281141963  1.0000
  H   H15       1.0  0.09715770804084166  0.6528765962234735  0.8518020258873031  1.0000
  H   H16       1.0  0.894402104067177  0.4630707794819928  0.07336598223306878  1.0000
  H   H17       1.0  0.84775245345459  0.4166664200368906  0.7487334487517655  1.0000
  H   H18       1.0  0.1910116255565124  0.8068555172417691  0.13698717914642167  1.0000
  H   H19       1.0  0.19120455022062322  0.8068727781608147  0.9618724390452771  1.0000
  H   H20       1.0  0.379045323499527  0.6118106489305066  0.06216436018098935  1.0000
  H   H21       1.0  0.33720848164623174  0.7637877991234214  0.1407820804890043  1.0000
  H   H22       1.0  0.3374115655007057  0.763842971571875  0.9632704076296461  1.0000
  Zn  Zn1       1.0  0.8994293680998338  0.5560407842181689  0.5673477183164775  1.0000
  Zn  Zn2       1.0  0.08201623932361035  0.5515530163174894  0.5666478387260896  1.0000
  C   C27       1.0  0.9908061983471212  0.5480953432596017  0.8041492529602952  1.0000
  C   C28       1.0  0.9906413920318234  0.5595002283288628  0.32984642746256787  1.0000
  C   C29       1.0  0.9891418669596536  0.8172485187271288  0.5623409694899921  1.0000
  C   C30       1.0  0.9923056715198683  0.2903453213582747  0.5716547769975446  1.0000
  O   O4        1.0  0.059928795657766994  0.5597289318785363  0.37796382507668297  1.0000
  O   O5        1.0  0.06009801165822281  0.5444594394529245  0.7555002869997216  1.0000
  O   O6        1.0  0.05875310920834176  0.7618040557618444  0.5602383937895216  1.0000
  O   O7        1.0  0.06127363572202982  0.3423843274014364  0.5732256211847095  1.0000
  O   O8        1.0  0.9201719093934648  0.765209474667246  0.5607699360898653  1.0000
  O   O9        1.0  0.9215168014348201  0.5478665913944116  0.756031763467399  1.0000
  O   O10       1.0  0.9213475854830091  0.5631360332585924  0.37849374025977567  1.0000
  O   O11       1.0  0.9226924256249414  0.3457914184826968  0.5737556337019836  1.0000
