data_image0
_chemical_formula_structural       NC5NC4H6C7NH5C7OH5Zn2C4O8
_chemical_formula_sum              "N3 C27 H16 O9 Zn2"
_cell_length_a       13.854160002989762
_cell_length_b       9.275154477615127
_cell_length_c       9.274074313596557
_cell_angle_alpha    86.3499061385644
_cell_angle_beta     90.23361037791132
_cell_angle_gamma    89.43370676253429

_space_group_name_H-M_alt    "P 1"
_space_group_IT_number       1

loop_
  _space_group_symop_operation_xyz
  'x, y, z'

loop_
  _atom_site_type_symbol
  _atom_site_label
  _atom_site_symmetry_multiplicity
  _atom_site_fract_x
  _atom_site_fract_y
  _atom_site_fract_z
  _atom_site_occupancy
  N   N1        1.0  0.8942487517402575  0.5623506783739469  0.4164034782163919  1.0000
  C   C1        1.0  0.8215922611213938  0.5869769681481404  0.35746650229297683  1.0000
  C   C2        1.0  0.7312065580208512  0.6176127341022211  0.2841466464495397  1.0000
  C   C3        1.0  0.6440211337791474  0.5888405400173755  0.35574149447858705  1.0000
  C   C4        1.0  0.556064145493232  0.6176127482006846  0.2841466233374914  1.0000
  C   C5        1.0  0.4664841209740387  0.5869768217654744  0.35746659331571995  1.0000
  N   N2        1.0  0.39447518156155553  0.5623506148925965  0.4164034778777528  1.0000
  C   C6        1.0  0.5553212616191127  0.6757635694843218  0.14097830243696596  1.0000
  C   C7        1.0  0.6424594774297776  0.7066843171813637  0.06928856436430642  1.0000
  C   C8        1.0  0.6416517464824505  0.7649635392146807  0.9146340226680739  1.0000
  C   C9        1.0  0.7303983504230311  0.6757635672739704  0.14097821216778605  1.0000
  H   H1        1.0  0.6446221515478727  0.543721670296669  0.4665507045888952  1.0000
  H   H2        1.0  0.48715615680155056  0.6969986369848977  0.0854240047620689  1.0000
  H   H3        1.0  0.7059924917447724  0.8328732482476252  0.8911216581649701  1.0000
  H   H4        1.0  0.5762840142470904  0.8328732507622905  0.8911217232469396  1.0000
  H   H5        1.0  0.6420590194158138  0.6737608673502054  0.842731942195011  1.0000
  H   H6        1.0  0.7979791149130927  0.6969987486015754  0.08542391979566231  1.0000
  C   C10       1.0  0.14715528166194453  0.13894498282173925  0.4147356198186085  1.0000
  C   C11       1.0  0.12032221772833096  0.2208772432415962  0.28765431856851115  1.0000
  C   C12       1.0  0.08565602553836027  0.15365804135922234  0.16730470260457508  1.0000
  C   C13       1.0  0.07725360687267456  0.003589657760473931  0.17261901019015635  1.0000
  C   C14       1.0  0.10497354817870391  0.9204213017378498  0.2968035944944789  1.0000
  C   C15       1.0  0.14157800641842577  0.9857453518898415  0.41808383616222544  1.0000
  C   C16       1.0  0.057534730898881815  0.23915708673854064  0.03869174021378963  1.0000
  N   N3        1.0  0.034933003086434315  0.30788273640358055  0.9353198623656995  1.0000
  H   H7        1.0  0.16681385875726162  0.21908718780337558  0.7685280074867498  1.0000
  H   H8        1.0  0.12425272932815568  0.33779468433231674  0.28337773440166125  1.0000
  H   H9        1.0  0.050096148390028405  0.950555580875923  0.08012277172641102  1.0000
  H   H10       1.0  0.09990472437489871  0.8039524618672678  0.2966767498526912  1.0000
  H   H11       1.0  0.15890755758573769  0.6893008734739061  0.6551347997245481  1.0000
  C   C17       1.0  0.1432382820596887  0.5581924727930693  0.9931521094657247  1.0000
  C   C18       1.0  0.05879863290095  0.6007596425637571  0.06320926245586356  1.0000
  C   C19       1.0  0.9790357562840092  0.6549142659290483  0.984241146899352  1.0000
  C   C20       1.0  0.981845583759625  0.6679421588747929  0.8330126565501388  1.0000
  C   C21       1.0  0.06499344749591772  0.6236342627703967  0.7618087348514506  1.0000
  C   C22       1.0  0.14549496819705654  0.5664977937348645  0.8396673540861235  1.0000
  C   C23       1.0  0.8984350138976034  0.7260618100656955  0.7478517425748015  1.0000
  O   O1        1.0  0.8225324327360098  0.7662348852276004  0.8087168545183674  1.0000
  H   H12       1.0  0.37932126044566905  0.5214579855964563  0.0997954530139149  1.0000
  H   H13       1.0  0.9154867924904013  0.6879210963867355  0.04177330083216946  1.0000
  H   H14       1.0  0.06606589068540125  0.630621592096702  0.6446796992185138  1.0000
  H   H15       1.0  0.3042216856244638  0.5365302983596831  0.5620830528700207  1.0000
  H   H16       1.0  0.9018048618420477  0.7348135786378831  0.6310168291765303  1.0000
  Zn  Zn1       1.0  0.03860334709205726  0.5623468815808934  0.4164117952090187  1.0000
  Zn  Zn2       1.0  0.2501206966516165  0.5623427290811542  0.416406951504782  1.0000
  C   C24       1.0  0.14510410922272493  0.5591839930333338  0.6796350936821167  1.0000
  C   C25       1.0  0.14362223267891716  0.5655074382095275  0.15318380163896747  1.0000
  C   C26       1.0  0.14261194579581674  0.8256256853602564  0.41170731580504394  1.0000
  C   C27       1.0  0.1461143355439662  0.29906401434934193  0.4211116495120215  1.0000
  O   O2        1.0  0.22402086326957837  0.5679545413204501  0.20689003640825593  1.0000
  O   O3        1.0  0.2252422588273576  0.5567326464869551  0.6259247634442457  1.0000
  O   O4        1.0  0.22322872726342388  0.7718876973814299  0.40957119312751145  1.0000
  O   O5        1.0  0.22603432230093257  0.35279949968133706  0.4232434986973481  1.0000
  O   O6        1.0  0.06268964926221976  0.7718901109836227  0.409575248010531  1.0000
  O   O7        1.0  0.0647031692074913  0.5567367916253225  0.6259287483253624  1.0000
  O   O8        1.0  0.06348176942510375  0.5679586192125503  0.206892288189374  1.0000
  O   O9        1.0  0.06549522880851619  0.35280356832098736  0.42324585850018603  1.0000
