data_image0
_chemical_formula_structural       NC9NC3NH7C8H6C6NCOCH7Zn2C4O8
_chemical_formula_sum              "N4 C32 H20 O9 Zn2"
_cell_length_a       16.053384444249904
_cell_length_b       9.27514070457351
_cell_length_c       10.30027207537675
_cell_angle_alpha    85.67809769676893
_cell_angle_beta     89.79678474651607
_cell_angle_gamma    89.76770978158073

_space_group_name_H-M_alt    "P 1"
_space_group_IT_number       1

loop_
  _space_group_symop_operation_xyz
  'x, y, z'

loop_
  _atom_site_type_symbol
  _atom_site_label
  _atom_site_symmetry_multiplicity
  _atom_site_fract_x
  _atom_site_fract_y
  _atom_site_fract_z
  _atom_site_occupancy
  N   N1        1.0  0.7937959531293622  0.5591414423534969  0.5679454240185726  1.0000
  C   C1        1.0  0.7429081578758336  0.5360649714760661  0.4930536876247349  1.0000
  C   C2        1.0  0.6796685665510692  0.5073921985148131  0.4000198810559065  1.0000
  C   C3        1.0  0.6932149422235245  0.4940331783253633  0.2692674092035048  1.0000
  C   C4        1.0  0.6164265067625387  0.4659358940751632  0.2169574151631812  1.0000
  C   C5        1.0  0.5593108695656615  0.4637167879455953  0.31861713920703894  1.0000
  C   C6        1.0  0.4685012083074231  0.43727534809515234  0.3083145505791398  1.0000
  C   C7        1.0  0.4128818727434707  0.48465764368836634  0.4023161552605439  1.0000
  C   C8        1.0  0.3271842274303002  0.4595804392631275  0.39244875372645427  1.0000
  C   C9        1.0  0.2707962244652207  0.5088988972863953  0.4888262362006237  1.0000
  N   N2        1.0  0.2254768925302963  0.5485439833874863  0.5662986406553752  1.0000
  C   C10       1.0  0.2963791442917384  0.38699661506973393  0.28859319092349045  1.0000
  C   C11       1.0  0.3509907061391063  0.3397470295213963  0.1948035237879251  1.0000
  C   C12       1.0  0.4364813147878  0.36464040223912386  0.20427397746549003  1.0000
  N   N3        1.0  0.5986439331592955  0.48917747728820604  0.4302186203263359  1.0000
  H   H1        1.0  0.7520103015750222  0.5036387485585466  0.21767559422025104  1.0000
  H   H2        1.0  0.6040819526360561  0.45068332713931536  0.1157566122894287  1.0000
  H   H3        1.0  0.4355418307758319  0.5428647103371156  0.4822333228053177  1.0000
  H   H4        1.0  0.2302383411203824  0.3670540731072045  0.28011862234456797  1.0000
  H   H5        1.0  0.3270513147078387  0.2833626495710049  0.11465641686857196  1.0000
  H   H6        1.0  0.4773706753416351  0.3253194788030498  0.130947316071911  1.0000
  H   H7        1.0  0.5724891151194715  0.4917711826140172  0.522976804954363  1.0000
  C   C13       1.0  0.007110090574004248  0.13046431462685185  0.5662234874609446  1.0000
  C   C14       1.0  0.0190067464466952  0.21365376110916623  0.4477187688794657  1.0000
  C   C15       1.0  0.03816735239307478  0.1479068423055674  0.3338406845346762  1.0000
  C   C16       1.0  0.04588965697066927  0.9977865242990785  0.3362799714588287  1.0000
  C   C17       1.0  0.03292624841962044  0.9130431385996823  0.4526604535280998  1.0000
  C   C18       1.0  0.01217062023320348  0.9772098604298534  0.5680317668046948  1.0000
  C   C19       1.0  0.066186759841693  0.930262023101519  0.21876771118900606  1.0000
  C   C20       1.0  0.08318120522750871  0.8737118194084454  0.12038474265187249  1.0000
  H   H8        1.0  0.02072747492626381  0.20652861028139768  0.8852572003203428  1.0000
  H   H9        1.0  0.015425107091510572  0.33056789141575793  0.443754836885913  1.0000
  H   H10       1.0  0.047775443285809294  0.21444192409067123  0.24402941800259992  1.0000
  H   H11       1.0  0.03712521197501828  0.796332879518158  0.45248401552587936  1.0000
  H   H12       1.0  0.01814211927379694  0.6784651003947035  0.7829959969766728  1.0000
  H   H13       1.0  0.09809868084821849  0.824070923896167  0.03402515728538757  1.0000
  C   C21       1.0  0.009648073819286786  0.5539833322212572  0.18577516611480238  1.0000
  C   C22       1.0  0.924603634228491  0.5901818232877156  0.18273414610761063  1.0000
  C   C23       1.0  0.8820126141407246  0.610363865042272  0.06379038224823752  1.0000
  C   C24       1.0  0.9246100890091755  0.5898529112623809  0.947599453097367  1.0000
  C   C25       1.0  0.009632682607717108  0.553690791122412  0.9484800867795875  1.0000
  C   C26       1.0  0.05177680587779588  0.5364825151782182  0.06807465447860128  1.0000
  N   N4        1.0  0.7946359322696115  0.6452094366599763  0.05921262283028894  1.0000
  C   C27       1.0  0.7538230642326742  0.735973895642704  0.14701395904902537  1.0000
  O   O1        1.0  0.7956290420356994  0.812070381672994  0.2192836911381388  1.0000
  C   C28       1.0  0.6610339930764912  0.7488574746355139  0.14627839318127944  1.0000
  H   H14       1.0  0.8911249199357197  0.5998583655801377  0.27302411037860197  1.0000
  H   H15       1.0  0.8910939078659256  0.6034858821988485  0.8563857050548968  1.0000
  H   H16       1.0  0.11737429509133482  0.5086026279410494  0.06960856558618667  1.0000
  H   H17       1.0  0.759619309275419  0.6101091600087167  0.9823118176630294  1.0000
  H   H18       1.0  0.6327311344003714  0.6417922030335725  0.13377804758615808  1.0000
  H   H19       1.0  0.6384414758423426  0.7879282888508174  0.23949278876898106  1.0000
  H   H20       1.0  0.6414814875905158  0.8264020559324171  0.06465683582022996  1.0000
  Zn  Zn1       1.0  0.9183697220180238  0.5560793966908717  0.5674776822157273  1.0000
  Zn  Zn2       1.0  0.10090302976839088  0.551594279103075  0.5667769711642765  1.0000
  C   C29       1.0  0.00959938571820152  0.5480025924872862  0.8043002410767136  1.0000
  C   C30       1.0  0.009675370195602273  0.5596728534008943  0.32995453599727087  1.0000
  C   C31       1.0  0.01120990622142193  0.8171590163433261  0.5625150050887959  1.0000
  C   C32       1.0  0.00806477705282016  0.2905146988722547  0.5717398377608256  1.0000
  O   O2        1.0  0.07895493252869845  0.5598739400862274  0.37807652000027026  1.0000
  O   O3        1.0  0.07885837394168171  0.5443963178316547  0.7556460574464348  1.0000
  O   O4        1.0  0.08015795578989926  0.7617435564699714  0.5604027755016343  1.0000
  O   O5        1.0  0.07765528845783476  0.3425267133292984  0.5733197048357381  1.0000
  O   O6        1.0  0.94161740103893  0.7651469639967715  0.5609349487765567  1.0000
  O   O7        1.0  0.9403178295406246  0.5478014575631776  0.7561781651780111  1.0000
  O   O8        1.0  0.9404143879143345  0.5632790301740465  0.37860706629108803  1.0000
  O   O9        1.0  0.9391147437764673  0.3459317930678528  0.5738503484681803  1.0000
