data_image0
_chemical_formula_structural       NC6NC3H6C7NH5C10H3Zn2C4O8
_chemical_formula_sum              "N3 C30 H14 Zn2 O8"
_cell_length_a       14.934028789175542
_cell_length_b       9.275154477615127
_cell_length_c       9.27515367178086
_cell_angle_alpha    85.92749838792564
_cell_angle_beta     89.38462069014352
_cell_angle_gamma    89.3962875590186

_space_group_name_H-M_alt    "P 1"
_space_group_IT_number       1

loop_
  _space_group_symop_operation_xyz
  'x, y, z'

loop_
  _atom_site_type_symbol
  _atom_site_label
  _atom_site_symmetry_multiplicity
  _atom_site_fract_x
  _atom_site_fract_y
  _atom_site_fract_z
  _atom_site_occupancy
  N   N1        1.0  0.8436763789793685  0.5729837600553779  0.415216417746251  1.0000
  C   C1        1.0  0.7662014319145037  0.5718841151797851  0.41453301122173514  1.0000
  C   C2        1.0  0.6698187422593437  0.5705111014605736  0.4136799040600061  1.0000
  C   C3        1.0  0.6209784193484763  0.6774420528061667  0.4800134214032128  1.0000
  C   C4        1.0  0.5274778064444035  0.6763396212997002  0.4793294097501448  1.0000
  C   C5        1.0  0.48190441610768797  0.5683608087839316  0.4123459331762198  1.0000
  C   C6        1.0  0.3852352893111839  0.5706776065597752  0.4137844262419985  1.0000
  N   N2        1.0  0.3077366293605033  0.5725162785300004  0.414926380297471  1.0000
  C   C7        1.0  0.5307540824298635  0.4599504896931528  0.34509415104613006  1.0000
  C   C8        1.0  0.483621059246604  0.34255507845246935  0.2722704195874619  1.0000
  C   C9        1.0  0.6248744257917094  0.4621778472723419  0.3464759217684199  1.0000
  H   H1        1.0  0.6551735164628061  0.7616937250904423  0.532278669566876  1.0000
  H   H2        1.0  0.4905994991681961  0.7599424331456189  0.5311919999812751  1.0000
  H   H3        1.0  0.44113779688628085  0.3913867832950495  0.18383081473493745  1.0000
  H   H4        1.0  0.44074937925088875  0.2799291233111061  0.3521595630687617  1.0000
  H   H5        1.0  0.531846334821818  0.26651636093930864  0.22509413279096946  1.0000
  H   H6        1.0  0.6632345815695482  0.3796872027701179  0.29530354398991343  1.0000
  C   C10       1.0  0.07831270911091698  0.1493538181821905  0.4134011901608108  1.0000
  C   C11       1.0  0.05454967696037927  0.23223149886682656  0.2862818062267492  1.0000
  C   C12       1.0  0.023459989795809866  0.16591628469681896  0.1659014917389967  1.0000
  C   C13       1.0  0.01561780720912154  0.015817265425070566  0.17122291532197842  1.0000
  C   C14       1.0  0.040229353637405624  0.9317236389701181  0.29544384522903755  1.0000
  C   C15       1.0  0.07310889590299255  0.9961351504572251  0.41675405422100287  1.0000
  C   C16       1.0  0.9985154850560455  0.2523730466868235  0.03725054718677723  1.0000
  N   N3        1.0  0.978467039948006  0.3218684546387518  0.93384814106786  1.0000
  H   H7        1.0  0.09340404065718208  0.22691542309361656  0.7673315206144072  1.0000
  H   H8        1.0  0.05823404190088355  0.3491762389604571  0.28200113744841127  1.0000
  H   H9        1.0  0.9912463020333213  0.9634784404654826  0.07870338137396704  1.0000
  H   H10       1.0  0.03552813146570788  0.8152604542294276  0.2953198865476594  1.0000
  H   H11       1.0  0.08707765948377809  0.6979577114358541  0.6538950322204375  1.0000
  C   C17       1.0  0.07842764791121616  0.5716581546451327  0.9916419921433196  1.0000
  C   C18       1.0  0.10118812162627244  0.6990558625253691  0.05587550508893014  1.0000
  C   C19       1.0  0.1155739006371037  0.8278191052397997  0.9713835229313386  1.0000
  C   C20       1.0  0.10728253622752998  0.8307885139555292  0.8214598985325434  1.0000
  C   C21       1.0  0.08624250313146126  0.7049972282089112  0.75561326874677  1.0000
  C   C22       1.0  0.07299397740050506  0.5738307687314381  0.8385132377993442  1.0000
  C   C23       1.0  0.13784620848355783  0.9575890782779743  0.03899208425483325  1.0000
  C   C24       1.0  0.15649477149561963  0.06623464038531646  0.09562195685287711  1.0000
  C   C25       1.0  0.17833130848757017  0.19345380876722862  0.16194110124463923  1.0000
  C   C26       1.0  0.19697626645306135  0.302078598448674  0.2185682428038538  1.0000
  H   H12       1.0  0.10570449716594199  0.6991243109080194  0.17248836326928907  1.0000
  H   H13       1.0  0.11796086089062591  0.9301811380703937  0.7551397576905798  1.0000
  H   H14       1.0  0.21334806288927044  0.397460069980625  0.26829182506407157  1.0000
  Zn  Zn1       1.0  0.9775941268572896  0.5728450127295355  0.4151410243639073  1.0000
  Zn  Zn2       1.0  0.17381890848822198  0.572643245635243  0.41501351581243795  1.0000
  C   C27       1.0  0.07405433653945902  0.5676762937585063  0.6784136731374566  1.0000
  C   C28       1.0  0.07736082948679246  0.5778137819633598  0.15174101437615795  1.0000
  C   C29       1.0  0.07412478224870633  0.8360606977243029  0.41037424260093336  1.0000
  C   C30       1.0  0.07729032697187384  0.3094276460139675  0.4197805149733298  1.0000
  O   O1        1.0  0.1514691161282593  0.5797968070504833  0.20542329502373868  1.0000
  O   O2        1.0  0.1488761281710369  0.5655390433614806  0.6246341970600453  1.0000
  O   O3        1.0  0.14893200051103606  0.7822628486266167  0.40819046706660655  1.0000
  O   O4        1.0  0.1514131774603411  0.36307301189084296  0.42186691698599743  1.0000
  O   O5        1.0  0.9999997909233223  0.7824152465443384  0.40828762322628176  1.0000
  O   O6        1.0  0.9999439084271458  0.5656931733332011  0.6247312831950063  1.0000
  O   O7        1.0  0.0025369078760064654  0.5799508823313169  0.20551864732957337  1.0000
  O   O8        1.0  0.0024809685741584674  0.363227077136584  0.42196237735894626  1.0000
