data_image0
_chemical_formula_structural       NC8NC6H8C8H6C6NCOCH9Zn2C4O8
_chemical_formula_sum              "N3 C34 H23 O9 Zn2"
_cell_length_a       17.457602349358154
_cell_length_b       9.27514070457351
_cell_length_c       10.300272075376752
_cell_angle_alpha    85.67809769676893
_cell_angle_beta     92.87481935650747
_cell_angle_gamma    92.27341969939751

_space_group_name_H-M_alt    "P 1"
_space_group_IT_number       1

loop_
  _space_group_symop_operation_xyz
  'x, y, z'

loop_
  _atom_site_type_symbol
  _atom_site_label
  _atom_site_symmetry_multiplicity
  _atom_site_fract_x
  _atom_site_fract_y
  _atom_site_fract_z
  _atom_site_occupancy
  N   N1        1.0  0.731331208314208  0.6140571285196339  0.6307731849029157  1.0000
  C   C1        1.0  0.6699727479199686  0.5630563924023413  0.6200249316587223  1.0000
  C   C2        1.0  0.5936402749088657  0.4996178194054015  0.606663662713415  1.0000
  C   C3        1.0  0.5353557478190469  0.5441928345112959  0.6816743672783994  1.0000
  C   C4        1.0  0.46047429433024095  0.4831065800629082  0.6689336437195554  1.0000
  C   C5        1.0  0.3986125002115918  0.5301711386094368  0.748372454299606  1.0000
  C   C6        1.0  0.324179765260796  0.5507038622583413  0.6926648670322904  1.0000
  C   C7        1.0  0.2658941090461656  0.5950745667202327  0.7677829879302349  1.0000
  C   C8        1.0  0.1900269633765863  0.6162810127244334  0.7098617911241918  1.0000
  N   N2        1.0  0.1290426557658507  0.6333239099198289  0.6632932814585262  1.0000
  C   C9        1.0  0.28155050185501784  0.6191823851247602  0.8991178955474656  1.0000
  C   C10       1.0  0.35520090332303295  0.5990815225383763  0.9552141904244336  1.0000
  C   C11       1.0  0.4134760467093435  0.5549106103234582  0.8805542922206864  1.0000
  C   C12       1.0  0.4451618996027411  0.37669351895925446  0.579747396889984  1.0000
  C   C13       1.0  0.5034364045760558  0.3324278527748743  0.5051374851592676  1.0000
  C   C14       1.0  0.577533769084312  0.3936386993270924  0.5184284598749842  1.0000
  H   H1        1.0  0.5481581848443131  0.627678353070825  0.7485199159583551  1.0000
  H   H2        1.0  0.31174515485296117  0.5341172879046316  0.5906014997961551  1.0000
  H   H3        1.0  0.23687721069892675  0.6534582068028589  0.9580405893660912  1.0000
  H   H4        1.0  0.3671313310934983  0.6173981894078528  0.0569088242548218  1.0000
  H   H5        1.0  0.46986916318155997  0.5382427502858538  0.9266153125663583  1.0000
  H   H6        1.0  0.38840032234327065  0.32634768616428006  0.5689647359416157  1.0000
  H   H7        1.0  0.49115462419268185  0.2501827479042684  0.43709690082767527  1.0000
  H   H8        1.0  0.6222017784735021  0.35839678740551806  0.46001435010820463  1.0000
  C   C15       1.0  0.9278594033407576  0.20013730987289755  0.6459347428602037  1.0000
  C   C16       1.0  0.9388198972560691  0.2841497802289872  0.5283716267743608  1.0000
  C   C17       1.0  0.9564727324003605  0.21972841343753438  0.41601007569489235  1.0000
  C   C18       1.0  0.9635873596738281  0.07014233304335726  0.4190605714612727  1.0000
  C   C19       1.0  0.9516440571133474  0.9845021243344377  0.5344150191580073  1.0000
  C   C20       1.0  0.9325217139204247  0.047232948741382064  0.6481435555477215  1.0000
  C   C21       1.0  0.9822872594521335  0.004022007978155891  0.30315479648631505  1.0000
  C   C22       1.0  0.9979443917789509  0.9486474989024407  0.20611691285022318  1.0000
  H   H9        1.0  0.9404052195711838  0.2771436713096438  0.9660462512973964  1.0000
  H   H10       1.0  0.9355201013487624  0.4008161287447869  0.5241242133897852  1.0000
  H   H11       1.0  0.9653247512277113  0.28692819362786537  0.3269592751676935  1.0000
  H   H12       1.0  0.9555125992475452  0.8680823542178951  0.5345709228327384  1.0000
  H   H13       1.0  0.9380233086206594  0.7489013036458608  0.8635804209257176  1.0000
  H   H14       1.0  0.011687993554297059  0.9000386109310781  0.12093802333838567  1.0000
  C   C23       1.0  0.930197669674992  0.6238319079686181  0.26568729908698696  1.0000
  C   C24       1.0  0.8518454778791666  0.6541469301960994  0.25591513905056074  1.0000
  C   C25       1.0  0.812605995665474  0.6713824778504849  0.1336003597364661  1.0000
  C   C26       1.0  0.8518514247255052  0.6538184647196654  0.020780956926540695  1.0000
  C   C27       1.0  0.9301834896161111  0.6235383020886531  0.028391001560426954  1.0000
  C   C28       1.0  0.9690112418526189  0.6092456034261557  0.15132121350032435  1.0000
  N   N3        1.0  0.7321050884998845  0.7001832335164874  0.12210686680561245  1.0000
  C   C29       1.0  0.694503833443653  0.788124212933943  0.2066779256414517  1.0000
  O   O1        1.0  0.733020049280874  0.8671128829667448  0.2822565382641451  1.0000
  C   C30       1.0  0.6090164443237119  0.7945885408696358  0.19859824375459678  1.0000
  H   H15       1.0  0.9597236487132783  0.6102175310401958  0.596946326145831  1.0000
  H   H16       1.0  0.8210012433123164  0.6615073778295606  0.3435553132237199  1.0000
  H   H17       1.0  0.8209726716190683  0.6651327489988197  0.9269144533411344  1.0000
  H   H18       1.0  0.029446786856081267  0.5859038233898815  0.15804706763895426  1.0000
  H   H19       1.0  0.9595992242514  0.6099403772772056  0.7039879624086653  1.0000
  H   H20       1.0  0.699843965090942  0.6626604679732573  0.04243454837000771  1.0000
  H   H21       1.0  0.5829407711576386  0.6855652460521131  0.18385776928222874  1.0000
  H   H22       1.0  0.5882017590603607  0.8320963796360952  0.29002447543825394  1.0000
  H   H23       1.0  0.5910025486793004  0.8707804581087342  0.11542913486658414  1.0000
  Zn  Zn1       1.0  0.8461021196125585  0.6196132346249204  0.6401652703432594  1.0000
  Zn  Zn2       1.0  0.014271664932614456  0.6277559741126975  0.6539117972344535  1.0000
  C   C31       1.0  0.930152812898314  0.6178477999377083  0.8842085204586141  1.0000
  C   C32       1.0  0.9302228180670877  0.629523317541903  0.4098688294367614  1.0000
  C   C33       1.0  0.9316365996334209  0.8871156413918985  0.6425507547565756  1.0000
  C   C34       1.0  0.9287389644085122  0.36025374038982744  0.6515266551651235  1.0000
  O   O2        1.0  0.9940506894902182  0.634517241338352  0.46347418704386634  1.0000
  O   O3        1.0  0.9939617292129115  0.6190329390534255  0.8410360820224771  1.0000
  O   O4        1.0  0.9951590454244806  0.8364700842081997  0.6458956600346815  1.0000
  O   O5        1.0  0.9928533159523767  0.41708010376033333  0.6586145069975005  1.0000
  O   O6        1.0  0.8675204112047931  0.8302891022001404  0.6354625558823706  1.0000
  O   O7        1.0  0.866323104528689  0.6128536899661072  0.8306029131460008  1.0000
  O   O8        1.0  0.8664120646094751  0.6283379425925728  0.4530394567097493  1.0000
  O   O9        1.0  0.8652146910099017  0.41090079466065466  0.6481798739997038  1.0000
