data_image0
_chemical_formula_structural       NC5NC3H4C6ClH5C7F3H5Zn2C4O8
_chemical_formula_sum              "N2 C25 H14 Cl1 F3 Zn2 O8"
_cell_length_a       13.859018345313864
_cell_length_b       9.276545438789551
_cell_length_c       9.272721663655245
_cell_angle_alpha    85.91497059500672
_cell_angle_beta     90.51617892937593
_cell_angle_gamma    89.40960550048821

_space_group_name_H-M_alt    "P 1"
_space_group_IT_number       1

loop_
  _space_group_symop_operation_xyz
  'x, y, z'

loop_
  _atom_site_type_symbol
  _atom_site_label
  _atom_site_symmetry_multiplicity
  _atom_site_fract_x
  _atom_site_fract_y
  _atom_site_fract_z
  _atom_site_occupancy
  N   N1        1.0  0.8881849533457762  0.5692788652440004  0.4103710783694554  1.0000
  C   C1        1.0  0.8164100734832981  0.5300249451750971  0.4616195725604017  1.0000
  C   C2        1.0  0.7271262941122487  0.4811983266157325  0.5253658824630607  1.0000
  C   C3        1.0  0.638808241386496  0.5287985630219947  0.46322103714193874  1.0000
  C   C4        1.0  0.5518959908916371  0.48119803551287244  0.5253657566984575  1.0000
  C   C5        1.0  0.4611701940519825  0.5300248319643013  0.4616194751483189  1.0000
  N   N2        1.0  0.3882360506083504  0.5692788309683843  0.41037100929939835  1.0000
  C   C6        1.0  0.5534844818655464  0.3859831946733733  0.6496739151461854  1.0000
  C   C7        1.0  0.6416172880336398  0.3385661935507749  0.7115796122229325  1.0000
  C   C8        1.0  0.7283498246044665  0.385983490924026  0.6496741190466777  1.0000
  H   H1        1.0  0.6377199129522785  0.6024974470187221  0.36700317892540824  1.0000
  H   H2        1.0  0.4867422546234125  0.34851693714902643  0.6985877282124726  1.0000
  H   H3        1.0  0.6427033453253347  0.26501693267830473  0.8076023224149556  1.0000
  H   H4        1.0  0.7961985151857132  0.3485174693910611  0.6985881539757617  1.0000
  C   C9        1.0  0.14112578003087917  0.14584237116264287  0.410133359148153  1.0000
  C   C10       1.0  0.14068458120022992  0.22875876442881823  0.2770400973768803  1.0000
  C   C11       1.0  0.13148248456848988  0.16296029805831425  0.14684363463561145  1.0000
  C   C12       1.0  0.12251022668290412  0.013374093086146793  0.1477373930377439  1.0000
  C   C13       1.0  0.12442527676042567  0.9289057919632361  0.27838772622795327  1.0000
  C   C14       1.0  0.1353046138086651  0.9927042942793874  0.41062124167641145  1.0000
  Cl  Cl1       1.0  0.12973741870225863  0.2686725013502249  0.9822222612773163  1.0000
  H   H5        1.0  0.19184784267046284  0.41005348043641976  0.6368388606973472  1.0000
  H   H6        1.0  0.14518848850151683  0.34546356171634307  0.2741851954164507  1.0000
  H   H7        1.0  0.11496895603305597  0.962096174855725  0.047009635255314854  1.0000
  H   H8        1.0  0.11969196895448506  0.8126306826497861  0.2757361830726198  1.0000
  H   H9        1.0  0.10437200642815568  0.6952565295638594  0.6437909095562928  1.0000
  C   C15       1.0  0.13567830272577974  0.5669345763006559  0.9869327215803931  1.0000
  C   C16       1.0  0.17755495564335708  0.4489921440927793  0.06958711131925388  1.0000
  C   C17       1.0  0.22782964693032823  0.33962668202902124  0.003619098369536777  1.0000
  C   C18       1.0  0.23328470325199313  0.34626666522417543  0.8524731044405107  1.0000
  C   C19       1.0  0.19085683948774188  0.4612069523785572  0.7688486832506439  1.0000
  C   C20       1.0  0.14075209021451804  0.5716120704150323  0.8338218439458623  1.0000
  C   C21       1.0  0.27000013343098983  0.21214798773933685  0.09389301117090576  1.0000
  F   F1        1.0  0.30220664064066255  0.25405620799148565  0.22615010190431306  1.0000
  F   F2        1.0  0.34732293970527106  0.15250523838243812  0.02473873089519251  1.0000
  F   F3        1.0  0.19987479429174515  0.10835693958116188  0.11686893017775789  1.0000
  H   H10       1.0  0.07215591750661554  0.9103013783107174  0.06334992866446276  1.0000
  H   H11       1.0  0.1727722819219211  0.44386936740790617  0.1864297939395216  1.0000
  H   H12       1.0  0.2695306645529987  0.2615620765552258  0.7985164444994189  1.0000
  H   H13       1.0  0.19498832847264594  0.4616681261192881  0.6521943312224461  1.0000
  H   H14       1.0  0.9659268180487811  0.8148176975925461  0.7126711155544574  1.0000
  Zn  Zn1       1.0  0.032488973287813305  0.5692750309524431  0.41037939251944544  1.0000
  Zn  Zn2       1.0  0.24393215943657043  0.5692708966352906  0.4103745317940892  1.0000
  C   C22       1.0  0.13983034943013495  0.5649835356835562  0.6737383741046027  1.0000
  C   C23       1.0  0.13659308058912578  0.5735642120111122  0.14701569273354087  1.0000
  C   C24       1.0  0.13636552726287277  0.8325975944985913  0.40478287294110094  1.0000
  C   C25       1.0  0.14005784297451807  0.30594842120759425  0.4159712697782605  1.0000
  O   O1        1.0  0.2171417188360052  0.5757813186552165  0.20073915198457604  1.0000
  O   O2        1.0  0.21976220199833607  0.5627622011032778  0.6200108099571164  1.0000
  O   O3        1.0  0.21696324156742963  0.7788639463404456  0.4028273407514009  1.0000
  O   O4        1.0  0.2199406063970312  0.3596795831373081  0.41792251308007533  1.0000
  O   O5        1.0  0.05648045417211377  0.7788663444533646  0.40283141122753396  1.0000
  O   O6        1.0  0.05927940222965144  0.562766331207617  0.6200148045461065  1.0000
  O   O7        1.0  0.05665890909038551  0.5757853889362976  0.20074141287776623  1.0000
  O   O8        1.0  0.059457797366053715  0.35968364370206785  0.41792488207755685  1.0000
