data_image0
_chemical_formula_structural       NC9NC5H8C16H10C12SCH12Zn2C4O8
_chemical_formula_sum              "N2 C47 H30 S1 Zn2 O8"
_cell_length_a       17.807436237873137
_cell_length_b       10.299148015769433
_cell_length_c       10.299780138516091
_cell_angle_alpha    85.5534209466543
_cell_angle_beta     89.38476460054898
_cell_angle_gamma    88.40369483635645

_space_group_name_H-M_alt    "P 1"
_space_group_IT_number       1

loop_
  _space_group_symop_operation_xyz
  'x, y, z'

loop_
  _atom_site_type_symbol
  _atom_site_label
  _atom_site_symmetry_multiplicity
  _atom_site_fract_x
  _atom_site_fract_y
  _atom_site_fract_z
  _atom_site_occupancy
  N   N1        1.0  0.7077207709583648  0.38744449918949236  0.5566055191393817  1.0000
  C   C1        1.0  0.6471291898321511  0.35224888513175245  0.5455968730103793  1.0000
  C   C2        1.0  0.571759922491274  0.30846941718276555  0.5319033125090675  1.0000
  C   C3        1.0  0.5536668770251336  0.23701850824323986  0.42693490123838534  1.0000
  C   C4        1.0  0.4804871985683351  0.194400489744301  0.41355675828788874  1.0000
  C   C5        1.0  0.42435179676687346  0.2228558121870767  0.5051147352244085  1.0000
  C   C6        1.0  0.3465806725215579  0.17767878380657162  0.49097925642513357  1.0000
  C   C7        1.0  0.2844137062333204  0.2594487243405914  0.5168826750093924  1.0000
  C   C8        1.0  0.2110916933763416  0.21662765613510993  0.5035182980744177  1.0000
  C   C9        1.0  0.1478749854338931  0.3010892603807289  0.529784471534565  1.0000
  N   N2        1.0  0.09706173978039216  0.368990547119447  0.5509017509985501  1.0000
  C   C10       1.0  0.19935306783028245  0.09177864032270718  0.4642252624503038  1.0000
  C   C11       1.0  0.2606626630246155  0.009994844002674702  0.4383134603481797  1.0000
  C   C12       1.0  0.3338652047627427  0.05242128232651689  0.45147547339959976  1.0000
  C   C13       1.0  0.4431362984952916  0.29480118883465084  0.6103021589165398  1.0000
  C   C14       1.0  0.5163688340299797  0.33722875331733354  0.6235247377212811  1.0000
  H   H1        1.0  0.59606436787919  0.21451081570233363  0.3552345927434304  1.0000
  H   H2        1.0  0.4675737396414101  0.14069011564936162  0.3306623481871407  1.0000
  H   H3        1.0  0.2929225231153419  0.35692942079398915  0.5457174719849753  1.0000
  H   H4        1.0  0.1428841195560646  0.05773692258681473  0.45364515224386004  1.0000
  H   H5        1.0  0.2514557121265455  0.9133339624816181  0.40827795669230227  1.0000
  H   H6        1.0  0.3804983466777608  0.9866657094168213  0.43245554955331444  1.0000
  H   H7        1.0  0.4014555091828075  0.31677016533725516  0.683297138938212  1.0000
  H   H8        1.0  0.5298108965870046  0.39215950509206826  0.7053770504173211  1.0000
  C   C15       1.0  0.9023413340612139  0.9968185764175247  0.5539199299529298  1.0000
  C   C16       1.0  0.8851986855713614  0.0071922216223070335  0.42070320493783603  1.0000
  C   C17       1.0  0.8765622187128227  0.8953194556286859  0.35299409234170276  1.0000
  C   C18       1.0  0.8852990033884456  0.7719355374391424  0.4202971635613277  1.0000
  C   C19       1.0  0.9024483416286555  0.7596061569362836  0.5535985395818028  1.0000
  C   C20       1.0  0.9108652579098175  0.8725685636053238  0.6195891217218608  1.0000
  C   C21       1.0  0.858427549458205  0.9073391180588553  0.21206686053725754  1.0000
  C   C22       1.0  0.8939779540513006  0.824644944827586  0.12633227378694367  1.0000
  C   C23       1.0  0.876883982592052  0.8360838576170083  0.9936973811394192  1.0000
  C   C24       1.0  0.8240641177794007  0.9301250611144224  0.9449954735887394  1.0000
  C   C25       1.0  0.7883768295598677  0.012805675234481612  0.029448183634507075  1.0000
  C   C26       1.0  0.8054172357516672  0.001610572940297541  0.16210480661442928  1.0000
  C   C27       1.0  0.8064935830364001  0.9417764105994988  0.8084349973631761  1.0000
  C   C28       1.0  0.7917784495633291  0.9515343035194509  0.6940675750462924  1.0000
  C   C29       1.0  0.7745472020537518  0.9629606655817321  0.5601444893903063  1.0000
  C   C30       1.0  0.7598345382661417  0.9727170694916619  0.4457955378081463  1.0000
  H   H9        1.0  0.9088964941571316  0.32030486320641294  0.605175448161305  1.0000
  H   H10       1.0  0.8795354284805135  0.10250131312238508  0.3688784689798217  1.0000
  H   H11       1.0  0.8776966028589132  0.6853880965120183  0.36899539432313094  1.0000
  H   H12       1.0  0.9240856252960152  0.8638513184578164  0.7223434890139908  1.0000
  H   H13       1.0  0.9343515692785088  0.5290506362514961  0.8053829441743896  1.0000
  H   H14       1.0  0.9357080372557871  0.7522724776955667  0.16156899068946973  1.0000
  H   H15       1.0  0.9049957550423727  0.7718103767512313  0.9291136417745632  1.0000
  H   H16       1.0  0.7472443957780796  0.08571378008066464  0.9928328815023746  1.0000
  H   H17       1.0  0.7764297622780985  0.06553552622931158  0.22589862420196627  1.0000
  H   H18       1.0  0.746915635011348  0.9812840135113615  0.34538751555052416  1.0000
  C   C31       1.0  0.9024250223275473  0.3780996291449668  0.17240670668914237  1.0000
  C   C32       1.0  0.8309861129554497  0.32346921818188723  0.17697200960608073  1.0000
  C   C33       1.0  0.7947577446280376  0.295903238117585  0.06213875550297731  1.0000
  C   C34       1.0  0.8309246397987231  0.3236975899495743  0.9416689191385096  1.0000
  C   C35       1.0  0.9023646689178195  0.3783251241170458  0.9351117627045724  1.0000
  C   C36       1.0  0.937714782885327  0.40522102627700773  0.05100965273663283  1.0000
  C   C37       1.0  0.7191803413367702  0.23812391991813772  0.0680312811484125  1.0000
  C   C38       1.0  0.6635474640377642  0.28242530860930337  0.9778723406077612  1.0000
  C   C39       1.0  0.5924304756635412  0.22801253265078913  0.983654665454536  1.0000
  C   C40       1.0  0.5759091836064881  0.12897734263416225  0.07950128152151326  1.0000
  C   C41       1.0  0.6308733400596462  0.08390864930398556  0.16926470319109363  1.0000
  C   C42       1.0  0.7020367816739036  0.13814577893422195  0.1638441784657525  1.0000
  S   S1        1.0  0.48468710759295336  0.0590235978820357  0.0864701864366606  1.0000
  C   C43       1.0  0.4461772642577945  0.17507381016197066  0.19571540672529308  1.0000
  H   H19       1.0  0.9296574657608431  0.3988682716916101  0.4981239862600601  1.0000
  H   H20       1.0  0.8029071445188734  0.30387601082763127  0.26994147822757864  1.0000
  H   H21       1.0  0.8036785768253721  0.3009855592416077  0.8530059213311548  1.0000
  H   H22       1.0  0.9928270350679456  0.44736527095873385  0.04671934157303958  1.0000
  H   H23       1.0  0.9295699570031083  0.3991999110160855  0.6051555621715433  1.0000
  H   H24       1.0  0.6747296463856457  0.36026975041818665  0.903997406598257  1.0000
  H   H25       1.0  0.5501060103252983  0.2633547213480531  0.9139294238342098  1.0000
  H   H26       1.0  0.6185430281272019  0.006814660084347506  0.24328102965824747  1.0000
  H   H27       1.0  0.743956761340893  0.10077159985606784  0.23347539063272627  1.0000
  H   H28       1.0  0.4779440428707693  0.16753751734852182  0.28826667212093016  1.0000
  H   H29       1.0  0.3865555696504199  0.15276886938118261  0.21737173123885878  1.0000
  H   H30       1.0  0.44909533047435085  0.2756660423140877  0.1490391273810856  1.0000
  Zn  Zn1       1.0  0.8200761620590495  0.3821156239122596  0.5549670467917576  1.0000
  Zn  Zn2       1.0  0.9847063281522975  0.3743088385497215  0.5525509039600598  1.0000
  C   C44       1.0  0.9023736676821573  0.373108490699561  0.7909463580593954  1.0000
  C   C45       1.0  0.9024106205053052  0.3833175252981905  0.31657169307866373  1.0000
  C   C46       1.0  0.902424663831161  0.615421731060507  0.5484843745058625  1.0000
  C   C47       1.0  0.9023595679551331  0.14100272719682128  0.5590337473498299  1.0000
  O   O1        1.0  0.9648820763823266  0.3821003983683717  0.36403786824918094  1.0000
  O   O2        1.0  0.9648526984792934  0.36839946826616354  0.7416460129682618  1.0000
  O   O3        1.0  0.964893036197409  0.5640705146637461  0.54585625758159  1.0000
  O   O4        1.0  0.964841682496097  0.18642936389687922  0.5598275270859234  1.0000
  O   O5        1.0  0.8399407515350549  0.5699951012305864  0.5476904244835739  1.0000
  O   O6        1.0  0.8399004140379123  0.3743256152389115  0.7434801099702921  1.0000
  O   O7        1.0  0.8399297921081269  0.38802649961764346  0.3658704039360088  1.0000
  O   O8        1.0  0.8398893982098161  0.1923554558855456  0.5616601601403612  1.0000
