data_image0
_chemical_formula_structural       NC14NH8C12H10C12H10Zn2C4O8
_chemical_formula_sum              "N2 C42 H28 Zn2 O8"
_cell_length_a       19.240038476842887
_cell_length_b       14.994056859933254
_cell_length_c       13.024585202197205
_cell_angle_alpha    85.82059027263038
_cell_angle_beta     93.9928008550644
_cell_angle_gamma    89.98001376641487

_space_group_name_H-M_alt    "P 1"
_space_group_IT_number       1

loop_
  _space_group_symop_operation_xyz
  'x, y, z'

loop_
  _atom_site_type_symbol
  _atom_site_label
  _atom_site_symmetry_multiplicity
  _atom_site_fract_x
  _atom_site_fract_y
  _atom_site_fract_z
  _atom_site_occupancy
  N   N1        1.0  0.6007165599359464  0.9722679038932994  0.8650984850816974  1.0000
  C   C1        1.0  0.5405679448334382  0.972269696259195  0.8650933449822911  1.0000
  C   C2        1.0  0.46574964880082403  0.9722720650695545  0.8650868561904873  1.0000
  C   C3        1.0  0.4290009633305609  0.8921077911169533  0.8588119741441792  1.0000
  C   C4        1.0  0.3563279204373234  0.8920288491854237  0.858761737918205  1.0000
  C   C5        1.0  0.31941692995683446  0.9722760394991731  0.8650790032114193  1.0000
  C   C6        1.0  0.35688183127820833  0.052521611452866164  0.8713984860306014  1.0000
  C   C7        1.0  0.4295505635482916  0.05243863768671722  0.8713563292261184  1.0000
  C   C8        1.0  0.2422119573169736  0.9722773280914678  0.8650794056757771  1.0000
  C   C9        1.0  0.2080932565502488  0.025920698759178008  0.9304807501953354  1.0000
  C   C10       1.0  0.1354208619155743  0.025835887892516018  0.9304431419340065  1.0000
  C   C11       1.0  0.09588003131967222  0.9722740572271498  0.8650872429697058  1.0000
  C   C12       1.0  0.12928647636987822  0.9187148267201852  0.7997262685302488  1.0000
  C   C13       1.0  0.20195504243553833  0.9186335323257191  0.7996805921195909  1.0000
  C   C14       1.0  0.021062383744023215  0.9722708234721972  0.8650933877933871  1.0000
  N   N2        1.0  0.9609142532076563  0.9722682680762996  0.8650985120071628  1.0000
  H   H1        1.0  0.45651559695891347  0.8296188239411402  0.8542212595137438  1.0000
  H   H2        1.0  0.3290820256432284  0.8290397044612139  0.8551772618426332  1.0000
  H   H3        1.0  0.3299409738479463  0.1155122357872903  0.8749805469734496  1.0000
  H   H4        1.0  0.4574658481135154  0.11492595483241823  0.8759511806392384  1.0000
  H   H5        1.0  0.23763560263403924  0.06703011666676173  0.9826576349089683  1.0000
  H   H6        1.0  0.11010551196086636  0.06736956618745471  0.9815727120021843  1.0000
  H   H7        1.0  0.09917213168119349  0.8771790939541647  0.7486005982836219  1.0000
  H   H8        1.0  0.22659928737924967  0.8775247931258681  0.7475016083575676  1.0000
  C   C15       1.0  0.7808806180993967  0.7103038265269754  0.865024872991897  1.0000
  C   C16       1.0  0.8093563380169645  0.6677320093111875  0.7848303368856292  1.0000
  C   C17       1.0  0.809352196805507  0.5745075079196923  0.7848877840138864  1.0000
  C   C18       1.0  0.7808290873210801  0.5218038212856457  0.8650678888428771  1.0000
  C   C19       1.0  0.7523393204107768  0.5644786612399985  0.9452064119494354  1.0000
  C   C20       1.0  0.7523955689335453  0.6577038012984191  0.9451948140656508  1.0000
  C   C21       1.0  0.7807938126000195  0.4227271719125151  0.8651124785645141  1.0000
  C   C22       1.0  0.7225230658460763  0.37323461537715186  0.8947798577337478  1.0000
  C   C23       1.0  0.7224836737156829  0.2800139158534619  0.8947774849046906  1.0000
  C   C24       1.0  0.7807572589778486  0.2342255442831816  0.8651810433490701  1.0000
  C   C25       1.0  0.8390155895724976  0.2836116661966333  0.8355672840018735  1.0000
  C   C26       1.0  0.839031668938857  0.37684114077360664  0.8354874527327123  1.0000
  H   H9        1.0  0.752090392847418  0.9180229797401134  0.9460130026919668  1.0000
  H   H10       1.0  0.8315243787248496  0.7064452090922994  0.7217814463104211  1.0000
  H   H11       1.0  0.8308604833133248  0.5436860037404859  0.7213710021039665  1.0000
  H   H12       1.0  0.7308076324172701  0.5257003147391635  0.008752012633774127  1.0000
  H   H13       1.0  0.7302483474154778  0.6884914461235112  0.008223528263552552  1.0000
  H   H14       1.0  0.6765209949539265  0.40670014227589885  0.9167050349980121  1.0000
  H   H15       1.0  0.6767010337823403  0.24384981489379406  0.9177278762919547  1.0000
  H   H16       1.0  0.8847814907041404  0.2502744210481688  0.8126442464139485  1.0000
  H   H17       1.0  0.8850565706146472  0.4129754834805522  0.8135323750254049  1.0000
  H   H18       1.0  0.839612234702068  0.02326095925242197  0.8352442489734943  1.0000
  C   C27       1.0  0.7665731028041908  0.9711940045617352  0.5628837442599015  1.0000
  C   C28       1.0  0.7511911751332371  0.04247914335109005  0.4884751982486939  1.0000
  C   C29       1.0  0.7749382978910296  0.041113383589588735  0.3895946938553745  1.0000
  C   C30       1.0  0.8140105101849042  0.968223392567559  0.36312573124457465  1.0000
  C   C31       1.0  0.8300525368420725  0.8974458325896074  0.4374612426217742  1.0000
  C   C32       1.0  0.8063404219603797  0.8987367285515606  0.5363849883928848  1.0000
  C   C33       1.0  0.8401485009508208  0.9674000994289865  0.2589254167845516  1.0000
  C   C34       1.0  0.9126365385547877  0.964491776551077  0.251242343997663  1.0000
  C   C35       1.0  0.9405750011622329  0.9692223086903566  0.15501942756586407  1.0000
  C   C36       1.0  0.8966125304617556  0.977106228972305  0.06517318710167475  1.0000
  C   C37       1.0  0.8244818021247502  0.9791804760977912  0.07111338633567389  1.0000
  C   C38       1.0  0.7950647354986533  0.9733353448210198  0.1673221194766592  1.0000
  H   H19       1.0  0.740223391071288  0.9015382707633186  0.8128054043528057  1.0000
  H   H20       1.0  0.7209335636861127  0.09942517706782938  0.5066749536816457  1.0000
  H   H21       1.0  0.7629599653614172  0.09695991905443285  0.3336139270927478  1.0000
  H   H22       1.0  0.8606014367345771  0.8409607393260772  0.4185802632482661  1.0000
  H   H23       1.0  0.8192171544261085  0.8429849200648548  0.5920476370162268  1.0000
  H   H24       1.0  0.9477503764353439  0.960138849844453  0.32018789913268075  1.0000
  H   H25       1.0  0.9964833466663833  0.967452747164111  0.15013770753458444  1.0000
  H   H26       1.0  0.9184472722408532  0.9810400794681833  0.9906074152223465  1.0000
  H   H27       1.0  0.7915696293716322  0.983725102277102  0.9999819095006269  1.0000
  H   H28       1.0  0.6239504618071336  0.00442565465001632  0.08279684472628791  1.0000
  Zn  Zn1       1.0  0.7046621112158148  0.9722656447723698  0.865104434530959  1.0000
  Zn  Zn2       1.0  0.8569690775827721  0.9722632677601448  0.8651009877165283  1.0000
  C   C39       1.0  0.7896785143740905  0.9693767541511776  0.05306929036204111  1.0000
  C   C40       1.0  0.7719543421082283  0.9751532842894726  0.6771362331952004  1.0000
  C   C41       1.0  0.7805836740767761  0.13517863590311396  0.8610503959064595  1.0000
  C   C42       1.0  0.7810491332725693  0.8093503309528437  0.8691551822012968  1.0000
  O   O1        1.0  0.8315600360751533  0.9764772608438282  0.7154791029832299  1.0000
  O   O2        1.0  0.8456702699300287  0.9680502994735591  0.014723508063409618  1.0000
  O   O3        1.0  0.8383253426451349  0.1019374196424916  0.8596668925190762  1.0000
  O   O4        1.0  0.8389049077491157  0.8425901467838347  0.8705356413652159  1.0000
  O   O5        1.0  0.7227262290743226  0.10193876575044224  0.8596697808780343  1.0000
  O   O6        1.0  0.7300711535170414  0.9680527171679643  0.014726341867616462  1.0000
  O   O7        1.0  0.7159608613904317  0.9764796430681516  0.7154806994322487  1.0000
  O   O8        1.0  0.7233057367001774  0.8425925229009816  0.870537314972345  1.0000
