data_image0
_chemical_formula_structural       NC8NH4C6H6C12H9Zn2C4O8
_chemical_formula_sum              "N2 C30 H19 Zn2 O8"
_cell_length_a       14.927258825633057
_cell_length_b       10.681118228259551
_cell_length_c       13.024585202197207
_cell_angle_alpha    85.80459198147678
_cell_angle_beta     93.99279185103242
_cell_angle_gamma    89.99830707925858

_space_group_name_H-M_alt    "P 1"
_space_group_IT_number       1

loop_
  _space_group_symop_operation_xyz
  'x, y, z'

loop_
  _atom_site_type_symbol
  _atom_site_label
  _atom_site_symmetry_multiplicity
  _atom_site_fract_x
  _atom_site_fract_y
  _atom_site_fract_z
  _atom_site_occupancy
  N   N1        1.0  0.7745704717100207  0.36488565968282605  0.8648087074808122  1.0000
  C   C1        1.0  0.6970440477816398  0.36488563674703806  0.8648087143721018  1.0000
  C   C2        1.0  0.6006114084252246  0.3648856366910114  0.8648087536993703  1.0000
  C   C3        1.0  0.5496679494893218  0.28787623887813885  0.8007360596061555  1.0000
  C   C4        1.0  0.4559566367002528  0.2878761607690496  0.8007360392823272  1.0000
  C   C5        1.0  0.4127954072061124  0.3648856824407629  0.8648086909992331  1.0000
  C   C6        1.0  0.4637388614576357  0.4418950888270019  0.9288813079325182  1.0000
  C   C7        1.0  0.5574502412384976  0.4418951669335367  0.928881328260577  1.0000
  C   C8        1.0  0.3163627630811783  0.36488559747445737  0.864808651773704  1.0000
  N   N2        1.0  0.23883633923693676  0.3648856680223149  0.8648086600578614  1.0000
  H   H1        1.0  0.5823365530240138  0.22795841116067495  0.750883921153751  1.0000
  H   H2        1.0  0.41723290135931757  0.22795839094779866  0.7508839905747091  1.0000
  H   H3        1.0  0.4310702579229439  0.5018129165444657  0.9787334463849231  1.0000
  H   H4        1.0  0.5961739142720195  0.5018129281839754  0.9787334541238948  1.0000
  C   C9        1.0  0.006707983514938193  0.9971356603743166  0.8648131238760415  1.0000
  C   C10       1.0  0.05100042263351012  0.9230288605975163  0.9465451463111524  1.0000
  C   C11       1.0  0.05100040607849146  0.7921466221877208  0.9465450992586192  1.0000
  C   C12       1.0  0.006707971177269088  0.732626064552393  0.8648131683650901  1.0000
  C   C13       1.0  0.9624521903893616  0.8067218004401845  0.7831486871551414  1.0000
  C   C14       1.0  0.9624522065785468  0.9376140587467569  0.7831487289247291  1.0000
  H   H5        1.0  0.9619161223029947  0.30322073048926756  0.7821603454035315  1.0000
  H   H6        1.0  0.08571897731124767  0.9661230881779752  0.01061053095855924  1.0000
  H   H7        1.0  0.08571886606527569  0.7376190594918294  0.01061051277928704  1.0000
  H   H8        1.0  0.9277291081820225  0.7636730743120177  0.7190749375474993  1.0000
  H   H9        1.0  0.9277290841915382  0.9920975133042962  0.7190749291791587  1.0000
  H   H10       1.0  0.9619164352134516  0.44129137821522757  0.7821600670072775  1.0000
  C   C15       1.0  0.9883459155473483  0.36337784755043373  0.5625942633264437  1.0000
  C   C16       1.0  0.9685414780121989  0.46344918759231724  0.4881644796326345  1.0000
  C   C17       1.0  0.9991491985029337  0.4615318739982157  0.3892843788386777  1.0000
  C   C18       1.0  0.04948802417970755  0.3592075782834945  0.3628371287568975  1.0000
  C   C19       1.0  0.07014343035084192  0.25984878518776333  0.4371937264877168  1.0000
  C   C20       1.0  0.03958080948371224  0.2616610036256579  0.5361170909606726  1.0000
  C   C21       1.0  0.08317754622645457  0.3580517851052958  0.2586370559289977  1.0000
  C   C22       1.0  0.1766079251953987  0.3539689200804234  0.250954839508154  1.0000
  C   C23       1.0  0.21261979629896888  0.3606096805808072  0.1547305096591667  1.0000
  C   C24       1.0  0.15595809311019845  0.37167733208545967  0.06488192631054024  1.0000
  C   C25       1.0  0.06298800399180426  0.37458930652939365  0.07082151764626633  1.0000
  C   C26       1.0  0.02506999276173105  0.3663838546526383  0.16703199651387268  1.0000
  H   H11       1.0  0.9543621143375957  0.2655939583548128  0.8125366814751989  1.0000
  H   H12       1.0  0.9295591268266712  0.5433910655133807  0.5063472718977102  1.0000
  H   H13       1.0  0.9837270368264899  0.539930229219254  0.3332869739416732  1.0000
  H   H14       1.0  0.10950136883820183  0.18055398303910475  0.4183295729011165  1.0000
  H   H15       1.0  0.056160965305524176  0.18339562640893028  0.5917963493676587  1.0000
  H   H16       1.0  0.22186552252643654  0.3478581522426658  0.31990168668990204  1.0000
  H   H17       1.0  0.2846806286484984  0.3581254538790515  0.14984930902291427  1.0000
  H   H18       1.0  0.18410251627437457  0.3771997063836671  0.9903149792479479  1.0000
  H   H19       1.0  0.8045268648478195  0.41002923346235853  0.08249748226137799  1.0000
  Zn  Zn1       1.0  0.9085479424600686  0.36488232935973985  0.8648146429959478  1.0000
  Zn  Zn2       1.0  0.10485939503923915  0.36487875959554095  0.8648111754863916  1.0000
  C   C27       1.0  0.01812638481879181  0.3608267245189891  0.05278034764253137  1.0000
  C   C28       1.0  0.9952831025326471  0.3689359450031477  0.6768455718138575  1.0000
  C   C29       1.0  0.006454180624889688  0.5935823010952863  0.8607120527777377  1.0000
  C   C30       1.0  0.00695524307290364  0.13617886411771438  0.8689139215484576  1.0000
  O   O1        1.0  0.07211045902513402  0.3707944751608611  0.7151880387386937  1.0000
  O   O2        1.0  0.09029486049626788  0.3589645387834788  0.014434952700802865  1.0000
  O   O3        1.0  0.08086846872783182  0.5469176158050593  0.8593384457002466  1.0000
  O   O4        1.0  0.08153677911739751  0.18284140671520177  0.8702844685750901  1.0000
  O   O5        1.0  0.9318704913901177  0.5469196822426341  0.8593413499030192  1.0000
  O   O6        1.0  0.9412968798204059  0.35896810953274394  0.014437802029538926  1.0000
  O   O7        1.0  0.9231124032309199  0.370797996116698  0.7151896507228185  1.0000
  O   O8        1.0  0.9325387280075624  0.18284491909767195  0.8702861577191442  1.0000
