data_image0
_chemical_formula_structural       NC8NC6H8C6NH6C7OH5Zn2C4O8
_chemical_formula_sum              "N3 C31 H19 O9 Zn2"
_cell_length_a       17.457602349358154
_cell_length_b       9.274771166103582
_cell_length_c       9.274081674992354
_cell_angle_alpha    85.96953540669611
_cell_angle_beta     92.53340075860572
_cell_angle_gamma    92.29117059398062

_space_group_name_H-M_alt    "P 1"
_space_group_IT_number       1

loop_
  _space_group_symop_operation_xyz
  'x, y, z'

loop_
  _atom_site_type_symbol
  _atom_site_label
  _atom_site_symmetry_multiplicity
  _atom_site_fract_x
  _atom_site_fract_y
  _atom_site_fract_z
  _atom_site_occupancy
  N   N1        1.0  0.7359941992524526  0.6007172145265363  0.4738837683576671  1.0000
  C   C1        1.0  0.6746677968115639  0.5495905256248153  0.46217323931072846  1.0000
  C   C2        1.0  0.5983751726010272  0.4859953663587323  0.44761591997835043  1.0000
  C   C3        1.0  0.539844687387021  0.5313455444143218  0.5306590426020721  1.0000
  C   C4        1.0  0.46500118956744285  0.4701097780101546  0.5167803297532907  1.0000
  C   C5        1.0  0.4028789075537387  0.5179952123791287  0.6047263359743049  1.0000
  C   C6        1.0  0.3286326658371934  0.5379701416355167  0.5428265297473289  1.0000
  C   C7        1.0  0.27010068013841565  0.5831170296570349  0.6259897053007808  1.0000
  C   C8        1.0  0.1944274280906766  0.6037434692037842  0.5616308353822612  1.0000
  N   N2        1.0  0.1335990100057173  0.6203200401878639  0.5098864810295658  1.0000
  C   C9        1.0  0.2853225782387711  0.608564077172346  0.771616551981497  1.0000
  C   C10       1.0  0.3587852262522256  0.5890250928919678  0.8339458404811809  1.0000
  C   C11       1.0  0.4173051914458152  0.5440827082219981  0.7512902624210318  1.0000
  C   C12       1.0  0.44997742056633366  0.3627572481757486  0.4182696034697754  1.0000
  C   C13       1.0  0.5084965745566212  0.31772058458740526  0.3356698909921241  1.0000
  C   C14       1.0  0.5825541646862425  0.3790865619033637  0.35015863387845836  1.0000
  H   H1        1.0  0.5524310641486223  0.6155364431284753  0.6044775677724077  1.0000
  H   H2        1.0  0.31653586459992183  0.520343538119761  0.429647483741179  1.0000
  H   H3        1.0  0.24045602836554636  0.643448561347306  0.8368520264878752  1.0000
  H   H4        1.0  0.3703791930875093  0.6083786285428678  0.9467084238918093  1.0000
  H   H5        1.0  0.4735441307445674  0.5278761556561528  0.8024699220357534  1.0000
  H   H6        1.0  0.39324806230026804  0.3122853322759851  0.40651812593173564  1.0000
  H   H7        1.0  0.4964349121919923  0.23475840059883188  0.2605201118310858  1.0000
  H   H8        1.0  0.6274136746046786  0.3432408201862016  0.28549156858582436  1.0000
  C   C15       1.0  0.9324424839463569  0.18681301593446473  0.4924575939369693  1.0000
  C   C16       1.0  0.915175907843281  0.2681189863014857  0.3619997992922608  1.0000
  C   C17       1.0  0.9050749573183979  0.20141279496244577  0.23137306615646147  1.0000
  C   C18       1.0  0.9122836317224617  0.052016889312571875  0.23026850881747915  1.0000
  C   C19       1.0  0.9281368317791754  0.9693059900362624  0.3588276925441416  1.0000
  C   C20       1.0  0.9371579689282278  0.0342136131909534  0.49132582689696286  1.0000
  N   N3        1.0  0.8882840146564888  0.28582905743076936  0.09954171633214258  1.0000
  H   H9        1.0  0.0178363610431922  0.2735015151048068  0.8156339874578135  1.0000
  H   H10       1.0  0.9113091979396645  0.3845161107631712  0.36109600846549966  1.0000
  H   H11       1.0  0.9048750872437435  0.9992728243571793  0.12979729658755823  1.0000
  H   H12       1.0  0.9315303597636115  0.8532724052361444  0.3550070081407568  1.0000
  H   H13       1.0  0.8829981617086399  0.3976419361736667  0.09901627286380066  1.0000
  H   H14       1.0  0.8809405631948065  0.23712658563092456  0.0014467758844183226  1.0000
  C   C21       1.0  0.9360739552580313  0.6067948053602249  0.06874425897049362  1.0000
  C   C22       1.0  0.9987322818948104  0.6726613279523006  0.1428284734652201  1.0000
  C   C23       1.0  0.05710514914483357  0.7489580064555322  0.06749603474252751  1.0000
  C   C24       1.0  0.05280630508331832  0.7597786868329857  0.9159637771901207  1.0000
  C   C25       1.0  0.9917510846200739  0.6931687359192416  0.8408234083702966  1.0000
  C   C26       1.0  0.9335264905653351  0.6142317735652258  0.9150390878321497  1.0000
  C   C27       1.0  0.12156836037804708  0.8177849819788963  0.1486572463753495  1.0000
  O   O1        1.0  0.1747416399605937  0.8876110798447567  0.0840086506027331  1.0000
  H   H15       1.0  0.7537740077948982  0.5041049490907756  0.16377838613253748  1.0000
  H   H16       1.0  0.0012374990106998032  0.667430458344564  0.26010450729295  1.0000
  H   H17       1.0  0.09704954427669214  0.8186125671096602  0.8552578540232918  1.0000
  H   H18       1.0  0.8119685120256479  0.5392252242090609  0.6290747686864511  1.0000
  H   H19       1.0  0.12375396201768973  0.8087225124088642  0.26577921266573057  1.0000
  Zn  Zn1       1.0  0.8507343123559551  0.606370370353172  0.4842816986183268  1.0000
  Zn  Zn2       1.0  0.018858781311827503  0.6146551581659505  0.49950036387749236  1.0000
  C   C28       1.0  0.9339743140149348  0.607077927955509  0.755078799960571  1.0000
  C   C29       1.0  0.9356206252716653  0.6139495128037555  0.22870356772133335  1.0000
  C   C30       1.0  0.9362799681469239  0.8739861762298896  0.4857972660000749  1.0000
  C   C31       1.0  0.9333149038929122  0.34703952886099754  0.49798517562770955  1.0000
  O   O2        1.0  0.9992708083399725  0.6194884370668703  0.2881627855448541  1.0000
  O   O3        1.0  0.9979267079403206  0.6078258738157696  0.707169783586173  1.0000
  O   O4        1.0  0.9997876882144114  0.8233576305964767  0.48972295984143654  1.0000
  O   O5        1.0  0.9974097710790462  0.40395668683124436  0.5056094960407562  1.0000
  O   O6        1.0  0.8721832652161384  0.8170688388621913  0.4781725612540979  1.0000
  O   O7        1.0  0.8703222948162128  0.6015388149241736  0.6956193058519893  1.0000
  O   O8        1.0  0.8716664002020258  0.6132013126735801  0.276610575432129  1.0000
  O   O9        1.0  0.869805362555336  0.39766955306718577  0.49405739397590115  1.0000
