data_image0
_chemical_formula_structural       NC8NC6H8C6FH4C7H7Zn2C4O8
_chemical_formula_sum              "N2 C31 H19 F1 Zn2 O8"
_cell_length_a       17.457602349358154
_cell_length_b       9.275642734913903
_cell_length_c       9.274345330872308
_cell_angle_alpha    85.0458555401147
_cell_angle_beta     92.4462132353122
_cell_angle_gamma    92.2944494432906

_space_group_name_H-M_alt    "P 1"
_space_group_IT_number       1

loop_
  _space_group_symop_operation_xyz
  'x, y, z'

loop_
  _atom_site_type_symbol
  _atom_site_label
  _atom_site_symmetry_multiplicity
  _atom_site_fract_x
  _atom_site_fract_y
  _atom_site_fract_z
  _atom_site_occupancy
  N   N1        1.0  0.7377872977778814  0.6259245156701143  0.4727164926528322  1.0000
  C   C1        1.0  0.676472201696286  0.5749991972798214  0.4609719220649242  1.0000
  C   C2        1.0  0.6001936308456268  0.5116543659996173  0.446372270084763  1.0000
  C   C3        1.0  0.5415706983389404  0.5556163024475702  0.5295313072613763  1.0000
  C   C4        1.0  0.4667405753560017  0.49461927051636506  0.5156119957485454  1.0000
  C   C5        1.0  0.4045203824401118  0.5410345190174688  0.6036807038776539  1.0000
  C   C6        1.0  0.3303451306238499  0.5620374968812052  0.5417157702615683  1.0000
  C   C7        1.0  0.27172055358432545  0.60579417003947  0.624994921585798  1.0000
  C   C8        1.0  0.1961211061245063  0.6274895167774339  0.5605682808098387  1.0000
  N   N2        1.0  0.13535202645326194  0.6449254870832295  0.5087694360933097  1.0000
  C   C9        1.0  0.2867782414538649  0.6288135320029955  0.7708036454977627  1.0000
  C   C10       1.0  0.3601694292390412  0.6082392941768697  0.8331987405472552  1.0000
  C   C11       1.0  0.41878141788118367  0.564678647911389  0.7504278664801902  1.0000
  C   C12       1.0  0.451824401219375  0.38892026576817584  0.41694257841788285  1.0000
  C   C13       1.0  0.5104355116390964  0.34526442230691945  0.33422759854724293  1.0000
  C   C14       1.0  0.5844790399697708  0.4063814926304421  0.3487577113216529  1.0000
  H   H1        1.0  0.5540765943569749  0.6385676708999359  0.603470229002492  1.0000
  H   H2        1.0  0.3183760343509698  0.5462973854908433  0.4283962226574318  1.0000
  H   H3        1.0  0.24183903989432787  0.662607559929784  0.836129884923372  1.0000
  H   H4        1.0  0.37163623033404614  0.6257130549022583  0.9461020173791573  1.0000
  H   H5        1.0  0.47496167365163017  0.5476220510979445  0.8016614966095137  1.0000
  H   H6        1.0  0.3951064210914814  0.3386503200851283  0.40515727005278457  1.0000
  H   H7        1.0  0.4984558876809289  0.26356377828530664  0.25895633827580267  1.0000
  H   H8        1.0  0.629410519604987  0.37161686432003  0.28400017145011347  1.0000
  C   C15       1.0  0.9341985020996314  0.2117629433934054  0.4911484931932273  1.0000
  C   C16       1.0  0.9198893023153714  0.29538957945869915  0.3594727756464222  1.0000
  C   C17       1.0  0.912814573180572  0.23076869060244623  0.22889831322888335  1.0000
  C   C18       1.0  0.9200011662360413  0.08183556470851228  0.22769887779831266  1.0000
  C   C19       1.0  0.9329322165507673  0.9965690227803061  0.357230734700811  1.0000
  C   C20       1.0  0.9389480565889485  0.05907617424566559  0.49035056918248676  1.0000
  F   F1        1.0  0.8998657116656248  0.31320453504204676  0.1028889630280907  1.0000
  H   H9        1.0  0.012136747930263644  0.292166928849698  0.8205793923437958  1.0000
  H   H10       1.0  0.9159800362735149  0.41184225536567376  0.3572712274541947  1.0000
  H   H11       1.0  0.9148176078359482  0.03189884365430085  0.12629419061971792  1.0000
  H   H12       1.0  0.936412992238692  0.8806058070534246  0.3535799558841304  1.0000
  C   C21       1.0  0.9383268665869396  0.6387463904251889  0.0671014040685769  1.0000
  C   C22       1.0  0.8932197200886353  0.7381847732847122  0.1281231096058657  1.0000
  C   C23       1.0  0.8434612205121496  0.8258017357331677  0.04144663792779979  1.0000
  C   C24       1.0  0.837040288175118  0.8148845205721696  0.8919355402101039  1.0000
  C   C25       1.0  0.8833596657849553  0.7195593761565319  0.8290135973774753  1.0000
  C   C26       1.0  0.9348196512761515  0.632092743011395  0.9143976383486515  1.0000
  C   C27       1.0  0.7847242337083705  0.911466041104518  0.7985187746245579  1.0000
  H   H13       1.0  0.024633681293394286  0.32871511806324905  0.2037201892730942  1.0000
  H   H14       1.0  0.8952164160833153  0.7460199551398325  0.24410994581683854  1.0000
  H   H15       1.0  0.8092658123849281  0.9012133459947422  0.09139610933071585  1.0000
  H   H16       1.0  0.8804370198118009  0.7161312428615237  0.7123612702717597  1.0000
  H   H17       1.0  0.8166139801985179  0.013132081167023017  0.7621414232256991  1.0000
  H   H18       1.0  0.7345468005711236  0.9384477363222608  0.859500774430245  1.0000
  H   H19       1.0  0.7628736943432529  0.857120498493247  0.7020129687089285  1.0000
  Zn  Zn1       1.0  0.8525158344689624  0.6314038512352698  0.4831289267484282  1.0000
  Zn  Zn2       1.0  0.020623360317772576  0.639434230119045  0.49836882440457786  1.0000
  C   C28       1.0  0.9354486796557738  0.6276029010193072  0.7542457943291687  1.0000
  C   C29       1.0  0.9376923604775544  0.6432370872546211  0.22725226312645333  1.0000
  C   C30       1.0  0.9380701230637765  0.8989608964212885  0.48475214967135866  1.0000
  C   C31       1.0  0.9350708496717658  0.3718773551706147  0.49674598113076335  1.0000
  O   O1        1.0  0.001275309110050141  0.6477853990055811  0.28678382208661324  1.0000
  O   O2        1.0  0.9994554490173893  0.6291483759197434  0.7062805507964507  1.0000
  O   O3        1.0  0.0015714315131076797  0.8482733361356016  0.4886624466454252  1.0000
  O   O4        1.0  0.9991592697562156  0.4286604472194296  0.5044018128577827  1.0000
  O   O5        1.0  0.873979867663711  0.8421776313961413  0.47709593308700476  1.0000
  O   O6        1.0  0.8718638951989703  0.6230544051235634  0.6947139586833111  1.0000
  O   O7        1.0  0.8736837622404157  0.6416913915577613  0.27521549552516067  1.0000
  O   O8        1.0  0.8715677223778888  0.42256642860315907  0.4928335944679674  1.0000
