data_image0
_chemical_formula_structural       NC9NC3NH7C8NH7C8NH7Zn2C4O8
_chemical_formula_sum              "N5 C32 H21 Zn2 O8"
_cell_length_a       16.053384444249904
_cell_length_b       9.274263428431858
_cell_length_c       9.274266800404106
_cell_angle_alpha    85.95096221083165
_cell_angle_beta     89.35588104550887
_cell_angle_gamma    89.79185309571561

_space_group_name_H-M_alt    "P 1"
_space_group_IT_number       1

loop_
  _space_group_symop_operation_xyz
  'x, y, z'

loop_
  _atom_site_type_symbol
  _atom_site_label
  _atom_site_symmetry_multiplicity
  _atom_site_fract_x
  _atom_site_fract_y
  _atom_site_fract_z
  _atom_site_occupancy
  N   N1        1.0  0.801297664089935  0.5470530263576181  0.4055226731784767  1.0000
  C   C1        1.0  0.750774651270535  0.5233122216060766  0.32246161526435335  1.0000
  C   C2        1.0  0.6879882070953426  0.49381418201270433  0.21927953759606988  1.0000
  C   C3        1.0  0.7021785388785002  0.4793035862232676  0.07418073373121059  1.0000
  C   C4        1.0  0.6256417421624685  0.4507386001664289  0.016201871651962074  1.0000
  C   C5        1.0  0.5680221131193353  0.449410967303431  0.12905497721350523  1.0000
  C   C6        1.0  0.4772565103170626  0.422870987159387  0.11770081356546891  1.0000
  C   C7        1.0  0.4211841591290321  0.4710927923905284  0.22189908685024928  1.0000
  C   C8        1.0  0.3355287763112683  0.44592128607811593  0.21102376137881573  1.0000
  C   C9        1.0  0.2786765021929242  0.49610069920823896  0.3178533383959557  1.0000
  N   N2        1.0  0.23298396915181838  0.5364378586370848  0.40372758781551155  1.0000
  C   C10       1.0  0.3052188720023563  0.3724037301309853  0.09596547138580913  1.0000
  C   C11       1.0  0.3602824349087912  0.3243165356704515  0.992002044854373  1.0000
  C   C12       1.0  0.4457326983237383  0.34930067020782507  0.0024373137369564386  1.0000
  N   N3        1.0  0.6068092391184406  0.4758588841505781  0.2528578640873336  1.0000
  H   H1        1.0  0.7612319032351365  0.4884593439529181  0.0168820015760609  1.0000
  H   H2        1.0  0.613794309175222  0.43459321810841006  0.9039124400823195  1.0000
  H   H3        1.0  0.443463694981838  0.5300190917229817  0.31042947813175165  1.0000
  H   H4        1.0  0.2391147855060725  0.35238068759610897  0.08662029984081566  1.0000
  H   H5        1.0  0.3367250839847788  0.26721146525041983  0.9032107521130164  1.0000
  H   H6        1.0  0.4869748160308349  0.3093241556765038  0.9211639924124531  1.0000
  H   H7        1.0  0.580195775312522  0.4792674228004046  0.3558149726158746  1.0000
  C   C13       1.0  0.014507509504551491  0.11822904835039294  0.4049424038847218  1.0000
  C   C14       1.0  0.00433261552222097  0.20085852526673012  0.27324400612184485  1.0000
  C   C15       1.0  0.0023223056987087282  0.1350250599278216  0.14270420279774432  1.0000
  C   C16       1.0  0.011114280505814422  0.9850118796908558  0.1406311080692304  1.0000
  C   C17       1.0  0.019057667478971533  0.9009260961784105  0.27145515245080953  1.0000
  C   C18       1.0  0.019781956842443323  0.9652507228235276  0.40432029724923135  1.0000
  C   C19       1.0  0.007703652830427952  0.9140611969935232  0.9999983355515143  1.0000
  C   C20       1.0  0.9214219062304275  0.8770080807716005  0.968319742145634  1.0000
  N   N4        1.0  0.8533215206660195  0.8477615722424267  0.943326036452178  1.0000
  H   H8        1.0  0.08489833188110961  0.1972382426569208  0.7369899383582424  1.0000
  H   H9        1.0  0.9997385429789607  0.31757282222735994  0.27090218212824624  1.0000
  H   H10       1.0  0.9946870681851235  0.20139722865477427  0.04283834050183222  1.0000
  H   H11       1.0  0.02266284289290876  0.7843337506761823  0.26954138535403205  1.0000
  H   H12       1.0  0.06392324793788573  0.6683501441502211  0.6298448248280861  1.0000
  H   H13       1.0  0.046163081971160924  0.8140417174271561  0.005416892832049267  1.0000
  H   H14       1.0  0.03270569271346502  0.9875917666098921  0.9101876137067824  1.0000
  C   C21       1.0  0.0190408925504204  0.5385394443818943  0.9813149638097274  1.0000
  C   C22       1.0  0.9699928107401412  0.43648684715625974  0.06274156226673422  1.0000
  C   C23       1.0  0.9159741300967211  0.34577460893035267  0.9951343789250489  1.0000
  C   C24       1.0  0.909213276309976  0.3557448195145915  0.8444576843543805  1.0000
  C   C25       1.0  0.9593834013849198  0.45432134212197545  0.7617226120988528  1.0000
  C   C26       1.0  0.015248543962039783  0.5449402799954897  0.8279476798057441  1.0000
  C   C27       1.0  0.8518508253953359  0.25640900816382245  0.7716857970036158  1.0000
  C   C28       1.0  0.896136072218459  0.12344918073103188  0.7403799838392437  1.0000
  N   N5        1.0  0.9310934706795245  0.018513032080809348  0.7156696319882032  1.0000
  H   H15       1.0  0.11277639629217906  0.8536947158224315  0.060135544991385625  1.0000
  H   H16       1.0  0.9720729514532811  0.4289652650730782  0.1797522280465527  1.0000
  H   H17       1.0  0.8787276706968158  0.268492744788834  0.06058863972278506  1.0000
  H   H18       1.0  0.9561600138763867  0.4576917856335516  0.6448426884695735  1.0000
  H   H19       1.0  0.08136676047584857  0.754248752484864  0.5311833064421214  1.0000
  H   H20       1.0  0.8284204811701299  0.3098011235937188  0.6689767724708924  1.0000
  H   H21       1.0  0.7970352937653425  0.22811982734257932  0.8420963039179026  1.0000
  Zn  Zn1       1.0  0.9258729433182984  0.5439859348299174  0.40501297013276494  1.0000
  Zn  Zn2       1.0  0.10840854052375737  0.5394932895322092  0.4042490812197934  1.0000
  C   C29       1.0  0.01592776198786217  0.537984978804162  0.6679202251395366  1.0000
  C   C30       1.0  0.018355725834915623  0.5454960172816992  0.14134195802153848  1.0000
  C   C31       1.0  0.01880641286135054  0.8051022361217566  0.39869349141988786  1.0000
  C   C32       1.0  0.01547700154067466  0.2783770293368842  0.4105687701288403  1.0000
  O   O1        1.0  0.08739704629339928  0.5461194793214603  0.1947585919035597  1.0000
  O   O2        1.0  0.08542673130585432  0.533950611801179  0.6139234030808367  1.0000
  O   O3        1.0  0.0877503377672626  0.7496512095595607  0.3965209135849175  1.0000
  O   O4        1.0  0.08507337809334614  0.3304188925958946  0.4121609735674794  1.0000
  O   O5        1.0  0.9492080434583127  0.7530603333008636  0.397101078038173  1.0000
  O   O6        1.0  0.9468844481272596  0.5373614677043337  0.6145034893995334  1.0000
  O   O7        1.0  0.9488547706205166  0.5495302718626127  0.19533694511694644  1.0000
  O   O8        1.0  0.9465311018687115  0.33382967563886234  0.4127394348659601  1.0000
