data_image0
_chemical_formula_structural       NC6NCNCH5C9H8C7OH6Zn2C4O8
_chemical_formula_sum              "N3 C28 H19 O9 Zn2"
_cell_length_a       14.933214217465613
_cell_length_b       9.275152443626249
_cell_length_c       9.274074313596557
_cell_angle_alpha    85.92156872667384
_cell_angle_beta     90.19933690330467
_cell_angle_gamma    90.60755784757023

_space_group_name_H-M_alt    "P 1"
_space_group_IT_number       1

loop_
  _space_group_symop_operation_xyz
  'x, y, z'

loop_
  _atom_site_type_symbol
  _atom_site_label
  _atom_site_symmetry_multiplicity
  _atom_site_fract_x
  _atom_site_fract_y
  _atom_site_fract_z
  _atom_site_occupancy
  N   N1        1.0  0.8489150957421319  0.5640076632184914  0.40393981943279145  1.0000
  C   C1        1.0  0.7714284555450918  0.5649949752033385  0.40294603529754114  1.0000
  C   C2        1.0  0.6750345274602066  0.566225899762129  0.40170690975619383  1.0000
  C   C3        1.0  0.6268623871796625  0.4713633929845223  0.4972107418019159  1.0000
  C   C4        1.0  0.5333328947331841  0.4724360837928417  0.4961308287975557  1.0000
  C   C5        1.0  0.48707298938240984  0.5683169299770185  0.3996018097817169  1.0000
  C   C6        1.0  0.3904898044943579  0.5662280368718426  0.4017048318128004  1.0000
  N   N2        1.0  0.3129977738598659  0.5644854348621327  0.40345884367201146  1.0000
  C   C7        1.0  0.5353482870222729  0.6643772927968403  0.3028921527641708  1.0000
  N   N3        1.0  0.490401933130309  0.7640343275647425  0.20256165302229734  1.0000
  C   C8        1.0  0.6293546295301977  0.6623475556429814  0.30493572952729076  1.0000
  H   H1        1.0  0.6615857984464191  0.3965706856955251  0.5725090475952221  1.0000
  H   H2        1.0  0.49697760623921783  0.39827254315432553  0.570795585424111  1.0000
  H   H3        1.0  0.5270155360431477  0.8344216999133935  0.13169838030016856  1.0000
  H   H4        1.0  0.42067989575354303  0.7693369323044614  0.19722327170778153  1.0000
  H   H5        1.0  0.6668316185627265  0.7357648874437825  0.2310220606928859  1.0000
  C   C9        1.0  0.07832289241912863  0.14062597038709534  0.40517348704224987  1.0000
  C   C10       1.0  0.045701268556573416  0.22212979281306747  0.28276572023532975  1.0000
  C   C11       1.0  0.021397635602777184  0.15543892773836654  0.15805692156468765  1.0000
  C   C12       1.0  0.029332687725178275  0.006058407916280656  0.15328659045754822  1.0000
  C   C13       1.0  0.06020051842047994  0.9228544748527848  0.2746613848424335  1.0000
  C   C14       1.0  0.08359850672783582  0.9878561528879997  0.40223766760137347  1.0000
  C   C15       1.0  0.004736246036319389  0.9376155315167283  0.024142194042204183  1.0000
  C   C16       1.0  0.9841424479682176  0.8802771867021161  0.9160040085167314  1.0000
  C   C17       1.0  0.9591559384277362  0.8106952462899423  0.7847972852120217  1.0000
  H   H6        1.0  0.20774327005240942  0.22523629371818066  0.6928745324967305  1.0000
  H   H7        1.0  0.040982951330645445  0.33863797118884187  0.2823172599769854  1.0000
  H   H8        1.0  0.9972133524200952  0.22073745899274774  0.06473909013662493  1.0000
  H   H9        1.0  0.06396038124146555  0.8065088459172942  0.27063692393278416  1.0000
  H   H10       1.0  0.16787071369579187  0.694576152928123  0.5990199246370951  1.0000
  H   H11       1.0  0.9755613016602945  0.694122483846054  0.798244694756157  1.0000
  H   H12       1.0  0.886220135217914  0.8230090364330697  0.7651422162622961  1.0000
  H   H13       1.0  0.9967309076987284  0.8621666391133924  0.6914680783251623  1.0000
  C   C18       1.0  0.07986262009776662  0.5600851503180662  0.980479926386566  1.0000
  C   C19       1.0  0.0020494402370367926  0.6025935384208485  0.05030211661062833  1.0000
  C   C20       1.0  0.9287181080567194  0.656699801512264  0.9710084796595413  1.0000
  C   C21       1.0  0.9314856821149822  0.6697370727601453  0.8196805274153136  1.0000
  C   C22       1.0  0.008078932909912018  0.625485829961641  0.7487257392040294  1.0000
  C   C23       1.0  0.08205874124933327  0.5683968945077461  0.8269313162470032  1.0000
  C   C24       1.0  0.8548191503322957  0.7278069169195698  0.7341681504876876  1.0000
  O   O1        1.0  0.7848966500026434  0.7679281346236553  0.7948078724343319  1.0000
  H   H14       1.0  0.29843414683863734  0.5235572883387265  0.08716910465234218  1.0000
  H   H15       1.0  0.9986917523922947  0.5971963953422876  0.16724383525587871  1.0000
  H   H16       1.0  0.8701681820617104  0.6896628920256807  0.02835659018720493  1.0000
  H   H17       1.0  0.0091601137481081  0.6324777741193639  0.6315437764116671  1.0000
  H   H18       1.0  0.228946876922547  0.5385656125675218  0.5494169696879379  1.0000
  H   H19       1.0  0.8580535113607074  0.7365664014158477  0.6172649961679815  1.0000
  Zn  Zn1       1.0  0.9828393300289542  0.5641417488448872  0.4038093650699639  1.0000
  Zn  Zn2       1.0  0.17907348192626527  0.56433963098416  0.40360117444900534  1.0000
  C   C25       1.0  0.08160586808102055  0.5610789622510695  0.6669537524007485  1.0000
  C   C26       1.0  0.08030909844599204  0.5674042412894518  0.1404569199940453  1.0000
  C   C27       1.0  0.08258178743976206  0.8276551858611416  0.39704946673312147  1.0000
  C   C28       1.0  0.07933310153336696  0.30082628519851595  0.41036128857625237  1.0000
  O   O2        1.0  0.15492873943185168  0.5699293968741972  0.19406767500870403  1.0000
  O   O3        1.0  0.1559233999831023  0.5587029022918844  0.6131845744158706  1.0000
  O   O4        1.0  0.15671046720658743  0.7739665878766926  0.3952349499891359  1.0000
  O   O5        1.0  0.15414160503083038  0.35466572048022615  0.4120171914087969  1.0000
  O   O6        1.0  0.007771139959293457  0.7738156592827896  0.3953933481736316  1.0000
  O   O7        1.0  0.006984083324596881  0.5585537061128136  0.6133428897492452  1.0000
  O   O8        1.0  0.005989418024136441  0.5697801334102681  0.19422425774559104  1.0000
  O   O9        1.0  0.0052022838355561  0.3545164477594289  0.412173882235785  1.0000
