data_image0
_chemical_formula_structural       NC10NC5H10C12SCH12C12SCH12Zn2C4O8
_chemical_formula_sum              "N2 C45 H34 S2 Zn2 O8"
_cell_length_a       19.4436361288709
_cell_length_b       10.299776766347529
_cell_length_c       10.299780138516091
_cell_angle_alpha    85.57845135651907
_cell_angle_beta     89.6968932683751
_cell_angle_gamma    89.39962546058797

_space_group_name_H-M_alt    "P 1"
_space_group_IT_number       1

loop_
  _space_group_symop_operation_xyz
  'x, y, z'

loop_
  _atom_site_type_symbol
  _atom_site_label
  _atom_site_symmetry_multiplicity
  _atom_site_fract_x
  _atom_site_fract_y
  _atom_site_fract_z
  _atom_site_occupancy
  N   N1        1.0  0.6475078354246235  0.40888858932128125  0.5622221059120569  1.0000
  C   C1        1.0  0.5886699990780261  0.4187919014265267  0.5766059682383252  1.0000
  C   C2        1.0  0.5153383436883765  0.43114266486219  0.5945981428970957  1.0000
  C   C3        1.0  0.47316136242639023  0.3991360826618984  0.4999267631262361  1.0000
  C   C4        1.0  0.39725479948165465  0.4095748161903099  0.5052551308396049  1.0000
  C   C5        1.0  0.3575182317575886  0.3848385496979528  0.6123219209954804  1.0000
  C   C6        1.0  0.2813971971061017  0.3887537502511269  0.5993632698358808  1.0000
  C   C7        1.0  0.2408227998977904  0.4464243414736495  0.6931328909576295  1.0000
  C   C8        1.0  0.16915892747673364  0.4500609356848196  0.6825896045536732  1.0000
  C   C9        1.0  0.13707476128245902  0.395630962179893  0.5785631924097028  1.0000
  C   C10       1.0  0.0632816358731436  0.3993287824954981  0.5678646334298803  1.0000
  N   N2        1.0  0.0039569681355275995  0.4023016360068655  0.5592637013144914  1.0000
  C   C11       1.0  0.1769243849674012  0.3372533292136186  0.4851767557072271  1.0000
  C   C12       1.0  0.2486046997918685  0.3335624849997938  0.49546827243915753  1.0000
  C   C13       1.0  0.3856560477414051  0.3443921233098009  0.7434091440906437  1.0000
  C   C14       1.0  0.44431136688844397  0.3875184869381083  0.7906518036990532  1.0000
  C   C15       1.0  0.488502871973815  0.48536766176367946  0.7162922546121333  1.0000
  H   H1        1.0  0.4952668928422631  0.3700097840882437  0.4096222515277795  1.0000
  H   H2        1.0  0.3725539233274888  0.4320593654940321  0.41210173857296  1.0000
  H   H3        1.0  0.2646844100009643  0.48972326025625756  0.7739799985549117  1.0000
  H   H4        1.0  0.1388050437620123  0.49538271907157383  0.7555096740352418  1.0000
  H   H5        1.0  0.1525908528649332  0.2941501009406418  0.40466412684914754  1.0000
  H   H6        1.0  0.27829334768983754  0.2859974126359892  0.42324439693550575  1.0000
  H   H7        1.0  0.35470076523312355  0.28018260909357107  0.8076502401303913  1.0000
  H   H8        1.0  0.4594656880499787  0.35346201324973014  0.8885805156136208  1.0000
  H   H9        1.0  0.4583784403239898  0.576078172193683  0.6910458476679947  1.0000
  H   H10       1.0  0.5317824957128572  0.5109600127598855  0.7793758818172113  1.0000
  C   C16       1.0  0.825800541928446  0.024228719679915352  0.5607407678449247  1.0000
  C   C17       1.0  0.8299236464705885  0.012629825266724279  0.6972136242250234  1.0000
  C   C18       1.0  0.831946636198084  0.8896151773783569  0.766371414738241  1.0000
  C   C19       1.0  0.8297921297238319  0.7773444835713742  0.6972299053217652  1.0000
  C   C20       1.0  0.8256708621641028  0.7869513963132261  0.5607562843509215  1.0000
  C   C21       1.0  0.8236977511610369  0.9108321621866138  0.4932756600196955  1.0000
  C   C22       1.0  0.8363008359113147  0.8784089020223536  0.9107443613401183  1.0000
  C   C23       1.0  0.7969317509269034  0.7856971764740871  0.9851100972642648  1.0000
  C   C24       1.0  0.8010502191686556  0.7753848331197895  0.1209784332702808  1.0000
  C   C25       1.0  0.8443661557569321  0.857509335326542  0.18428903975717692  1.0000
  C   C26       1.0  0.8838992751356213  0.949644635758073  0.11129493867794515  1.0000
  C   C27       1.0  0.8798816609028868  0.9603050011798915  0.9754153511489809  1.0000
  S   S1        1.0  0.8497265629415565  0.8438152407733155  0.35862617829886034  1.0000
  C   C28       1.0  0.7806109369685775  0.9611598623789338  0.37872754412352777  1.0000
  H   H11       1.0  0.8242565107985724  0.35610140689911113  0.50873818997373  1.0000
  H   H12       1.0  0.8306228195373523  0.09946313929131989  0.7501635077349915  1.0000
  H   H13       1.0  0.8322846688115686  0.6822997935995191  0.7499687781784898  1.0000
  H   H14       1.0  0.8205174215734478  0.9190117190692366  0.3879926502241027  1.0000
  H   H15       1.0  0.8240661336972673  0.4631589323603719  0.5087588757694019  1.0000
  H   H16       1.0  0.7623119439428394  0.7223593668923773  0.9382856499742361  1.0000
  H   H17       1.0  0.7702956234791092  0.7039068299605118  0.1769523953952048  1.0000
  H   H18       1.0  0.9177869528179781  0.013052305159390936  0.15971431744563647  1.0000
  H   H19       1.0  0.9115042292455814  0.03139841863669334  0.9208471573999641  1.0000
  H   H20       1.0  0.7943831754981435  0.05722107076202754  0.3297380247963787  1.0000
  H   H21       1.0  0.7726335548900019  0.9720168177669757  0.4840677712121255  1.0000
  H   H22       1.0  0.732216335311354  0.9265095977867951  0.3370092117647405  1.0000
  C   C29       1.0  0.8257633548794832  0.4054782477764026  0.17939616443331463  1.0000
  C   C30       1.0  0.7603769767972971  0.34867558854128755  0.18343216118593667  1.0000
  C   C31       1.0  0.7272179495856436  0.32000799739698627  0.0683305443422828  1.0000
  C   C32       1.0  0.7603206296463559  0.348902066479287  0.9481287366092427  1.0000
  C   C33       1.0  0.8257080337212626  0.40570188330065016  0.9421008929909217  1.0000
  C   C34       1.0  0.858063214613098  0.4336726912571467  0.05826063926617376  1.0000
  C   C35       1.0  0.6580436991985591  0.2599305900131619  0.07366310782653462  1.0000
  C   C36       1.0  0.6070982947065724  0.30253258432944974  0.9831302432642064  1.0000
  C   C37       1.0  0.5420065719723236  0.24595735132568317  0.9883856345495787  1.0000
  C   C38       1.0  0.5269108050967709  0.14642751880525884  0.08407176444226105  1.0000
  C   C39       1.0  0.5772442212844608  0.10303790887696551  0.17420404265383205  1.0000
  C   C40       1.0  0.6423785246223017  0.15943892693184014  0.16931070261076941  1.0000
  S   S2        1.0  0.443417411239661  0.07369999496372472  0.09036469961050943  1.0000
  C   C41       1.0  0.4081268157780977  0.18856623228941657  0.19938871277853765  1.0000
  H   H23       1.0  0.8506885960550472  0.42707495431377845  0.5053151901413669  1.0000
  H   H24       1.0  0.734676386843501  0.3282284139448257  0.27619441487477614  1.0000
  H   H25       1.0  0.7353834997717505  0.32536173039990657  0.8592630399064469  1.0000
  H   H26       1.0  0.908506182032099  0.47749273840467393  0.054378666162777645  1.0000
  H   H27       1.0  0.8506083823561432  0.4274038971337397  0.6123462933238262  1.0000
  H   H28       1.0  0.6173124045247658  0.3807108508606261  0.9093686975083576  1.0000
  H   H29       1.0  0.5032477602938993  0.28000652574199997  0.9183766405216588  1.0000
  H   H30       1.0  0.5659787690113283  0.025575038138697444  0.24809919177414977  1.0000
  H   H31       1.0  0.6807676341208341  0.12334561686379342  0.23922191109359184  1.0000
  H   H32       1.0  0.4372117122276286  0.18199871883482688  0.29216131828384184  1.0000
  H   H33       1.0  0.3535495093350097  0.16444628886479773  0.22061355055939158  1.0000
  H   H34       1.0  0.410768295619806  0.2892384038057534  0.15277740092801828  1.0000
  Zn  Zn1       1.0  0.7503713567122601  0.40698426773729146  0.5613758859927005  1.0000
  Zn  Zn2       1.0  0.9010934393920936  0.4041953531112003  0.5601206017342664  1.0000
  C   C42       1.0  0.825717829187022  0.40048599033449467  0.797933253051686  1.0000
  C   C43       1.0  0.8257486125098935  0.4106952387050009  0.32356334846181833  1.0000
  C   C44       1.0  0.8256921912009323  0.6427791293039808  0.5555784159661521  1.0000
  C   C45       1.0  0.8257741993253793  0.16840054041545668  0.5659182551796185  1.0000
  O   O1        1.0  0.8829419106817102  0.4113820642493177  0.3714707984560701  1.0000
  O   O2        1.0  0.882919104491322  0.3976814632945863  0.749072697500883  1.0000
  O   O3        1.0  0.8828976303356625  0.5933362518907774  0.5533694583029056  1.0000
  O   O4        1.0  0.8829633334116166  0.21572728586640436  0.5671739407121412  1.0000
  O   O5        1.0  0.7685014112586878  0.5954523359352186  0.5543225474363616  1.0000
  O   O6        1.0  0.7685228851509021  0.39979910761221654  0.7500257174236086  1.0000
  O   O7        1.0  0.7685456915079932  0.4134996628526527  0.3724222570446265  1.0000
  O   O8        1.0  0.7685671142296033  0.21784487520959342  0.5681254966641403  1.0000
