data_image0
_chemical_formula_structural       NC9NC4H8C9H10C6NCOCH7Zn2C4O8
_chemical_formula_sum              "N3 C34 H25 O9 Zn2"
_cell_length_a       16.32274767691083
_cell_length_b       9.27267660452572
_cell_length_c       10.300272075376752
_cell_angle_alpha    85.79057383563607
_cell_angle_beta     89.46610543676563
_cell_angle_gamma    90.07922574154927

_space_group_name_H-M_alt    "P 1"
_space_group_IT_number       1

loop_
  _space_group_symop_operation_xyz
  'x, y, z'

loop_
  _atom_site_type_symbol
  _atom_site_label
  _atom_site_symmetry_multiplicity
  _atom_site_fract_x
  _atom_site_fract_y
  _atom_site_fract_z
  _atom_site_occupancy
  N   N1        1.0  0.7801028367855937  0.568375106886563  0.5629798233274511  1.0000
  C   C1        1.0  0.7274883533077792  0.515720204592274  0.5084861623474519  1.0000
  C   C2        1.0  0.6620882743430305  0.45032240600677875  0.4408045997053156  1.0000
  C   C3        1.0  0.6731671555785301  0.3608698896314413  0.34822397425320273  1.0000
  C   C4        1.0  0.5935702904993897  0.31721658588598944  0.30304769332713266  1.0000
  C   C5        1.0  0.534975701583129  0.3811021867691273  0.36916963439854006  1.0000
  C   C6        1.0  0.44494876958365664  0.3642177953784809  0.3516977279482732  1.0000
  C   C7        1.0  0.38974732008419266  0.43868059184958175  0.4287597275009925  1.0000
  C   C8        1.0  0.30496236021810436  0.4242503796488235  0.4138271300323241  1.0000
  C   C9        1.0  0.24936111210189604  0.5010022997144146  0.4932573896396135  1.0000
  N   N2        1.0  0.20467658315142573  0.5626982137647258  0.5571058667372627  1.0000
  C   C10       1.0  0.27432517354246977  0.3352369415229799  0.3217085272608654  1.0000
  C   C11       1.0  0.3282052271548173  0.2608727763406986  0.24474894322874688  1.0000
  C   C12       1.0  0.4128293319001174  0.2749143053804215  0.25927916894190295  1.0000
  C   C13       1.0  0.5732232055825336  0.47425444799722266  0.4655767634470931  1.0000
  H   H1        1.0  0.7318904300639146  0.32608602503520157  0.3122214770154985  1.0000
  H   H2        1.0  0.58488777838422  0.24410715580799103  0.2273814788095443  1.0000
  H   H3        1.0  0.4122277966773603  0.508170586370212  0.5006739332245762  1.0000
  H   H4        1.0  0.2088704565719432  0.3233494359960265  0.30940738884991204  1.0000
  H   H5        1.0  0.3043320395290828  0.19201258331558102  0.17348676738699687  1.0000
  H   H6        1.0  0.4522955298654054  0.21542775989404084  0.19771684992434824  1.0000
  H   H7        1.0  0.5562341313776002  0.4356384115966595  0.5669253411390551  1.0000
  H   H8        1.0  0.5570772193900748  0.5898108467088419  0.44385916655382096  1.0000
  C   C14       1.0  0.9900723940949046  0.14207962761752335  0.558415990121645  1.0000
  C   C15       1.0  0.9572722492277373  0.2065904762647042  0.666418861135057  1.0000
  C   C16       1.0  0.9319675731138715  0.12276430025682374  0.7774918165585267  1.0000
  C   C17       1.0  0.9386464526503155  0.9719239983308863  0.784298954624183  1.0000
  C   C18       1.0  0.9701043773176086  0.9059816791495413  0.6753141372846357  1.0000
  C   C19       1.0  0.9947148427689357  0.9889824291275933  0.5616807990904789  1.0000
  C   C20       1.0  0.9104117755727712  0.8886546174642671  0.9094352018456648  1.0000
  C   C21       1.0  0.869006923321733  0.7431169929485689  0.8970783386665191  1.0000
  C   C22       1.0  0.9555111065989796  0.7493902370550768  0.9508286935755357  1.0000
  H   H9        1.0  0.008277343066329655  0.4407143516228782  0.34536545452482414  1.0000
  H   H10       1.0  0.9529494465399618  0.32317083369521127  0.666353829860838  1.0000
  H   H11       1.0  0.907692964484223  0.1765153384764027  0.8594217693060164  1.0000
  H   H12       1.0  0.9740126654470497  0.7895287865226741  0.6764659512120632  1.0000
  H   H13       1.0  0.015991175897527746  0.9119603920744809  0.24341585733004714  1.0000
  H   H14       1.0  0.8872157112787997  0.9490676556333575  0.9915193233379984  1.0000
  H   H15       1.0  0.8652105879627267  0.7039417640397377  0.7981324339223951  1.0000
  H   H16       1.0  0.8215226063449881  0.7149512797034477  0.972652924449487  1.0000
  H   H17       1.0  0.004236480391166531  0.7138975053194108  0.8846102809374432  1.0000
  H   H18       1.0  0.9585822142885192  0.7248849014112283  0.05783496010139699  1.0000
  C   C23       1.0  0.9924011278191175  0.5656773866681868  0.17869612749831054  1.0000
  C   C24       1.0  0.9087433680397698  0.6009105167716684  0.1765485517228194  1.0000
  C   C25       1.0  0.866845997807883  0.6206093385647669  0.05805588480411151  1.0000
  C   C26       1.0  0.9087498465232672  0.6005816396597725  0.9414132108389253  1.0000
  C   C27       1.0  0.9923861058138791  0.5653846356870553  0.9414006779414461  1.0000
  C   C28       1.0  0.03384276555426366  0.5486548342059636  0.06055379398201288  1.0000
  N   N3        1.0  0.7808949511364085  0.6544627995059862  0.05439189972979431  1.0000
  C   C29       1.0  0.7407185353249485  0.74477261216051  0.14275252449378262  1.0000
  O   O1        1.0  0.7818057317217681  0.8213546898371655  0.2147500377409144  1.0000
  C   C30       1.0  0.6494529438410003  0.7565997894662884  0.14294443844937543  1.0000
  H   H19       1.0  0.875812344193803  0.6102064958779512  0.2671820970107537  1.0000
  H   H20       1.0  0.8757804088542311  0.6138340855083884  0.8505504453113205  1.0000
  H   H21       1.0  0.09837064811930185  0.5215195655157814  0.061398636259272665  1.0000
  H   H22       1.0  0.7464690562055004  0.6189591598189139  0.9777700354815886  1.0000
  H   H23       1.0  0.6216586647393607  0.6491992375600346  0.13052959871194061  1.0000
  H   H24       1.0  0.6272171606953033  0.7954176140976768  0.23644856521215285  1.0000
  H   H25       1.0  0.630191881663906  0.8339305657400029  0.06165139933826193  1.0000
  Zn  Zn1       1.0  0.9026256335329577  0.5667330050337012  0.5612922110815334  1.0000
  Zn  Zn2       1.0  0.08215372750191285  0.5643284784558154  0.5588040720822565  1.0000
  C   C31       1.0  0.9923556062942132  0.5596953885011978  0.7972110407522803  1.0000
  C   C32       1.0  0.9924257251529718  0.5713678881403854  0.3228853497159699  1.0000
  C   C33       1.0  0.9938331837454799  0.8289018267424653  0.5558887813071687  1.0000
  C   C34       1.0  0.9909480769430081  0.3021597181948088  0.5642076725669691  1.0000
  O   O2        1.0  0.06056392180049385  0.5723588760977645  0.37033230984210497  1.0000
  O   O3        1.0  0.06047507301599487  0.556878332806531  0.7478752626739813  1.0000
  O   O4        1.0  0.0616673170431059  0.7742659480492364  0.5530058492860519  1.0000
  O   O5        1.0  0.059371616571072254  0.3549712720284233  0.5652016267484188  1.0000
  O   O6        1.0  0.9254076831996799  0.7760902122832125  0.5548946572576259  1.0000
  O   O7        1.0  0.9242154486671468  0.558704329566936  0.7497640080819239  1.0000
  O   O8        1.0  0.9243042972614798  0.5741848232061957  0.37221949372308116  1.0000
  O   O9        1.0  0.92311199197025  0.35679720878560994  0.5670889079532657  1.0000
