data_image0
_chemical_formula_structural       NC8NH4C10H6C6NCH8Zn2C4O8
_chemical_formula_sum              "N3 C29 H18 Zn2 O8"
_cell_length_a       11.048855714531884
_cell_length_b       9.275150299802176
_cell_length_c       9.274690524155615
_cell_angle_alpha    85.73181374548483
_cell_angle_beta     89.68736319339459
_cell_angle_gamma    89.4838956589931

_space_group_name_H-M_alt    "P 1"
_space_group_IT_number       1

loop_
  _space_group_symop_operation_xyz
  'x, y, z'

loop_
  _atom_site_type_symbol
  _atom_site_label
  _atom_site_symmetry_multiplicity
  _atom_site_fract_x
  _atom_site_fract_y
  _atom_site_fract_z
  _atom_site_occupancy
  N   N1        1.0  0.13516838345900412  0.5651130650436316  0.40131304398246836  1.0000
  C   C1        1.0  0.08148878087757441  0.506395152647743  0.3166645724866115  1.0000
  C   C2        1.0  0.014513199683341199  0.43313193579362186  0.21104717160354958  1.0000
  C   C3        1.0  0.8867964452608517  0.4331317460139483  0.21104727439441473  1.0000
  C   C4        1.0  0.8250519234049438  0.3607077890098995  0.10664005331574078  1.0000
  C   C5        1.0  0.8894953164320237  0.28885670526547  0.003058612977719031  1.0000
  C   C6        1.0  0.015901529576572978  0.2888565952851103  0.003058636263393973  1.0000
  C   C7        1.0  0.07830946160816034  0.3607078872519103  0.10664002504484138  1.0000
  C   C8        1.0  0.8177453592954208  0.50639522750287  0.31666455893083056  1.0000
  N   N2        1.0  0.7624022691426112  0.565113107987097  0.40131307252823767  1.0000
  H   H1        1.0  0.727002531794383  0.35980086728729743  0.10533198208280958  1.0000
  H   H2        1.0  0.8413868576190306  0.233127332308098  0.9227190520877913  1.0000
  H   H3        1.0  0.06558889802393388  0.23312744177889952  0.922719050858611  1.0000
  H   H4        1.0  0.17638454264836173  0.3598008206178276  0.10533225744573538  1.0000
  C   C9        1.0  0.45197334371637465  0.14142857868523095  0.4037258696127384  1.0000
  C   C10       1.0  0.5161278929854262  0.22252970257757743  0.2946881026477912  1.0000
  C   C11       1.0  0.5699285654508799  0.1553808785893236  0.18010917814892125  1.0000
  C   C12       1.0  0.5601220738755145  0.006152168757761253  0.17309219189424851  1.0000
  C   C13       1.0  0.49861285669587185  0.9236015551581247  0.2814822191712758  1.0000
  C   C14       1.0  0.4456089125576102  0.9887865362552611  0.39891277294452454  1.0000
  C   C15       1.0  0.6341093941709617  0.24020239738909924  0.0685783735703498  1.0000
  C   C16       1.0  0.6878449447758371  0.3112430313058865  0.9752038440035595  1.0000
  C   C17       1.0  0.7507667821610121  0.3944365908601018  0.8658663421449839  1.0000
  C   C18       1.0  0.8044919723430624  0.4654718987300566  0.772509711819183  1.0000
  H   H5        1.0  0.3935195828646585  0.40574835147137095  0.6325919661051644  1.0000
  H   H6        1.0  0.5219326955218997  0.3389974848751036  0.29691461477448433  1.0000
  H   H7        1.0  0.6011050968353377  0.9532337986901074  0.08443217805659531  1.0000
  H   H8        1.0  0.49494037774660626  0.8075472284196056  0.2752598435189757  1.0000
  H   H9        1.0  0.3653741196583074  0.8613021255941928  0.7413458369218155  1.0000
  H   H10       1.0  0.8516671706317862  0.5278469312160876  0.6905348796268433  1.0000
  C   C19       1.0  0.45075681708470716  0.5614136309896063  0.9780930070096967  1.0000
  C   C20       1.0  0.5486194897745433  0.6238252685029033  0.04647587708318878  1.0000
  C   C21       1.0  0.6401761321163465  0.6971637962702564  0.9655615113122301  1.0000
  C   C22       1.0  0.6329255041521171  0.707821139493416  0.8146045150392416  1.0000
  C   C23       1.0  0.5376519909748505  0.6445499232500467  0.7450158424136823  1.0000
  C   C24       1.0  0.4468254316885034  0.5688015020187929  0.824545589329932  1.0000
  N   N3        1.0  0.7404046976900747  0.7626387019037147  0.03391140030542461  1.0000
  C   C25       1.0  0.7568682761222021  0.7575598095758296  0.19022179757161672  1.0000
  H   H11       1.0  0.3139163270692101  0.3874997543469092  0.2720796307990305  1.0000
  H   H12       1.0  0.7022148716541765  0.7642994327428969  0.7502251550046153  1.0000
  H   H13       1.0  0.5366786133773839  0.6519939832423993  0.627900844208455  1.0000
  H   H14       1.0  0.2560712001987717  0.5011149860460857  0.5494918669246625  1.0000
  H   H15       1.0  0.8058490316774213  0.8166078941168098  0.9689707042832079  1.0000
  H   H16       1.0  0.8411398417835616  0.8147275178104534  0.21557539678004467  1.0000
  H   H17       1.0  0.764498585565235  0.6434991913674735  0.2350943283419593  1.0000
  H   H18       1.0  0.6792699936797515  0.8116486650802073  0.24111657809334794  1.0000
  Zn  Zn1       1.0  0.3161745386667334  0.5651092794366992  0.4013213939898279  1.0000
  Zn  Zn2       1.0  0.5813961751625454  0.5651051628315111  0.40131658471217135  1.0000
  C   C26       1.0  0.4476090529407018  0.5616573079629754  0.6645806073794394  1.0000
  C   C27       1.0  0.44996454277055214  0.5685589559311268  0.1380575023863475  1.0000
  C   C28       1.0  0.44683240046124584  0.8285677402145275  0.3940793703761256  1.0000
  C   C29       1.0  0.4507411174110858  0.30164679092225755  0.40855882607536453  1.0000
  O   O1        1.0  0.5503489243855668  0.5709491356284784  0.191741258985632  1.0000
  O   O2        1.0  0.5485217667170255  0.5592629118067083  0.6108927919543599  1.0000
  O   O3        1.0  0.5478932462443284  0.7747964744938123  0.3924611207364015  1.0000
  O   O4        1.0  0.5509773547804584  0.35541558232064685  0.41017282208451844  1.0000
  O   O5        1.0  0.34659326854171596  0.774798859950472  0.3924651566115325  1.0000
  O   O6        1.0  0.3472217763462302  0.5592670300235949  0.610896741137839  1.0000
  O   O7        1.0  0.3490489425207411  0.5709531884441938  0.19174347568144356  1.0000
  O   O8        1.0  0.3496773724863336  0.3554196257599993  0.4101751468934538  1.0000
