data_image0
_chemical_formula_structural       NC12NC2H8C12NCOCH13C13NH13Zn2C4O8
_chemical_formula_sum              "N4 C45 H34 O9 Zn2"
_cell_length_a       17.80743265337812
_cell_length_b       10.299155265289647
_cell_length_c       10.299780419254978
_cell_angle_alpha    85.55647119552991
_cell_angle_beta     91.52098048016337
_cell_angle_gamma    89.4139958816946

_space_group_name_H-M_alt    "P 1"
_space_group_IT_number       1

loop_
  _space_group_symop_operation_xyz
  'x, y, z'

loop_
  _atom_site_type_symbol
  _atom_site_label
  _atom_site_symmetry_multiplicity
  _atom_site_fract_x
  _atom_site_fract_y
  _atom_site_fract_z
  _atom_site_occupancy
  N   N1        1.0  0.7072898775882458  0.4064423050447248  0.6010177872679179  1.0000
  C   C1        1.0  0.6564722763320652  0.4359860837653613  0.532314846564863  1.0000
  C   C2        1.0  0.593250164960089  0.4727364009064987  0.4468570364137543  1.0000
  C   C3        1.0  0.6049810227766218  0.5267293623560328  0.3202296682136443  1.0000
  C   C4        1.0  0.5436662922857671  0.5619765755227367  0.23716812087890807  1.0000
  C   C5        1.0  0.47046642665084165  0.5434941457964724  0.28007400503198165  1.0000
  C   C6        1.0  0.45775876230183193  0.48938249040146053  0.40716952101933823  1.0000
  C   C7        1.0  0.5199308102655122  0.45413852721512105  0.4902145567450624  1.0000
  C   C8        1.0  0.3799905726127952  0.46978656868755736  0.45293584054628155  1.0000
  C   C9        1.0  0.361182791532593  0.4970073836984834  0.5799648577625247  1.0000
  C   C10       1.0  0.2879529656225993  0.4785665409216917  0.6229112906549519  1.0000
  C   C11       1.0  0.2325879038289694  0.4326508041315066  0.5396666958926819  1.0000
  C   C12       1.0  0.1572214218765715  0.4136574478549775  0.5840141274743622  1.0000
  N   N2        1.0  0.0966321075369213  0.39838806678475364  0.6196664116672302  1.0000
  C   C13       1.0  0.25070416207422236  0.40526120127663195  0.41318066305461004  1.0000
  C   C14       1.0  0.3238811612638605  0.4237167655587383  0.3699783544216335  1.0000
  H   H1        1.0  0.6614476508116696  0.5415455450586267  0.28579057110370076  1.0000
  H   H2        1.0  0.5528670691801439  0.6040521045231952  0.13938308087895024  1.0000
  H   H3        1.0  0.42382857573199173  0.5731153309735191  0.21447880101523453  1.0000
  H   H4        1.0  0.5114287444243311  0.41067754695958136  0.5878755501409547  1.0000
  H   H5        1.0  0.40284271444952024  0.534206340450945  0.6455235039724343  1.0000
  H   H6        1.0  0.2744925685741448  0.5004388180219551  0.7209080893429074  1.0000
  H   H7        1.0  0.2083270231702441  0.3693297333119423  0.34803458830057443  1.0000
  H   H8        1.0  0.336813473040537  0.4003088954819083  0.2722853068607723  1.0000
  C   C15       1.0  0.9020484811570404  0.021015925794786172  0.6104649706482745  1.0000
  C   C16       1.0  0.8892334671666142  0.030963791308142852  0.474931880910075  1.0000
  C   C17       1.0  0.8826632417295829  0.9188713751871004  0.4060925463239773  1.0000
  C   C18       1.0  0.8890538787158042  0.7957076973086799  0.4746155077006076  1.0000
  C   C19       1.0  0.9018807210149794  0.7838043637713393  0.6102307509815527  1.0000
  C   C20       1.0  0.9083023977087613  0.8969771730347459  0.6773207384470195  1.0000
  C   C21       1.0  0.869107431719516  0.9303686658464211  0.26271494733386436  1.0000
  C   C22       1.0  0.9072181259996837  0.023680730561563182  0.18312632763500636  1.0000
  C   C23       1.0  0.8944673972710747  0.034369433391483024  0.04819874959000915  1.0000
  C   C24       1.0  0.8438181727252156  0.9510677137463174  0.9900246493200583  1.0000
  C   C25       1.0  0.8047898265237159  0.8595909090577716  0.06950115916536381  1.0000
  C   C26       1.0  0.8175679223697206  0.8486456158747558  0.20439271420008365  1.0000
  N   N3        1.0  0.8286502478952851  0.9616048110384086  0.8517431068246291  1.0000
  C   C27       1.0  0.8835182148865626  0.9973936646269236  0.7561577257379772  1.0000
  O   O1        1.0  0.9524342699968987  0.9985059109211933  0.7873158402796538  1.0000
  C   C28       1.0  0.8595701048245247  0.024318012100517764  0.6164768430437713  1.0000
  H   H9        1.0  0.9070010035043682  0.3446652549472826  0.6625922172373018  1.0000
  H   H10       1.0  0.8832965950867543  0.12612503957242363  0.42284014891055227  1.0000
  H   H11       1.0  0.8850196816295193  0.7089853016340463  0.42179613415274186  1.0000
  H   H12       1.0  0.9181894149289141  0.8885892589980503  0.7818599185821745  1.0000
  H   H13       1.0  0.9265405842470474  0.5540448041034468  0.8660881638149674  1.0000
  H   H14       1.0  0.9473288147184057  0.08790449294958826  0.2251381002985282  1.0000
  H   H15       1.0  0.9232961213260467  0.10922103390844644  0.9900017523499649  1.0000
  H   H16       1.0  0.7646071572748359  0.796072574503463  0.026618940828199152  1.0000
  H   H17       1.0  0.7863250792237325  0.7774604108670415  0.2633069917334383  1.0000
  H   H18       1.0  0.7757407880509566  0.9338267601651719  0.8181367844625425  1.0000
  H   H19       1.0  0.8053407804408345  0.07888493553453134  0.6094259402126583  1.0000
  H   H20       1.0  0.8526243720535177  0.9308462469457415  0.5709220701300711  1.0000
  H   H21       1.0  0.9023452031050564  0.08351728218443122  0.5631328065131371  1.0000
  C   C29       1.0  0.902015763022332  0.4023241885106389  0.22899619014982744  1.0000
  C   C30       1.0  0.9563862066482867  0.5002360022174229  0.22290947343335413  1.0000
  C   C31       1.0  0.9838781938147544  0.5499451845292589  0.10267856196892589  1.0000
  C   C32       1.0  0.9562829885688372  0.500410382991306  0.9876043025909329  1.0000
  C   C33       1.0  0.9019134379867758  0.4024960312764397  0.9916995094767609  1.0000
  C   C34       1.0  0.8750822125422019  0.35400469568865245  0.1128641269287103  1.0000
  C   C35       1.0  0.041399988303506774  0.6535248483063881  0.09733103696543588  1.0000
  C   C36       1.0  0.036298472776446156  0.758215860456309  0.0012293793163999965  1.0000
  C   C37       1.0  0.09046366929970984  0.8556193398183479  0.9962830351806581  1.0000
  C   C38       1.0  0.15034980108397944  0.8506771197351979  0.08782701106445479  1.0000
  C   C39       1.0  0.15617156217932116  0.7456923498205217  0.18290647695743845  1.0000
  C   C40       1.0  0.10202190445719195  0.6482638481849506  0.18802634336009041  1.0000
  C   C41       1.0  0.2096513456660254  0.9536759213874162  0.08018107459523405  1.0000
  N   N4        1.0  0.2672497442156214  0.9198300325039345  0.9900717060319534  1.0000
  H   H22       1.0  0.8813286201336219  0.3649677048751989  0.5587738097132715  1.0000
  H   H23       1.0  0.976741935636678  0.5393237204153842  0.31174263088317855  1.0000
  H   H24       1.0  0.9780533001519688  0.5371177931020614  0.8948285345050215  1.0000
  H   H25       1.0  0.8331381415419494  0.2784691380429267  0.11679119995795784  1.0000
  H   H26       1.0  0.8811818869646854  0.36520946628475315  0.6658039716936682  1.0000
  H   H27       1.0  0.9899646369029926  0.7655212435169106  0.9307065107651665  1.0000
  H   H28       1.0  0.08560755967404776  0.9351258202841283  0.9211876337479756  1.0000
  H   H29       1.0  0.20278421904460253  0.7390335068128215  0.2529159825872329  1.0000
  H   H30       1.0  0.10818760013340523  0.5677130428014467  0.2617188849515144  1.0000
  H   H31       1.0  0.183672086168851  0.049246938661336774  0.045628016982361755  1.0000
  H   H32       1.0  0.23555666564527988  0.964451208344167  0.17827520915215644  1.0000
  H   H33       1.0  0.3051431395165305  0.9967434043844257  0.9819241603975969  1.0000
  H   H34       1.0  0.2974070970875329  0.8388968195003043  0.03231245448774022  1.0000
  Zn  Zn1       1.0  0.8196456379931347  0.4041145599957797  0.6064068650957659  1.0000
  Zn  Zn2       1.0  0.9842763455470246  0.4007052199205321  0.6142879296645001  1.0000
  C   C42       1.0  0.9019322207735416  0.3972895238709446  0.8475337883401979  1.0000
  C   C43       1.0  0.9019915601512551  0.4075318575938858  0.3731612194385792  1.0000
  C   C44       1.0  0.9019092379643903  0.6396199984245114  0.6050999122507807  1.0000
  C   C45       1.0  0.9020144871173993  0.16519982379283016  0.6155951625533516  1.0000
  O   O2        1.0  0.9644599342295401  0.4079801059289825  0.4245351449027488  1.0000
  O   O3        1.0  0.9644147446990746  0.3942526854209618  0.802141034999975  1.0000
  O   O4        1.0  0.9643953433957803  0.589937626055806  0.6063739240649237  1.0000
  O   O5        1.0  0.9644792793665486  0.2122951757265324  0.6203021557754071  1.0000
  O   O6        1.0  0.8394426479932307  0.5925246053546316  0.6003926362886072  1.0000
  O   O7        1.0  0.8394620489591521  0.3968412251321299  0.7961596775020523  1.0000
  O   O8        1.0  0.8395072387590586  0.41056860002770384  0.4185522260909995  1.0000
  O   O9        1.0  0.8395265838819729  0.21488366055771313  0.6143193343297992  1.0000
