data_image0
_chemical_formula_structural       NC6NC3H6C6ClH5C7F3H5Zn2C4O8
_chemical_formula_sum              "N2 C26 H16 Cl1 F3 Zn2 O8"
_cell_length_a       14.934028789175542
_cell_length_b       9.276545438789551
_cell_length_c       9.272721663655245
_cell_angle_alpha    85.91497059500672
_cell_angle_beta     90.49150437083568
_cell_angle_gamma    89.37211250715544

_space_group_name_H-M_alt    "P 1"
_space_group_IT_number       1

loop_
  _space_group_symop_operation_xyz
  'x, y, z'

loop_
  _atom_site_type_symbol
  _atom_site_label
  _atom_site_symmetry_multiplicity
  _atom_site_fract_x
  _atom_site_fract_y
  _atom_site_fract_z
  _atom_site_occupancy
  N   N1        1.0  0.824252584234408  0.5684470348079114  0.40985873593479427  1.0000
  C   C1        1.0  0.7467697618429319  0.5673452737144817  0.40917902760822616  1.0000
  C   C2        1.0  0.6503772413803584  0.5659696182592715  0.40833053801187136  1.0000
  C   C3        1.0  0.602301266412456  0.6731059937768129  0.4743044343820062  1.0000
  C   C4        1.0  0.5087927717191442  0.6720014440156953  0.4736241303282858  1.0000
  C   C5        1.0  0.46244754412045896  0.5638151944991463  0.40700379880580617  1.0000
  C   C6        1.0  0.3657949933801447  0.5661364468681467  0.4084345002507608  1.0000
  N   N2        1.0  0.2883094925534356  0.567978655089286  0.40957027067859086  1.0000
  C   C7        1.0  0.5105222812653069  0.4551966075992478  0.34011661291645234  1.0000
  C   C8        1.0  0.462550125284178  0.3375756728541835  0.2676876956362629  1.0000
  C   C9        1.0  0.6046585465204515  0.45742824429124096  0.34149089278279887  1.0000
  H   H1        1.0  0.6370986058659817  0.7575195229940057  0.5262863345876847  1.0000
  H   H2        1.0  0.4725120669693698  0.7557648658489287  0.5252055547892176  1.0000
  H   H3        1.0  0.4189938796858254  0.38615070189245904  0.1790807315670846  1.0000
  H   H4        1.0  0.4206529062827751  0.2751799131563047  0.34779059014540614  1.0000
  H   H5        1.0  0.5102317949499572  0.26139085894755854  0.22076713554044528  1.0000
  H   H6        1.0  0.642429053084905  0.37477912723585416  0.29059594043666875  1.0000
  C   C10       1.0  0.05898649778272544  0.1447736487623588  0.4094751098069622  1.0000
  C   C11       1.0  0.058577056849332204  0.22769045523370535  0.2763821025377302  1.0000
  C   C12       1.0  0.05003733558912125  0.16190060709527687  0.1461909479528023  1.0000
  C   C13       1.0  0.04171090907091311  0.01232280509949591  0.14708988193062167  1.0000
  C   C14       1.0  0.043488112084079766  0.9278527104346717  0.27773911043940647  1.0000
  C   C15       1.0  0.0535843444543633  0.9916410236976901  0.409966350228713  1.0000
  Cl  Cl1       1.0  0.048417881167514415  0.267614444730232  0.9815705812218886  1.0000
  H   H7        1.0  0.10605753974407278  0.4089372542416547  0.6361513527372551  1.0000
  H   H8        1.0  0.06275676876434932  0.344391034382699  0.27352460253415223  1.0000
  H   H9        1.0  0.03471246601225372  0.9610519496530466  0.046366474270258536  1.0000
  H   H10       1.0  0.039095512123534994  0.8115820341050064  0.2750902976550805  1.0000
  H   H11       1.0  0.024878294577646884  0.6942222289440936  0.6431538613374355  1.0000
  C   C16       1.0  0.05393113489983455  0.5658709557402591  0.9862776145732122  1.0000
  C   C17       1.0  0.09279346785917575  0.4478893039145238  0.06890784809750117  1.0000
  C   C18       1.0  0.13944934066896955  0.3384767570423371  0.0029108345914938875  1.0000
  C   C19       1.0  0.14451173702384856  0.3451116312994687  0.8517616939565632  1.0000
  C   C20       1.0  0.10513786988109558  0.4600916543087357  0.7681617469428654  1.0000
  C   C21       1.0  0.05863970650273665  0.5705436979942899  0.8331638101646739  1.0000
  C   C22       1.0  0.17858435680007578  0.21095856794468015  0.0931604216827242  1.0000
  F   F1        1.0  0.2084726100256421  0.2528366251628391  0.22539893434829364  1.0000
  F   F2        1.0  0.25034139642538067  0.15124340184235036  0.02396153836045834  1.0000
  F   F3        1.0  0.11350670401154137  0.10723319573746284  0.11617679193438857  1.0000
  H   H12       1.0  0.9949811493406371  0.9092972496987022  0.0627314640405774  1.0000
  H   H13       1.0  0.0883550553870955  0.44277100644712913  0.1857532895651124  1.0000
  H   H14       1.0  0.17814868072332557  0.2603730964420792  0.7977841258206309  1.0000
  H   H15       1.0  0.10897197049236457  0.4605489586996526  0.6515050116980672  1.0000
  H   H16       1.0  0.8963985180776569  0.8139130579414673  0.7121139283427187  1.0000
  Zn  Zn1       1.0  0.9581694682173915  0.5683080524535703  0.40978380945722126  1.0000
  Zn  Zn2       1.0  0.15439277952811636  0.568105890825688  0.40965697940962453  1.0000
  C   C23       1.0  0.057784313467017505  0.5639160265199941  0.6730808720222634  1.0000
  C   C24       1.0  0.054780066211970596  0.5724997347146648  0.14636005804401542  1.0000
  C   C25       1.0  0.05456889238324433  0.8315333303174215  0.4041273695139041  1.0000
  C   C26       1.0  0.05799543181702879  0.3048806989847439  0.41531363646807695  1.0000
  O   O1        1.0  0.12953073946021032  0.5746414034574332  0.2000370534529503  1.0000
  O   O2        1.0  0.1319625978365062  0.561619831689574  0.6193071998205955  1.0000
  O   O3        1.0  0.12936510914943267  0.7777241982957119  0.40212534517296983  1.0000
  O   O4        1.0  0.13212816052264403  0.358537046638801  0.4172188000323944  1.0000
  O   O5        1.0  0.9804340202614253  0.7778768967109728  0.4022219888701486  1.0000
  O   O6        1.0  0.9830314974657763  0.5617742621078445  0.6194037676377687  1.0000
  O   O7        1.0  0.9805996298306942  0.5747957740617882  0.20013188758007885  1.0000
  O   O8        1.0  0.98319705155633  0.35869140752616646  0.4173137422634019  1.0000
