data_image0
_chemical_formula_structural       NC12NC2H8C13OH12C13NH13Zn2C4O8
_chemical_formula_sum              "N3 C44 H33 O9 Zn2"
_cell_length_a       17.80743265337812
_cell_length_b       10.29915010939255
_cell_length_c       10.299780419254978
_cell_angle_alpha    85.552664501727
_cell_angle_beta     91.52098048016337
_cell_angle_gamma    89.41750150667457

_space_group_name_H-M_alt    "P 1"
_space_group_IT_number       1

loop_
  _space_group_symop_operation_xyz
  'x, y, z'

loop_
  _atom_site_type_symbol
  _atom_site_label
  _atom_site_symmetry_multiplicity
  _atom_site_fract_x
  _atom_site_fract_y
  _atom_site_fract_z
  _atom_site_occupancy
  N   N1        1.0  0.7073382044966318  0.4064492436085044  0.6009263652769314  1.0000
  C   C1        1.0  0.6565216183972639  0.4359931680808662  0.5322215041601761  1.0000
  C   C2        1.0  0.5933007698067067  0.47274366652657546  0.4467613051537618  1.0000
  C   C3        1.0  0.6050334828809291  0.5267368943458037  0.32013042728673  1.0000
  C   C4        1.0  0.5437199635231833  0.5619842814016427  0.23706658880191037  1.0000
  C   C5        1.0  0.47051946281159324  0.5435017604938797  0.27997367435550924  1.0000
  C   C6        1.0  0.45780993912643914  0.48938983814360754  0.4070727077251675  1.0000
  C   C7        1.0  0.5199807760686833  0.4541457010841655  0.4901200343897185  1.0000
  C   C8        1.0  0.380041076099925  0.46979381975488727  0.4528403010321809  1.0000
  C   C9        1.0  0.3612342303569412  0.49701476905739406  0.5798675488327181  1.0000
  C   C10       1.0  0.2880037707992563  0.4785738353042695  0.6228151804224227  1.0000
  C   C11       1.0  0.23263713129028224  0.43265787199269234  0.5395735702888573  1.0000
  C   C12       1.0  0.15726999670522  0.41366442201405224  0.5839222364824661  1.0000
  N   N2        1.0  0.0966801576927998  0.39839496561363213  0.619575513220292  1.0000
  C   C13       1.0  0.2507524483985806  0.40526813401353623  0.41308931783809055  1.0000
  C   C14       1.0  0.323930081741757  0.42372378934460314  0.36988580955090544  1.0000
  H   H1        1.0  0.661500620016351  0.5415531501427777  0.2856903670907678  1.0000
  H   H2        1.0  0.5529221861791305  0.6040600179781541  0.13927881379560447  1.0000
  H   H3        1.0  0.42388262970932716  0.5731230918045307  0.21437654489346358  1.0000
  H   H4        1.0  0.5114772168602993  0.4106845064175675  0.587783852849484  1.0000
  H   H5        1.0  0.402895431471039  0.5342139093277527  0.6454237770247133  1.0000
  H   H6        1.0  0.2745441253063601  0.5004462203095563  0.7208105573619616  1.0000
  H   H7        1.0  0.20837407484974393  0.36933648878399783  0.3479455787122778  1.0000
  H   H8        1.0  0.3368615891982076  0.400315803787032  0.272194283555542  1.0000
  C   C15       1.0  0.9020835643900528  0.021020962890225814  0.610398602260158  1.0000
  C   C16       1.0  0.9006813788482176  0.009274612768026333  0.7471363521334695  1.0000
  C   C17       1.0  0.8999051084471561  0.8861856599171676  0.8161984811273528  1.0000
  C   C18       1.0  0.9005365830932126  0.7740221868215301  0.7467660370173821  1.0000
  C   C19       1.0  0.9019419895923428  0.7838130823280469  0.6101148367231286  1.0000
  C   C20       1.0  0.9027093333771776  0.9077731809417595  0.5427297973471117  1.0000
  C   C21       1.0  0.8984152169890091  0.874741220004341  0.9607610848481263  1.0000
  C   C22       1.0  0.8522108668906072  0.7828311320028867  0.02656646006912411  1.0000
  C   C23       1.0  0.8507839909756387  0.7721438496701313  0.162598533508288  1.0000
  C   C24       1.0  0.8960284153705517  0.8521988759124995  0.2353079913692158  1.0000
  C   C25       1.0  0.9415139317015658  0.9450776042808146  0.17011072898706459  1.0000
  C   C26       1.0  0.9429582464765018  0.9559403228293846  0.03407920215152038  1.0000
  C   C27       1.0  0.8929155262079385  0.8431015954441632  0.38123894784018697  1.0000
  O   O1        1.0  0.8367596704242509  0.9274471696541939  0.4187880823564027  1.0000
  H   H9        1.0  0.9042421769336231  0.2504956819556121  0.35227631319254127  1.0000
  H   H10       1.0  0.8991482715196629  0.09608954501898447  0.8000692418033459  1.0000
  H   H11       1.0  0.9009581209549572  0.6789006722657098  0.7996174970988592  1.0000
  H   H12       1.0  0.9037912396618828  0.916041444156753  0.43732653580845  1.0000
  H   H13       1.0  0.9024319931199489  0.4601045821596866  0.5575515704482941  1.0000
  H   H14       1.0  0.8162900173135238  0.7205560814794889  0.9727394073432403  1.0000
  H   H15       1.0  0.8142321291077923  0.7015795552752955  0.211221154577981  1.0000
  H   H16       1.0  0.9760508663550844  0.008934389868628054  0.2246176675494852  1.0000
  H   H17       1.0  0.9795351712317071  0.02694967883695744  0.9862643905426833  1.0000
  H   H18       1.0  0.9481706046779528  0.8697950486830826  0.42405391129293285  1.0000
  H   H19       1.0  0.880701692219777  0.7413398563257241  0.41846489149414967  1.0000
  H   H20       1.0  0.837024952774795  0.917782050835506  0.5154233622934998  1.0000
  C   C28       1.0  0.9020639484276933  0.40233110675803996  0.22890503584590616  1.0000
  C   C29       1.0  0.9564377564115271  0.5002434035044492  0.22281195463590353  1.0000
  C   C30       1.0  0.98393145164031  0.5499528310523184  0.10257781196007  1.0000
  C   C31       1.0  0.9563345443239936  0.5004177851386251  0.9875067724583301  1.0000
  C   C32       1.0  0.9019616292968438  0.40250295037161227  0.991608344002664  1.0000
  C   C33       1.0  0.875128737636511  0.35401137555593576  0.11277611350317551  1.0000
  C   C34       1.0  0.041456805240519534  0.6535330058309307  0.09722355403973439  1.0000
  C   C35       1.0  0.03635888701207213  0.7582245344650773  0.001115091233646391  1.0000
  C   C36       1.0  0.09052743042628641  0.8556284943589167  0.9961624156472788  1.0000
  C   C37       1.0  0.1504133923904245  0.8506862498937439  0.08770671278677078  1.0000
  C   C38       1.0  0.1562315460933128  0.745700962045613  0.1827930029317375  1.0000
  C   C39       1.0  0.10207854062043942  0.6482719797547958  0.18791920241152016  1.0000
  C   C40       1.0  0.20971847612486494  0.9536855596818107  0.08005408115808077  1.0000
  N   N3        1.0  0.2673157116923994  0.919839503822508  0.9899469126555762  1.0000
  H   H21       1.0  0.8813755219290149  0.36497443882755753  0.5586850836668749  1.0000
  H   H22       1.0  0.9767948284970152  0.5393313145383519  0.311642571293967  1.0000
  H   H23       1.0  0.978106117214211  0.5371253763422741  0.8947286183061688  1.0000
  H   H24       1.0  0.8331820711512102  0.27847544526194484  0.11670809651774251  1.0000
  H   H25       1.0  0.881228797067267  0.36521620142982125  0.6657152299322222  1.0000
  H   H26       1.0  0.9900253021596355  0.7655299535661662  0.930591747815679  1.0000
  H   H27       1.0  0.0856740527309594  0.9351353670631732  0.9210618461101424  1.0000
  H   H28       1.0  0.20284397415340627  0.7390420861870761  0.2528029414016728  1.0000
  H   H29       1.0  0.10824146848216243  0.5677207769807282  0.2616169799909245  1.0000
  H   H30       1.0  0.18374250055322297  0.04925704844723633  0.04549481120884181  1.0000
  H   H31       1.0  0.2356241663548604  0.9644608997975255  0.17814751529651973  1.0000
  H   H32       1.0  0.30521174982157295  0.9967532551485936  0.9817943674747998  1.0000
  H   H33       1.0  0.2974702836098724  0.8389058915417384  0.03219292195671919  1.0000
  Zn  Zn1       1.0  0.8196938849176342  0.40412148707582657  0.6063155944135721  1.0000
  Zn  Zn2       1.0  0.9843244753228397  0.40071213018088897  0.6141968805972684  1.0000
  C   C41       1.0  0.9019802331822744  0.397296417280255  0.8474429613010808  1.0000
  C   C42       1.0  0.902039924497868  0.4075388015328803  0.3730697266241667  1.0000
  C   C43       1.0  0.9019655771154292  0.6396280873506575  0.6049933331723647  1.0000
  C   C44       1.0  0.9020545246681285  0.1652055722072967  0.6155194218795921  1.0000
  O   O2        1.0  0.96450831397846  0.40798705207937225  0.4244436229511617  1.0000
  O   O3        1.0  0.9644626527586896  0.39425956384828736  0.8020504053623552  1.0000
  O   O4        1.0  0.9644499754057235  0.5899454698781827  0.6062705744552055  1.0000
  O   O5        1.0  0.9645209351654987  0.21230115648192216  0.6202233537952406  1.0000
  O   O6        1.0  0.8394973688946351  0.592532461939651  0.6002891185192725  1.0000
  O   O7        1.0  0.8395100459638458  0.39684811632979633  0.7960688796033861  1.0000
  O   O8        1.0  0.8395557074514899  0.4105755589482094  0.4184605358813304  1.0000
  O   O9        1.0  0.8395683286241158  0.21488965408317331  0.6142403640921533  1.0000
