data_image0
_chemical_formula_structural       NC6NC3H6C9H10C6OCH7Zn2C4O8
_chemical_formula_sum              "N2 C29 H23 O9 Zn2"
_cell_length_a       14.934028789175542
_cell_length_b       10.297183801781406
_cell_length_c       9.273891588657152
_cell_angle_alpha    86.04956984296379
_cell_angle_beta     89.65557739525336
_cell_angle_gamma    89.9601079490019

_space_group_name_H-M_alt    "P 1"
_space_group_IT_number       1

loop_
  _space_group_symop_operation_xyz
  'x, y, z'

loop_
  _atom_site_type_symbol
  _atom_site_label
  _atom_site_symmetry_multiplicity
  _atom_site_fract_x
  _atom_site_fract_y
  _atom_site_fract_z
  _atom_site_occupancy
  N   N1        1.0  0.8486625307263088  0.4079814034298963  0.4088400510191752  1.0000
  C   C1        1.0  0.7711788384835323  0.40698668914134495  0.4081617634971133  1.0000
  C   C2        1.0  0.6747852301870986  0.4057446925983984  0.40731504783742256  1.0000
  C   C3        1.0  0.6267949423956998  0.5024713432818642  0.4731508314677462  1.0000
  C   C4        1.0  0.5332855654605198  0.5014741148228281  0.472471951373282  1.0000
  C   C5        1.0  0.4868538103617767  0.4037995995956327  0.405991085987224  1.0000
  C   C6        1.0  0.3902031044704103  0.40589531547180036  0.4074187945296268  1.0000
  N   N2        1.0  0.3127190647999125  0.40755853290858757  0.4085521895811295  1.0000
  C   C7        1.0  0.5348416798760333  0.30573475234671466  0.3392439238183129  1.0000
  C   C8        1.0  0.48677543940535145  0.19954226102738654  0.26696663472838744  1.0000
  C   C9        1.0  0.6289797295106694  0.3077495559965908  0.34061532679384854  1.0000
  H   H1        1.0  0.6616597900754555  0.5786829764724404  0.5250239114109303  1.0000
  H   H2        1.0  0.49707185028653167  0.5770988067606069  0.5239453937012268  1.0000
  H   H3        1.0  0.44433174966833894  0.24302337301661606  0.17834357105149512  1.0000
  H   H4        1.0  0.4437545505580973  0.14358330730250102  0.34710344295738293  1.0000
  H   H5        1.0  0.534396235132852  0.13075979546191685  0.22014428930573704  1.0000
  H   H6        1.0  0.6666841350848125  0.2331309002131483  0.2898269199827743  1.0000
  C   C10       1.0  0.08069752686080475  0.026296052546628472  0.40890034164755984  1.0000
  C   C11       1.0  0.07861282281781024  0.03492508118971838  0.2572246309789106  1.0000
  C   C12       1.0  0.0775445608546485  0.922729497699479  0.1795167290647275  1.0000
  C   C13       1.0  0.07860437017253402  0.7997492177002323  0.25663675861477264  1.0000
  C   C14       1.0  0.08069264498897329  0.7892339645958042  0.40850431631364637  1.0000
  C   C15       1.0  0.08172474145620301  0.9029754655974253  0.48364475164992315  1.0000
  C   C16       1.0  0.07528955847985674  0.9414945965203331  0.015468738079195802  1.0000
  C   C17       1.0  0.02313574629687087  0.8421730218972645  0.9352630711786354  1.0000
  C   C18       1.0  0.12516521562798766  0.8423510383353655  0.9306208700719066  1.0000
  H   H7        1.0  0.0815093326609721  0.3505094572733536  0.46734585271756485  1.0000
  H   H8        1.0  0.07780820007571561  0.12967872749377451  0.19866943835643158  1.0000
  H   H9        1.0  0.07781991928128829  0.7116874944654554  0.19970763370949673  1.0000
  H   H10       1.0  0.08333268559557602  0.8955905463393589  0.6006657477904311  1.0000
  H   H11       1.0  0.08462491334126881  0.5621571732425455  0.6953393777436312  1.0000
  H   H12       1.0  0.0745655831555112  0.041782236329628304  0.9627408293943381  1.0000
  H   H13       1.0  0.993028397697805  0.7590961201910218  0.0008772855124712361  1.0000
  H   H14       1.0  0.991898731969739  0.8822455465781689  0.8333021306594186  1.0000
  H   H15       1.0  0.1570352880369933  0.7593830778879346  0.9934159489768768  1.0000
  H   H16       1.0  0.15355994061463107  0.882525227648508  0.8259454373795379  1.0000
  C   C19       1.0  0.08216201688325042  0.4043232394897318  0.9854278876481177  1.0000
  C   C20       1.0  0.15549198070295622  0.4591250636148494  0.05392761969483307  1.0000
  C   C21       1.0  0.2237427242458516  0.5236317565309319  0.9740420217299142  1.0000
  C   C22       1.0  0.21890756034876913  0.5336619116325478  0.8225992045177346  1.0000
  C   C23       1.0  0.14745882683633849  0.47807180258754234  0.7527565158594411  1.0000
  C   C24       1.0  0.07922811919535606  0.4112067264043741  0.8319767768714805  1.0000
  O   O1        1.0  0.29462729875294946  0.5768363886397294  0.04917700863943896  1.0000
  C   C25       1.0  0.36836384007851647  0.6451353625078035  0.9820194113015291  1.0000
  H   H17       1.0  0.869175714101555  0.3247308203799908  0.09661866166093658  1.0000
  H   H18       1.0  0.27048910176159313  0.5832200338046121  0.7576193237200339  1.0000
  H   H19       1.0  0.1467362724749772  0.48476755487689754  0.6356723128714972  1.0000
  H   H20       1.0  0.9371945563686405  0.35246958019984437  0.5566527910146486  1.0000
  H   H21       1.0  0.3443270432127774  0.7330647080433835  0.9175931159272257  1.0000
  H   H22       1.0  0.40570024462964804  0.580629957504524  0.9116170462354889  1.0000
  H   H23       1.0  0.4142002470035253  0.6761441156225257  0.06681840590432442  1.0000
  Zn  Zn1       1.0  0.9825792069976413  0.4078559587120316  0.4087652995245983  1.0000
  Zn  Zn2       1.0  0.17880237782117536  0.407673432388155  0.40863873100822024  1.0000
  C   C26       1.0  0.07978073920610712  0.4047305368428649  0.6719636157314071  1.0000
  C   C27       1.0  0.0816029878628113  0.4108004924853679  0.14544055404124956  1.0000
  C   C28       1.0  0.08070885233730003  0.6449757554384923  0.40283537100125644  1.0000
  C   C29       1.0  0.080674807518057  0.17055371384458698  0.41456887647137575  1.0000
  O   O2        1.0  0.15588104335502095  0.41289938267066423  0.19909423746575539  1.0000
  O   O3        1.0  0.15443153151814193  0.4024921300349167  0.6182134553152752  1.0000
  O   O4        1.0  0.15517998558206186  0.5964931954869995  0.4008904935151185  1.0000
  O   O5        1.0  0.15513252270791703  0.21889832569486248  0.4164170912298961  1.0000
  O   O6        1.0  0.00624899514958788  0.5966310654689639  0.4009869393385319  1.0000
  O   O7        1.0  0.005500541337917445  0.4026315601256747  0.6183098234743225  1.0000
  O   O8        1.0  0.006950059240582672  0.41303875340165336  0.19918887267789875  1.0000
  O   O9        1.0  0.006201538215350634  0.219037688013211  0.4165118345136649  1.0000
