data_image0
_chemical_formula_structural       NC8NH4C6ClH5C6ClH4Zn2C4O8
_chemical_formula_sum              "N2 C24 H13 Cl2 Zn2 O8"
_cell_length_a       13.859017981522156
_cell_length_b       9.276545438789551
_cell_length_c       9.276548810779733
_cell_angle_alpha    86.11252841497436
_cell_angle_beta     89.72476127004172
_cell_angle_gamma    89.4096370293992

_space_group_name_H-M_alt    "P 1"
_space_group_IT_number       1

loop_
  _space_group_symop_operation_xyz
  'x, y, z'

loop_
  _atom_site_type_symbol
  _atom_site_label
  _atom_site_symmetry_multiplicity
  _atom_site_fract_x
  _atom_site_fract_y
  _atom_site_fract_z
  _atom_site_occupancy
  N   N1        1.0  0.902913880484492  0.5635571887863069  0.41147086744457395  1.0000
  C   C1        1.0  0.8308087364242656  0.5559678564778583  0.3501739030826565  1.0000
  C   C2        1.0  0.7411141769401808  0.5465280921009068  0.27392845566944013  1.0000
  C   C3        1.0  0.7415367508061401  0.5281196515452449  0.12524609248989127  1.0000
  C   C4        1.0  0.6544054138514469  0.5189532755138635  0.05120196465185889  1.0000
  C   C5        1.0  0.5666714637866815  0.5281213714577806  0.1252458452867493  1.0000
  C   C6        1.0  0.5658839339386948  0.5465290635929236  0.2739282725136645  1.0000
  C   C7        1.0  0.6531966476979804  0.5557312373343983  0.3482583098745793  1.0000
  C   C8        1.0  0.4755689142104281  0.5559687579478999  0.3501736632703189  1.0000
  N   N2        1.0  0.4029649629630502  0.5635575013837393  0.4114707740567105  1.0000
  H   H1        1.0  0.8090703072184812  0.5208758027851279  0.06674115079602605  1.0000
  H   H2        1.0  0.6548727399608691  0.5047338061396793  0.9363512368309493  1.0000
  H   H3        1.0  0.49961401749767953  0.5208788963773288  0.06674073280376858  1.0000
  H   H4        1.0  0.6527283651128651  0.5699793905271582  0.4633425367049371  1.0000
  C   C9        1.0  0.15585691508924615  0.14012004929558164  0.4112332775062877  1.0000
  C   C10       1.0  0.15664890875780868  0.22255732730495723  0.27823210707944557  1.0000
  C   C11       1.0  0.14865316378257898  0.1562901664148442  0.14812573251836314  1.0000
  C   C12       1.0  0.13967262447701412  0.006707171371671536  0.14901887375050804  1.0000
  C   C13       1.0  0.1403771173510302  0.9227091925710538  0.27957880572788785  1.0000
  C   C14       1.0  0.150031228207526  0.9869837238721763  0.4117208232639004  1.0000
  Cl  Cl1       1.0  0.1484334181075247  0.26140975710364794  0.9836182659469928  1.0000
  H   H5        1.0  0.20447841019513344  0.4051473050355705  0.637781907552422  1.0000
  H   H6        1.0  0.1611792686099489  0.33925185113811374  0.2753791798858527  1.0000
  H   H7        1.0  0.1330646594926759  0.9550666427235877  0.0483608136222844  1.0000
  H   H8        1.0  0.13566837765549788  0.8064245341815143  0.2769290979147947  1.0000
  H   H9        1.0  0.11693815702817423  0.69037530770582  0.6447291582510848  1.0000
  C   C15       1.0  0.15433065688781045  0.5596887939135244  0.9883254661122631  1.0000
  C   C16       1.0  0.23489260374208798  0.6145018343798954  0.057463476606333774  1.0000
  C   C17       1.0  0.30996889399502386  0.6800619839295072  0.977268731280783  1.0000
  C   C18       1.0  0.30560844812072846  0.6919126025832223  0.826836028453303  1.0000
  C   C19       1.0  0.22715587069100462  0.6360881107002261  0.7560483289150857  1.0000
  C   C20       1.0  0.15155743903603397  0.5674148807095327  0.8346286517864713  1.0000
  Cl  Cl2       1.0  0.40910463730544144  0.7494924753785963  0.06581314727220677  1.0000
  H   H10       1.0  0.03836965507644918  0.398293460486439  0.28123471766501074  1.0000
  H   H11       1.0  0.3635124078171037  0.743208279911036  0.7643762914254449  1.0000
  H   H12       1.0  0.22675034596992408  0.6436119863542467  0.6390043692762446  1.0000
  H   H13       1.0  0.9969265041073472  0.5145496908681007  0.5580021519573766  1.0000
  Zn  Zn1       1.0  0.04721782641555561  0.5635535044258939  0.4114791557587425  1.0000
  Zn  Zn2       1.0  0.25866106203416117  0.5635495284445324  0.41147426896980366  1.0000
  C   C21       1.0  0.15211901873986358  0.5602101494925888  0.6746558963014158  1.0000
  C   C22       1.0  0.15376216568419765  0.5668947039997483  0.14829767085280274  1.0000
  C   C23       1.0  0.15114623783046532  0.826856007760906  0.40588649412615774  1.0000
  C   C24       1.0  0.15473488610863861  0.3002471140160594  0.4170671488567823  1.0000
  O   O1        1.0  0.23381302408950475  0.5693052736632895  0.20198394599541047  1.0000
  O   O2        1.0  0.23254869254799937  0.5577954705695585  0.6209654967683477  1.0000
  O   O3        1.0  0.23176207305616692  0.7731153870173626  0.4039323038118574  1.0000
  O   O4        1.0  0.2345995717131646  0.3539853665455037  0.41901703091649956  1.0000
  O   O5        1.0  0.07127924458136663  0.7731176663277795  0.40393639380613544  1.0000
  O   O6        1.0  0.07206585240297207  0.5577994815982041  0.6209695109279929  1.0000
  O   O7        1.0  0.0733301900313208  0.569309218627635  0.2019862276588542  1.0000
  O   O8        1.0  0.07411673736796875  0.35398930218268787  0.419019420609434  1.0000
