data_image0
_chemical_formula_structural       NC8NH4C7NH5C6ClH5Zn2C4O8
_chemical_formula_sum              "N3 C25 H14 Cl1 Zn2 O8"
_cell_length_a       13.859017124695912
_cell_length_b       9.275154477615127
_cell_length_c       10.302974078461048
_cell_angle_alpha    85.7869106659326
_cell_angle_beta     89.99985762628332
_cell_angle_gamma    89.43373790894346

_space_group_name_H-M_alt    "P 1"
_space_group_IT_number       1

loop_
  _space_group_symop_operation_xyz
  'x, y, z'

loop_
  _atom_site_type_symbol
  _atom_site_label
  _atom_site_symmetry_multiplicity
  _atom_site_fract_x
  _atom_site_fract_y
  _atom_site_fract_z
  _atom_site_occupancy
  N   N1        1.0  0.8981555928210819  0.5778885613227223  0.5736004543569092  1.0000
  C   C1        1.0  0.8259523341323938  0.5550351980461329  0.5229319906748053  1.0000
  C   C2        1.0  0.7361357541082921  0.5266089584076623  0.45990693525479154  1.0000
  C   C3        1.0  0.6483371520711839  0.5543216665906712  0.5213484372893495  1.0000
  C   C4        1.0  0.5609054261434464  0.5266101839235275  0.45990641785015324  1.0000
  C   C5        1.0  0.5614547608213731  0.4711784951678049  0.3370040400584602  1.0000
  C   C6        1.0  0.6490700976776451  0.44357229930961983  0.2757990422344909  1.0000
  C   C7        1.0  0.7363201352304498  0.47117614629974214  0.337005093023015  1.0000
  C   C8        1.0  0.47071248928797976  0.555036124366989  0.5229315454137503  1.0000
  N   N2        1.0  0.3982067162763931  0.5778888838517624  0.5736002609467175  1.0000
  H   H1        1.0  0.6480531513768532  0.5972279593247667  0.616477825180513  1.0000
  H   H2        1.0  0.4943036897345814  0.4493675735777834  0.28864285919573396  1.0000
  H   H3        1.0  0.6493535842865326  0.40075364978133243  0.18086231010183695  1.0000
  H   H4        1.0  0.8037599357792381  0.44936312450906457  0.28864480467567244  1.0000
  C   C9        1.0  0.15097793085934952  0.15449944352344994  0.5720980529622385  1.0000
  C   C10       1.0  0.12449294007514067  0.23767851289842934  0.4576316195996355  1.0000
  C   C11       1.0  0.09015962653259169  0.17164006682141356  0.34922864706454  1.0000
  C   C12       1.0  0.08174599016613948  0.021519535896731733  0.35401542789024165  1.0000
  C   C13       1.0  0.1091252671847247  0.9371327922025378  0.4658726895430171  1.0000
  C   C14       1.0  0.14539368737150335  0.0012669575487953538  0.5751139074567893  1.0000
  C   C15       1.0  0.062390938375156635  0.2584009476397142  0.2333825950214725  1.0000
  N   N3        1.0  0.04007261564820008  0.32814078978195266  0.14027204287802175  1.0000
  H   H5        1.0  0.16968676914045644  0.23117050499838987  0.8907708652825029  1.0000
  H   H6        1.0  0.1284334711441415  0.3546379161261115  0.45377955335547293  1.0000
  H   H7        1.0  0.054844550082804096  0.9693929435713324  0.2707009354271448  1.0000
  H   H8        1.0  0.10405855790060237  0.8206651925544562  0.4657584383638984  1.0000
  H   H9        1.0  0.16208542934358716  0.7024967177613565  0.7886337548188277  1.0000
  C   C16       1.0  0.1481858149570663  0.5778832087600341  0.19236346733590448  1.0000
  C   C17       1.0  0.13238938002998268  0.4281356301978672  0.20106380683127198  1.0000
  C   C18       1.0  0.12455166938785833  0.353834960393133  0.08842388677480506  1.0000
  C   C19       1.0  0.13238942264738585  0.42813571162328823  0.9659559081501524  1.0000
  C   C20       1.0  0.1481858129866891  0.5778831343368311  0.9548484861442622  1.0000
  C   C21       1.0  0.15600704703341695  0.6520269982721034  0.06870233030659012  1.0000
  Cl  Cl1       1.0  0.10481817261089921  0.16676465992262893  0.10079622046135636  1.0000
  H   H10       1.0  0.15413661571201454  0.6342905369641811  0.5163891387039918  1.0000
  H   H11       1.0  0.1261067821047499  0.36857752129287324  0.2950493647347767  1.0000
  H   H12       1.0  0.12610684966590058  0.36857750071989204  0.8798483985875748  1.0000
  H   H13       1.0  0.16818968848882165  0.7675168254833512  0.061064042320150266  1.0000
  H   H14       1.0  0.154136432191887  0.6342905242052921  0.6233615081772376  1.0000
  Zn  Zn1       1.0  0.04245957374599607  0.5778848050244624  0.5736078860020576  1.0000
  Zn  Zn2       1.0  0.2539028052782235  0.5778808789492562  0.5736034355598894  1.0000
  C   C22       1.0  0.14822152595310678  0.5721394461277163  0.8107020074751488  1.0000
  C   C23       1.0  0.14814315002760647  0.58362805697073  0.3365094479414743  1.0000
  C   C24       1.0  0.1464442576702525  0.8412098537916789  0.5693703585587014  1.0000
  C   C25       1.0  0.14992035758328948  0.31455591708670205  0.5778411599057043  1.0000
  O   O1        1.0  0.22837047718960446  0.5855483005751838  0.3848844445006283  1.0000
  O   O2        1.0  0.22847472623369192  0.5702151350517759  0.7623232555374495  1.0000
  O   O3        1.0  0.22703847792342335  0.7874928921201825  0.5674462469380179  1.0000
  O   O4        1.0  0.2298066532806056  0.3682705538219688  0.5797613557959229  1.0000
  O   O5        1.0  0.06655565358840577  0.7874951301546598  0.5674499657607193  1.0000
  O   O6        1.0  0.06799189047063826  0.5702191053092265  0.7623269113070641  1.0000
  O   O7        1.0  0.06788764182209661  0.5855522205903121  0.38488653920820964  1.0000
  O   O8        1.0  0.06932381797715736  0.3682744635248143  0.5797635478023369  1.0000
