data_image0
_chemical_formula_structural       NC8NH4C9H10C9H8Zn2C4O8
_chemical_formula_sum              "N2 C30 H22 Zn2 O8"
_cell_length_a       13.859017124695912
_cell_length_b       10.297183801781406
_cell_length_c       9.275155815604963
_cell_angle_alpha    86.02609203372302
_cell_angle_beta     90.3574901998649
_cell_angle_gamma    89.9976557662862

_space_group_name_H-M_alt    "P 1"
_space_group_IT_number       1

loop_
  _space_group_symop_operation_xyz
  'x, y, z'

loop_
  _atom_site_type_symbol
  _atom_site_label
  _atom_site_symmetry_multiplicity
  _atom_site_fract_x
  _atom_site_fract_y
  _atom_site_fract_z
  _atom_site_occupancy
  N   N1        1.0  0.9019052743305284  0.4093448674517277  0.4095315755622253  1.0000
  C   C1        1.0  0.8293169500699972  0.38831827477872  0.35338393174087446  1.0000
  C   C2        1.0  0.7390214006444433  0.3621642626859751  0.28354347877568187  1.0000
  C   C3        1.0  0.6516897381280876  0.38766176549536424  0.3516291331132544  1.0000
  C   C4        1.0  0.5637910783299178  0.3621653623826431  0.2835428989696689  1.0000
  C   C5        1.0  0.5634064029284201  0.31116453866659  0.1473501106360191  1.0000
  C   C6        1.0  0.6505565965769486  0.28576503723285085  0.07952653627937156  1.0000
  C   C7        1.0  0.7382717667920907  0.3111624314760171  0.14735128995109315  1.0000
  C   C8        1.0  0.4740771092452303  0.3883191055310321  0.35338343334663525  1.0000
  N   N2        1.0  0.40195639900744773  0.4093451563748971  0.4095313594253276  1.0000
  H   H1        1.0  0.6521286891277575  0.42713837961177253  0.4570456138009189  1.0000
  H   H2        1.0  0.4958878125815818  0.2910970268734621  0.09375924647044775  1.0000
  H   H3        1.0  0.650118600534509  0.24636904632341852  0.97432354142662  1.0000
  H   H4        1.0  0.8053440384247313  0.29109303515225937  0.09376142588135883  1.0000
  C   C9        1.0  0.1519396834344218  0.027871048977811123  0.40973569059960435  1.0000
  C   C10       1.0  0.14849333636859186  0.036554390189984076  0.25807446068876705  1.0000
  C   C11       1.0  0.1467274488010093  0.9243866324282684  0.1803739775618738  1.0000
  C   C12       1.0  0.14847957729267236  0.8013787368681374  0.2574866442188901  1.0000
  C   C13       1.0  0.15193128985148885  0.7908091033488736  0.40933970342287984  1.0000
  C   C14       1.0  0.1536378948977679  0.9045236971897942  0.4844729645489805  1.0000
  C   C15       1.0  0.14299971413275858  0.9432104739017401  0.016341648384837308  1.0000
  C   C16       1.0  0.08616581407145896  0.8438710741599039  0.9361119938061546  1.0000
  C   C17       1.0  0.19607297588442704  0.8441438350485371  0.9315335200807052  1.0000
  H   H5        1.0  0.15327683346002852  0.35206353308354604  0.4681756270400921  1.0000
  H   H6        1.0  0.14716305888062342  0.13132900431369765  0.19952485855429813  1.0000
  H   H7        1.0  0.1471839004864659  0.7133373971995975  0.20056295320813722  1.0000
  H   H8        1.0  0.1562963404110589  0.8970968742348581  0.6014827882025218  1.0000
  H   H9        1.0  0.1584377855685304  0.56362959185665  0.6961473739045432  1.0000
  H   H10       1.0  0.14180244052417468  0.04351699538195964  0.9636187741901888  1.0000
  H   H11       1.0  0.054242126223766896  0.7607424048860612  0.001700722283355379  1.0000
  H   H12       1.0  0.051699116473996394  0.8839529071555005  0.8341422935923974  1.0000
  H   H13       1.0  0.23091198994440434  0.7611816589181597  0.9943418240111264  1.0000
  H   H14       1.0  0.2258421720106878  0.8843827071352783  0.8268865736847912  1.0000
  C   C18       1.0  0.1501676102349574  0.4060565163267378  0.9863081819545152  1.0000
  C   C19       1.0  0.07468429879414694  0.46935407384193906  0.05409023094046317  1.0000
  C   C20       1.0  0.005663765567120562  0.5412851048790464  0.9727681564117617  1.0000
  C   C21       1.0  0.01084655593591322  0.5514248256337406  0.8221810944471826  1.0000
  C   C22       1.0  0.0843881802686204  0.48742931572558645  0.7526910436648704  1.0000
  C   C23       1.0  0.15370332653480467  0.41262359266733206  0.8327671978322364  1.0000
  C   C24       1.0  0.9398755700122382  0.6263907846493735  0.7385448271730368  1.0000
  C   C25       1.0  0.8804501545244863  0.6891645377320708  0.6684842252906167  1.0000
  C   C26       1.0  0.8083480985936278  0.7653298732676953  0.5834660542286225  1.0000
  H   H15       1.0  0.3741293291005696  0.3012479081455446  0.09932033818871355  1.0000
  H   H16       1.0  0.07034938152324521  0.46575310222226235  0.17088363962238784  1.0000
  H   H17       1.0  0.9487233342017317  0.5901109075061792  0.027555868311674787  1.0000
  H   H18       1.0  0.08617090353933543  0.4935378196899567  0.6355415767927699  1.0000
  H   H19       1.0  0.30313940045598  0.33739516774428413  0.5592237956932182  1.0000
  H   H20       1.0  0.8279554155097295  0.7690622752395648  0.46746512160168585  1.0000
  H   H21       1.0  0.736485372751487  0.7190710991295721  0.5985163712280182  1.0000
  H   H22       1.0  0.8059050593933059  0.865637041654967  0.6199187231865269  1.0000
  Zn  Zn1       1.0  0.04620926504442635  0.4093415471472991  0.40953984227821905  1.0000
  Zn  Zn2       1.0  0.2576524501515276  0.40933797154056545  0.40953491905831396  1.0000
  C   C27       1.0  0.153032919551529  0.4062072022514045  0.6727710400341791  1.0000
  C   C28       1.0  0.15083110517024467  0.41247395656606844  0.14630386185562116  1.0000
  C   C29       1.0  0.15190390639876328  0.646553009963667  0.40367135767941575  1.0000
  C   C30       1.0  0.15196004651039696  0.1721265887185755  0.41540362186061586  1.0000
  O   O1        1.0  0.2312953669968265  0.414620683907442  0.19999800821399738  1.0000
  O   O2        1.0  0.23304914103677635  0.40405677789595984  0.619072742693509  1.0000
  O   O3        1.0  0.2321363732024313  0.5981390688561765  0.4017728445913107  1.0000
  O   O4        1.0  0.2322080622284446  0.22053840140283906  0.417297798250142  1.0000
  O   O5        1.0  0.07165358081229578  0.598141117287601  0.4017769630804888  1.0000
  O   O6        1.0  0.0725663483040413  0.4040603864651904  0.6190767835265548  1.0000
  O   O7        1.0  0.07081256709075823  0.4146242337646905  0.20000031628411086  1.0000
  O   O8        1.0  0.07172526276988989  0.220541942807049  0.4173002143804079  1.0000
