data_image0
_chemical_formula_structural       NC10NC5H10C7OC4NC3H8C7OC6OCH11Zn2C4O8
_chemical_formula_sum              "N3 C47 H29 O11 Zn2"
_cell_length_a       19.4436361288709
_cell_length_b       10.299371701877257
_cell_length_c       10.299362532796529
_cell_angle_alpha    85.59861751689631
_cell_angle_beta     89.71996928525026
_cell_angle_gamma    89.42830201241743

_space_group_name_H-M_alt    "P 1"
_space_group_IT_number       1

loop_
  _space_group_symop_operation_xyz
  'x, y, z'

loop_
  _atom_site_type_symbol
  _atom_site_label
  _atom_site_symmetry_multiplicity
  _atom_site_fract_x
  _atom_site_fract_y
  _atom_site_fract_z
  _atom_site_occupancy
  N   N1        1.0  0.6475737820221248  0.4088722849646964  0.5626291542167727  1.0000
  C   C1        1.0  0.5887416317088086  0.4187759786719056  0.5770167824946304  1.0000
  C   C2        1.0  0.5154170789900894  0.4311272191018327  0.5950136557807608  1.0000
  C   C3        1.0  0.47321144586281394  0.3991184273199306  0.5003283247440331  1.0000
  C   C4        1.0  0.39730877946974824  0.4095573638474914  0.5056602987490826  1.0000
  C   C5        1.0  0.3575885025200643  0.3848230414748796  0.6127229650324995  1.0000
  C   C6        1.0  0.28146573975572586  0.38873801511254125  0.5997651139052382  1.0000
  C   C7        1.0  0.24092658839004844  0.4464110313017457  0.6935570352275722  1.0000
  C   C8        1.0  0.1692614292554744  0.4500474449996634  0.6830145470896243  1.0000
  C   C9        1.0  0.13714068689232392  0.3956148682144786  0.5789665142632254  1.0000
  C   C10       1.0  0.06334625784787641  0.3993125054282112  0.5682687678105465  1.0000
  N   N2        1.0  0.0040205420875667  0.4022852117382776  0.5596684889298142  1.0000
  C   C11       1.0  0.17695495948633408  0.3372348116081893  0.4855575605857363  1.0000
  C   C12       1.0  0.24863649298985352  0.33354414231248164  0.4958482520316876  1.0000
  C   C13       1.0  0.3857435773746767  0.3443789028634954  0.7438018204678001  1.0000
  C   C14       1.0  0.4444203747078564  0.3875066163376273  0.791060311072574  1.0000
  C   C15       1.0  0.48862189683622953  0.4853551753907279  0.7167299739264603  1.0000
  H   H1        1.0  0.4952900172640606  0.36999003386710083  0.41001096394824343  1.0000
  H   H2        1.0  0.37259398412253314  0.43204023043659795  0.4125108089121941  1.0000
  H   H3        1.0  0.2648168883733066  0.48971198237628244  0.7744212716271957  1.0000
  H   H4        1.0  0.1389350799009836  0.49537111848201865  0.7559521132232587  1.0000
  H   H5        1.0  0.1525928605765409  0.29412955960195997  0.40502787919738203  1.0000
  H   H6        1.0  0.2782971618014708  0.285977173535127  0.42360617290376196  1.0000
  H   H7        1.0  0.3547850153466994  0.28017010567485934  0.8080243179765573  1.0000
  H   H8        1.0  0.4595865734500952  0.35345181676309556  0.8889815174085115  1.0000
  H   H9        1.0  0.4585160678250464  0.5760660001586679  0.6915122617123541  1.0000
  H   H10       1.0  0.53192174032983  0.5109490375567639  0.7798242904695327  1.0000
  C   C16       1.0  0.8257644579055713  0.024208883202776692  0.5610221257710175  1.0000
  C   C17       1.0  0.8290870791099051  0.03344626866486289  0.42433324349276624  1.0000
  C   C18       1.0  0.8299819380357655  0.9209508506597975  0.3553352501522433  1.0000
  C   C19       1.0  0.8290956316263979  0.7981778926488114  0.42465055994866474  1.0000
  C   C20       1.0  0.8258364459532112  0.7869384925641365  0.5612867328933204  1.0000
  C   C21       1.0  0.8240087562898687  0.900558338088836  0.6286676128876993  1.0000
  C   C22       1.0  0.834212735332055  0.930547804155842  0.21105393129071914  1.0000
  O   O1        1.0  0.8673080136292856  0.8441724605728408  0.15583462704451678  1.0000
  C   C23       1.0  0.8008874240810948  0.03805169093088833  0.12942070689368879  1.0000
  C   C24       1.0  0.8303273976715666  0.08211497418882918  0.00920907744460098  1.0000
  C   C25       1.0  0.7988164805895278  0.18257623295152192  0.9306821041080626  1.0000
  C   C26       1.0  0.8295904569846506  0.22779824171549018  0.8082733031251034  1.0000
  N   N3        1.0  0.8543313655294049  0.2641471380556826  0.7098743523687534  1.0000
  C   C27       1.0  0.7373519560304729  0.2389028911539461  0.9713634039669016  1.0000
  C   C28       1.0  0.7073311340595181  0.194639179079221  0.0898403539992747  1.0000
  C   C29       1.0  0.7386445715144887  0.09447904062650346  0.16835757027492915  1.0000
  H   H11       1.0  0.8317533141859351  0.12830443611927222  0.3714258699662114  1.0000
  H   H12       1.0  0.8302952872367377  0.7113018670308922  0.3716297347204822  1.0000
  H   H13       1.0  0.8214476344618706  0.8926330903318174  0.7340449951496604  1.0000
  H   H14       1.0  0.8251633150299826  0.4551497297460868  0.6138162073172477  1.0000
  H   H15       1.0  0.8780204858266468  0.039132738671129326  0.9772368858877725  1.0000
  H   H16       1.0  0.7125492333112694  0.3165589118581508  0.9113315147412645  1.0000
  H   H17       1.0  0.6595204441467956  0.2376394179261081  0.12066054661160064  1.0000
  H   H18       1.0  0.7138089387216979  0.060255888122166645  0.25871780600078087  1.0000
  C   C30       1.0  0.8257467630011877  0.4054541557591477  0.1797879561562732  1.0000
  C   C31       1.0  0.760453174925616  0.3479800733382616  0.18359753188532113  1.0000
  C   C32       1.0  0.7272245526598365  0.3203205702547294  0.06835038356072665  1.0000
  C   C33       1.0  0.7606468783336181  0.3481400517777605  0.9483416800123493  1.0000
  C   C34       1.0  0.8258541490160418  0.4056932259398789  0.942520923117021  1.0000
  C   C35       1.0  0.8579713806473099  0.43427486699225404  0.058786462263990875  1.0000
  C   C36       1.0  0.6586257975010267  0.25829050662214037  0.07470096155390693  1.0000
  O   O2        1.0  0.6445662767617875  0.17934362510683188  0.1706867604255533  1.0000
  C   C37       1.0  0.6059795826413961  0.28581465399537165  0.9722326590610928  1.0000
  C   C38       1.0  0.600702139424783  0.40928489405259844  0.9044659930623373  1.0000
  C   C39       1.0  0.5503617211842691  0.4343948121721123  0.8091969368877009  1.0000
  C   C40       1.0  0.5040868183405842  0.33758553850673284  0.7804985237350572  1.0000
  C   C41       1.0  0.5086409665178793  0.2143222195519725  0.8491894806909106  1.0000
  C   C42       1.0  0.558975209205789  0.1890852162748642  0.9445309489397739  1.0000
  O   O3        1.0  0.4545777242657153  0.3676600812131434  0.6839353325763047  1.0000
  C   C43       1.0  0.4044216649372047  0.2788255895638241  0.6449480950955659  1.0000
  H   H19       1.0  0.9490730836634631  0.5134141328486577  0.37990625881997486  1.0000
  H   H20       1.0  0.7349854362552253  0.32570974532632757  0.276335238207962  1.0000
  H   H21       1.0  0.736057732136766  0.3235143504236637  0.8594831218918171  1.0000
  H   H22       1.0  0.9082742136693336  0.47866876546567666  0.055028952819584864  1.0000
  H   H23       1.0  0.8509843763540469  0.4272868752171284  0.6128506663191402  1.0000
  H   H24       1.0  0.6349914946749307  0.48690205428415334  0.926032603529118  1.0000
  H   H25       1.0  0.4735616287033815  0.1374054473414208  0.8297264459495137  1.0000
  H   H26       1.0  0.5615749894050283  0.09339579703557299  0.9959265430430305  1.0000
  H   H27       1.0  0.3721200561935773  0.32811765268678994  0.567149923902424  1.0000
  H   H28       1.0  0.3708334050570555  0.24723324465826652  0.7287655484054567  1.0000
  H   H29       1.0  0.43005252603135924  0.19303187565923527  0.6060497126426592  1.0000
  Zn  Zn1       1.0  0.750436619300056  0.4069679288973073  0.5617822810557227  1.0000
  Zn  Zn2       1.0  0.9011576968273105  0.40417896344586657  0.5605260395222706  1.0000
  C   C44       1.0  0.8258318187247694  0.4004743853284358  0.7983462648034274  1.0000
  C   C45       1.0  0.8257641434446734  0.4106741152226893  0.32396217009056616  1.0000
  C   C46       1.0  0.8258185681879721  0.6427648197751636  0.5560616109741456  1.0000
  C   C47       1.0  0.8257773424133881  0.16838212144311848  0.5662468930453901  1.0000
  O   O4        1.0  0.8829678393776452  0.4113619176949106  0.37187161425403215  1.0000
  O   O5        1.0  0.8830219330415494  0.3976688427688639  0.7494829881999849  1.0000
  O   O6        1.0  0.8830104622010536  0.5933214474563466  0.5538364229239308  1.0000
  O   O7        1.0  0.8829792587744153  0.2157093232188338  0.5675180825879347  1.0000
  O   O8        1.0  0.7686150059192434  0.595437570077489  0.5547902384119219  1.0000
  O   O9        1.0  0.7686264768941143  0.39978652567599776  0.7504367349842975  1.0000
  O   O10       1.0  0.7685723830518739  0.41347955485569793  0.37282379963156376  1.0000
  O   O11       1.0  0.7685838024586622  0.21782695112136397  0.5684703653294816  1.0000
