data_image0
_chemical_formula_structural       NC8NC6H8C8H10C6FH3Zn2C4O8
_chemical_formula_sum              "N2 C32 H21 F1 Zn2 O8"
_cell_length_a       17.457602349358154
_cell_length_b       9.275653711864159
_cell_length_c       9.275646106892307
_cell_angle_alpha    85.13522125218176
_cell_angle_beta     92.91404810424501
_cell_angle_gamma    91.13236207428555

_space_group_name_H-M_alt    "P 1"
_space_group_IT_number       1

loop_
  _space_group_symop_operation_xyz
  'x, y, z'

loop_
  _atom_site_type_symbol
  _atom_site_label
  _atom_site_symmetry_multiplicity
  _atom_site_fract_x
  _atom_site_fract_y
  _atom_site_fract_z
  _atom_site_occupancy
  N   N1        1.0  0.7138211065106757  0.628691009588314  0.4779680051394577  1.0000
  C   C1        1.0  0.6529992487725819  0.5778454729793849  0.4660307818838179  1.0000
  C   C2        1.0  0.5773342452695803  0.5145998548637902  0.4511914980108527  1.0000
  C   C3        1.0  0.5186009856647821  0.5582889448853723  0.5345513707097582  1.0000
  C   C4        1.0  0.44436229037580394  0.49738706000282384  0.5204013747968386  1.0000
  C   C5        1.0  0.3820267754532365  0.5435134845016399  0.6086822533140579  1.0000
  C   C6        1.0  0.30735946762351024  0.5646701804067282  0.5467651862524954  1.0000
  C   C7        1.0  0.24862727500770784  0.6081538609537245  0.6302444757544382  1.0000
  C   C8        1.0  0.17251774051377652  0.6300091635622842  0.5658670813469646  1.0000
  N   N2        1.0  0.1113386273390299  0.6475737444392584  0.5141078047501519  1.0000
  C   C9        1.0  0.264069004884522  0.6307446899554865  0.7762067143223188  1.0000
  C   C10       1.0  0.3379495273453328  0.6100151370031703  0.8385557213975331  1.0000
  C   C11       1.0  0.39666923351993316  0.5667258827169477  0.7555856696799537  1.0000
  C   C12       1.0  0.4301489021739883  0.39206117581804395  0.42129696635888086  1.0000
  C   C13       1.0  0.48886898848849203  0.348676656014389  0.33838248551129735  1.0000
  C   C14       1.0  0.5623224457118161  0.40969676236220204  0.35314401250688476  1.0000
  H   H1        1.0  0.5305402409568624  0.6409572574350582  0.6088300156439599  1.0000
  H   H2        1.0  0.2950689350632314  0.5492611327687893  0.43333422954297834  1.0000
  H   H3        1.0  0.21905104620105453  0.664325064378339  0.8416880006474923  1.0000
  H   H4        1.0  0.3497174477001291  0.6271573976199709  0.9515765799392073  1.0000
  H   H5        1.0  0.45325302849748716  0.5495419042490841  0.8067808582617091  1.0000
  H   H6        1.0  0.3739169837812188  0.3418705211812214  0.4093213939031458  1.0000
  H   H7        1.0  0.47743688911958804  0.26726163592715857  0.2627754672486733  1.0000
  H   H8        1.0  0.6073455072361076  0.3751450942657908  0.2882281286442747  1.0000
  C   C15       1.0  0.9147359647827823  0.2148599821343546  0.49488709144494686  1.0000
  C   C16       1.0  0.8967003308675737  0.2987796979146348  0.3645288219225262  1.0000
  C   C17       1.0  0.8717502201155117  0.2336785340857357  0.23912756013373393  1.0000
  C   C18       1.0  0.8659764579115602  0.0827614525416238  0.24321423442003676  1.0000
  C   C19       1.0  0.8848391037917199  0.9977231697768657  0.3708662743484315  1.0000
  C   C20       1.0  0.9104311513815  0.06139382847618969  0.49720180651795975  1.0000
  C   C21       1.0  0.8537482612118754  0.32507569740040515  0.09997490496461038  1.0000
  C   C22       1.0  0.9254745571103872  0.3513106210543133  0.013619354710965982  1.0000
  H   H9        1.0  0.9844168164684749  0.48058392720618814  0.7012658007271757  1.0000
  H   H10       1.0  0.9003719535141748  0.4158141916372294  0.36097430001041886  1.0000
  H   H11       1.0  0.8475838590389183  0.030654881522558682  0.14687380057361987  1.0000
  H   H12       1.0  0.8812918143552009  0.881092929855801  0.36966279070195385  1.0000
  H   H13       1.0  0.9177119208474547  0.760098447557964  0.7358641674696567  1.0000
  H   H14       1.0  0.8090152282802647  0.2707386229406407  0.03314887810777045  1.0000
  H   H15       1.0  0.8304766353913048  0.4308612883488874  0.12344044321048721  1.0000
  H   H16       1.0  0.9701900283996066  0.4089967193238102  0.07727031407715246  1.0000
  H   H17       1.0  0.9484899908112492  0.24681358949487972  0.9860137212657635  1.0000
  H   H18       1.0  0.9109817008332067  0.41875374053186504  0.9115692051248031  1.0000
  C   C23       1.0  0.9124713498874839  0.642634094733036  0.07220824047004593  1.0000
  C   C24       1.0  0.9826268817327356  0.6610349053113223  0.1506953521760801  1.0000
  C   C25       1.0  0.05190047126884112  0.6658564748357093  0.08155234848139714  1.0000
  C   C26       1.0  0.05223586388100365  0.6522172427035561  0.9331629448577621  1.0000
  C   C27       1.0  0.9832700762216428  0.6362768361807535  0.8528597208710971  1.0000
  C   C28       1.0  0.9126957441895188  0.633619770128468  0.9198806807843704  1.0000
  F   F1        1.0  0.11900611297106489  0.6820605127966661  0.15912998662462696  1.0000
  H   H19       1.0  0.7352050877009247  0.5170831915032983  0.16887086821280728  1.0000
  H   H20       1.0  0.10602117810740319  0.6553752707866578  0.879739334161232  1.0000
  H   H21       1.0  0.7926539455811313  0.5549889943301679  0.6338884036054413  1.0000
  Zn  Zn1       1.0  0.8285360980654959  0.6341362049864288  0.4884054935350311  1.0000
  Zn  Zn2       1.0  0.996623684758619  0.6421166056142049  0.5036821005521238  1.0000
  C   C29       1.0  0.9126808406302225  0.6295814280777232  0.7596365863840153  1.0000
  C   C30       1.0  0.9124807684943137  0.6466732868279164  0.23245132115660264  1.0000
  C   C31       1.0  0.9112393880321761  0.9014419149466525  0.4910124883235439  1.0000
  C   C32       1.0  0.9139221725624739  0.37481106467403386  0.501075486217686  1.0000
  O   O1        1.0  0.976272324596246  0.6510511087669633  0.29202773842738555  1.0000
  O   O2        1.0  0.9764638789658784  0.631259462608323  0.7116543419136623  1.0000
  O   O3        1.0  0.9752990282629819  0.8507901871148448  0.49473840811510256  1.0000
  O   O4        1.0  0.9774371178611504  0.4315203929990858  0.5089435588234514  1.0000
  O   O5        1.0  0.8477226076029106  0.8447324148798784  0.48314403004295975  1.0000
  O   O6        1.0  0.8488874494756394  0.6252034229366403  0.7000598916201641  1.0000
  O   O7        1.0  0.8486958949530267  0.6449950373224249  0.28043155273083187  1.0000
  O   O8        1.0  0.8498606882958696  0.4254643100942338  0.49734748130864825  1.0000
