data_image0
_chemical_formula_structural       NC10NC5H10C6NCOC6H11C7OC4NC2H9Zn2C4O8
_chemical_formula_sum              "N4 C45 H30 O10 Zn2"
_cell_length_a       19.4436361288709
_cell_length_b       10.29965916528486
_cell_length_c       10.29937507404574
_cell_angle_alpha    85.55751919023885
_cell_angle_beta     89.69773134605877
_cell_angle_gamma    89.43524921522018

_space_group_name_H-M_alt    "P 1"
_space_group_IT_number       1

loop_
  _space_group_symop_operation_xyz
  'x, y, z'

loop_
  _atom_site_type_symbol
  _atom_site_label
  _atom_site_symmetry_multiplicity
  _atom_site_fract_x
  _atom_site_fract_y
  _atom_site_fract_z
  _atom_site_occupancy
  N   N1        1.0  0.6479549602789082  0.40982005705062474  0.5625088267542907  1.0000
  C   C1        1.0  0.5891205381776666  0.41971362207893026  0.5768969217535553  1.0000
  C   C2        1.0  0.5157931414050398  0.43205219396017286  0.5948943799746942  1.0000
  C   C3        1.0  0.4736045917827583  0.4001091725537258  0.5002049581740177  1.0000
  C   C4        1.0  0.3977015187314004  0.4105441744955016  0.5055368971382936  1.0000
  C   C5        1.0  0.3579580072368373  0.38573711303136754  0.6126060612611586  1.0000
  C   C6        1.0  0.2818381158092564  0.3896608656879021  0.5996473953829191  1.0000
  C   C7        1.0  0.24128371186495726  0.4472680378990608  0.6934425709145422  1.0000
  C   C8        1.0  0.1696209178594211  0.4509115821311638  0.6828994060309115  1.0000
  C   C9        1.0  0.1375177098466512  0.39655179410927066  0.5788474697656327  1.0000
  C   C10       1.0  0.0637256812555286  0.4002566666628908  0.5681490363651811  1.0000
  N   N2        1.0  0.004401895303829301  0.4032351897051527  0.5595482052224132  1.0000
  C   C11       1.0  0.17734711213214827  0.33823733782699716  0.48543530413070796  1.0000
  C   C12       1.0  0.24902632792156076  0.3345397120751006  0.495726660495265  1.0000
  C   C13       1.0  0.3860839821756741  0.34520419022548504  0.7436931843908681  1.0000
  C   C14       1.0  0.4447539989115563  0.3882983511042082  0.7909528823530827  1.0000
  C   C15       1.0  0.4889768398827072  0.486195253880622  0.7166155547324957  1.0000
  H   H1        1.0  0.49569954887151824  0.37104347786558955  0.40988365218800754  1.0000
  H   H2        1.0  0.3730070004324748  0.43309030172989393  0.4123817242903218  1.0000
  H   H3        1.0  0.26516044857787635  0.4905123922198935  0.7743098103591951  1.0000
  H   H4        1.0  0.1392827377771954  0.49618403917434867  0.7558394882413064  1.0000
  H   H5        1.0  0.1529985214425385  0.29518844797742333  0.4049026316129847  1.0000
  H   H6        1.0  0.2786985426068072  0.28702354289527543  0.4234821715009804  1.0000
  H   H7        1.0  0.3551083079001803  0.28095307974861594  0.8079210969040431  1.0000
  H   H8        1.0  0.459898211822852  0.3541773288416532  0.8888803830390686  1.0000
  H   H9        1.0  0.4588819420109649  0.5769209424133586  0.6913937034516737  1.0000
  H   H10       1.0  0.5322655738759037  0.5117451754298408  0.7797124661365181  1.0000
  C   C16       1.0  0.8261212256418217  0.025168040656881944  0.5609135330868755  1.0000
  C   C17       1.0  0.8265971901409743  0.03449216938782817  0.4240892030080081  1.0000
  C   C18       1.0  0.8278511682837186  0.9223345934674128  0.35524098680065364  1.0000
  C   C19       1.0  0.8267267600625517  0.799299370364149  0.4243845206257826  1.0000
  C   C20       1.0  0.82624219368663  0.7878770627438237  0.561154696809274  1.0000
  C   C21       1.0  0.826184183925633  0.9014150300361986  0.6286452071780644  1.0000
  N   N3        1.0  0.8272811853970571  0.9354711307083317  0.21517510178639698  1.0000
  C   C22       1.0  0.8595261318801345  0.8437768769975618  0.1351786172531988  1.0000
  O   O1        1.0  0.9069702194068979  0.770063909124858  0.18176410205931703  1.0000
  C   C23       1.0  0.8395431455517157  0.8380020222485085  0.9969739368820361  1.0000
  C   C24       1.0  0.7759475565106331  0.889051780762109  0.9511549002812787  1.0000
  C   C25       1.0  0.7575254668063439  0.8824283680152253  0.8207811144918503  1.0000
  C   C26       1.0  0.8020583898709723  0.8245512038891059  0.7349518914976483  1.0000
  C   C27       1.0  0.8650486061859607  0.772725631012292  0.7793996931593878  1.0000
  C   C28       1.0  0.8837332706374459  0.7789879002681681  0.9096668201545376  1.0000
  H   H11       1.0  0.8245669328323255  0.2148557225262313  0.8190135319686992  1.0000
  H   H12       1.0  0.8265214029758488  0.12912334235408585  0.3702651385024185  1.0000
  H   H13       1.0  0.8250219816584556  0.712560347324032  0.37159167899204965  1.0000
  H   H14       1.0  0.8258264657423157  0.8933616210930705  0.7341212491405247  1.0000
  H   H15       1.0  0.8251412797789933  0.45606328804438007  0.6136269818435292  1.0000
  H   H16       1.0  0.8076595779932748  0.02198402833301705  0.1693962039052872  1.0000
  H   H17       1.0  0.7399019950198921  0.932389954666441  0.015938664671601096  1.0000
  H   H18       1.0  0.7085109882056972  0.921780396663008  0.7864013851051128  1.0000
  H   H19       1.0  0.7876611925361731  0.8194982899054878  0.634110811945571  1.0000
  H   H20       1.0  0.8994669423290472  0.7276224149207496  0.7128656696555992  1.0000
  H   H21       1.0  0.932920120362043  0.7384474119228323  0.9418263402032063  1.0000
  C   C29       1.0  0.8262051174934758  0.406664488630484  0.17964721637085534  1.0000
  C   C30       1.0  0.8791615460665304  0.49879489557327195  0.1707934331201002  1.0000
  C   C31       1.0  0.9053371439486275  0.5463529913850391  0.049075178286864134  1.0000
  C   C32       1.0  0.8790501501341352  0.4985592234904115  0.935568966654063  1.0000
  C   C33       1.0  0.8261582904106082  0.4063806761642001  0.9424210709782121  1.0000
  C   C34       1.0  0.7999185461974485  0.36122026605828106  0.06493689363338494  1.0000
  C   C35       1.0  0.961749181046825  0.6426273880822722  0.03965998485708977  1.0000
  O   O2        1.0  0.005701083738624215  0.6371305315294256  0.9496585058168474  1.0000
  C   C36       1.0  0.9682903151744521  0.7451495903093734  0.13226474811595001  1.0000
  C   C37       1.0  0.03370248695599343  0.7905010965253264  0.16349279019522922  1.0000
  C   C38       1.0  0.04038286696040316  0.8883871531569111  0.24968515958225868  1.0000
  C   C39       1.0  0.10755610677916218  0.9334968028635001  0.2819296171062571  1.0000
  N   N4        1.0  0.16155582303687147  0.9697542622690125  0.3078467651778416  1.0000
  C   C40       1.0  0.9816576431460587  0.9423218286859971  0.30438313150611784  1.0000
  C   C41       1.0  0.9164749149686476  0.8989776859179811  0.2726528692195147  1.0000
  H   H22       1.0  0.726993200889585  0.23132665836159666  0.40378375971986946  1.0000
  H   H23       1.0  0.9006396094803746  0.5325986108922413  0.25880915084086764  1.0000
  H   H24       1.0  0.8995283039955592  0.5344159095341254  0.8416652247774326  1.0000
  H   H25       1.0  0.7590932376478966  0.29019378059799195  0.07095869267265353  1.0000
  H   H26       1.0  0.8062361159172647  0.3701628381392166  0.6176548093852086  1.0000
  H   H27       1.0  0.07942022705716889  0.7489373791352754  0.12171947515981874  1.0000
  H   H28       1.0  0.9862578138371013  0.018113025771967717  0.371048210048903  1.0000
  H   H29       1.0  0.8710999918594633  0.9415137447491636  0.31427482898095227  1.0000
  H   H30       1.0  0.8585663348202984  0.7709151865099355  0.1618483514947231  1.0000
  Zn  Zn1       1.0  0.7508178463048758  0.40791633249623205  0.5616619667291431  1.0000
  Zn  Zn2       1.0  0.9015389984550601  0.4051283028629775  0.5604057435770735  1.0000
  C   C42       1.0  0.8261648038633346  0.4012607782880373  0.798238828049237  1.0000
  C   C43       1.0  0.8261936870189817  0.4117854651577563  0.32382899652968566  1.0000
  C   C44       1.0  0.826216114382997  0.6437108415583737  0.5559337439044669  1.0000
  C   C45       1.0  0.8261423248169907  0.1693338425488728  0.566134149851621  1.0000
  O   O3        1.0  0.8833877416997682  0.4124404033432864  0.37174098713686976  1.0000
  O   O4        1.0  0.8833646160820149  0.39848881056223573  0.7493730189631778  1.0000
  O   O5        1.0  0.8834052788377481  0.5942703166129732  0.5537099560212531  1.0000
  O   O6        1.0  0.8833470275205642  0.2166589075701439  0.5674039531311335  1.0000
  O   O7        1.0  0.7690097658056401  0.5963857287419001  0.5546637575969395  1.0000
  O   O8        1.0  0.7689691032985043  0.40060578298254335  0.7503267517835552  1.0000
  O   O9        1.0  0.7689922290506369  0.4145573310889445  0.37269315846819273  1.0000
  O   O10       1.0  0.7689515148611724  0.21877582599104084  0.5683562218319742  1.0000
