data_image0
_chemical_formula_structural       NC9NC4H8C8H6C6NCOCH7Zn2C4O8
_chemical_formula_sum              "N3 C33 H21 O9 Zn2"
_cell_length_a       16.32274767691083
_cell_length_b       9.27514070457351
_cell_length_c       10.30027207537675
_cell_angle_alpha    85.67809769676893
_cell_angle_beta     89.46610543676563
_cell_angle_gamma    90.11802364943966

_space_group_name_H-M_alt    "P 1"
_space_group_IT_number       1

loop_
  _space_group_symop_operation_xyz
  'x, y, z'

loop_
  _atom_site_type_symbol
  _atom_site_label
  _atom_site_symmetry_multiplicity
  _atom_site_fract_x
  _atom_site_fract_y
  _atom_site_fract_z
  _atom_site_occupancy
  N   N1        1.0  0.7807228264151787  0.5681906902857352  0.5601908997347607  1.0000
  C   C1        1.0  0.7280875280868696  0.5155419793917397  0.5057908710106138  1.0000
  C   C2        1.0  0.662661596915756  0.45015187057361233  0.43822560035920305  1.0000
  C   C3        1.0  0.6737051169470066  0.3607098724275768  0.34580404159480316  1.0000
  C   C4        1.0  0.5940909954121246  0.31706170163396497  0.3007053860583362  1.0000
  C   C5        1.0  0.5355216609199193  0.38093979056074484  0.36671372416655323  1.0000
  C   C6        1.0  0.4454880544026493  0.3640573845127967  0.34927184196067174  1.0000
  C   C7        1.0  0.3903160405665029  0.43851142531329784  0.42620142991813936  1.0000
  C   C8        1.0  0.3055253763367854  0.42408290988180825  0.4112944926114295  1.0000
  C   C9        1.0  0.2499544687904331  0.5008258051113488  0.49058827004700184  1.0000
  N   N2        1.0  0.2052943286655256  0.5625144646785301  0.5543270379370052  1.0000
  C   C10       1.0  0.2748530020275993  0.3350799383564709  0.31933417574782896  1.0000
  C   C11       1.0  0.32870365896626635  0.26072451724727874  0.24250682792235345  1.0000
  C   C12       1.0  0.4133333144260289  0.2747643952208476  0.25701208463960706  1.0000
  C   C13       1.0  0.5738059886585429  0.4740810985268942  0.46295520754914876  1.0000
  H   H1        1.0  0.7324146411278684  0.32593009787462074  0.3098633978895813  1.0000
  H   H2        1.0  0.585379582628821  0.24396086809165854  0.2251691765462451  1.0000
  H   H3        1.0  0.4128239870396588  0.507993248887753  0.49799206680648544  1.0000
  H   H4        1.0  0.2093935858431437  0.32319383061589635  0.307054175994635  1.0000
  H   H5        1.0  0.30480325042547207  0.1918724211134433  0.1713671009871702  1.0000
  H   H6        1.0  0.4527759969445722  0.2152848444301014  0.1955555460756102  1.0000
  H   H7        1.0  0.5568016492648172  0.4354696027736156  0.5643724532367331  1.0000
  H   H8        1.0  0.5577056827172684  0.5896239095972913  0.4410321253958529  1.0000
  C   C14       1.0  0.9905238661452923  0.1419453367569532  0.5563851157445856  1.0000
  C   C15       1.0  0.00222459447629553  0.22527040472755114  0.43776417975673504  1.0000
  C   C16       1.0  0.02106964196149841  0.15974191620576123  0.32369891710306375  1.0000
  C   C17       1.0  0.02866476692086661  0.009709632219167886  0.32606276549904306  1.0000
  C   C18       1.0  0.01591485439731377  0.9248184640858058  0.44256988598970515  1.0000
  C   C19       1.0  0.9955010532966156  0.9887485724327417  0.5581439592100395  1.0000
  C   C20       1.0  0.04862759421802587  0.9424165173312282  0.2083522245797873  1.0000
  C   C21       1.0  0.06534215591699444  0.8860600497603421  0.10980323876968212  1.0000
  H   H9        1.0  0.003916984059242571  0.21816487014823305  0.8752858015493293  1.0000
  H   H10       1.0  0.9987019415960985  0.34214370446250686  0.4338352364894995  1.0000
  H   H11       1.0  0.030519495980856126  0.22638652991314379  0.23379378995875497  1.0000
  H   H12       1.0  0.02004466468679866  0.8081560730516325  0.4423524286742351  1.0000
  H   H13       1.0  0.001374206958496548  0.6900718872915647  0.77304985432231  1.0000
  H   H14       1.0  0.08001395373061015  0.8365892129827835  0.023297925868938526  1.0000
  C   C22       1.0  0.9930200510210657  0.5654932872774386  0.17591200105875782  1.0000
  C   C23       1.0  0.9093762191440331  0.6007222745109768  0.173701772855694  1.0000
  C   C24       1.0  0.8674866359939315  0.6204187800279882  0.0551740770025142  1.0000
  C   C25       1.0  0.9093825676201118  0.600393436069931  0.9385670167892535  1.0000
  C   C26       1.0  0.9930049132893206  0.5652005707192842  0.9386170720789622  1.0000
  C   C27       1.0  0.03445495962237777  0.5484727364035145  0.057799937468296696  1.0000
  N   N3        1.0  0.7815489718319194  0.6542682603269714  0.05144989286261725  1.0000
  C   C28       1.0  0.7414082561199123  0.7445674539474398  0.13964992647334284  1.0000
  O   O1        1.0  0.7825257259467063  0.8211405267588772  0.21151125956671388  1.0000
  C   C29       1.0  0.6501473400017266  0.7563932405605029  0.13982080904831817  1.0000
  H   H15       1.0  0.8764488700635076  0.6100171605542158  0.2643187878025557  1.0000
  H   H16       1.0  0.8764183687354438  0.6136443236363448  0.847680685433088  1.0000
  H   H17       1.0  0.09897211542625417  0.5213406584002998  0.05869303235471301  1.0000
  H   H18       1.0  0.7471090420643695  0.618768795317576  0.9748911620688472  1.0000
  H   H19       1.0  0.6223106047120861  0.6490053172943129  0.12759695164142723  1.0000
  H   H20       1.0  0.6279269018131182  0.7952065008174385  0.2332559089906263  1.0000
  H   H21       1.0  0.6309168472203889  0.8337149239336494  0.05839025842899214  1.0000
  Zn  Zn1       1.0  0.9032449740282157  0.5665487815185968  0.5585062075151681  1.0000
  Zn  Zn2       1.0  0.08277211747102697  0.564144537675763  0.5560223443048098  1.0000
  C   C30       1.0  0.9929721647705215  0.559511992500706  0.7944375516505336  1.0000
  C   C31       1.0  0.9930468978498809  0.5711831196348738  0.320091104285277  1.0000
  C   C32       1.0  0.9945561614063282  0.8286867762378667  0.5526365826265598  1.0000
  C   C33       1.0  0.9914628297708226  0.3020066043970249  0.5618921397944976  1.0000
  O   O2        1.0  0.06118548624186126  0.5721739910674306  0.3675363022119979  1.0000
  O   O3        1.0  0.0610905178905199  0.5566952680481203  0.7451067829306814  1.0000
  O   O4        1.0  0.062368696759658615  0.7740573218770486  0.5498508054827596  1.0000
  O   O5        1.0  0.05990724617482824  0.35481194841055325  0.5627921831584353  1.0000
  O   O6        1.0  0.9261097840606206  0.775881371605829  0.5517363695023358  1.0000
  O   O7        1.0  0.9248316153709395  0.5585210500996117  0.7469922813058043  1.0000
  O   O8        1.0  0.9249265835124874  0.5739997234727868  0.36942023914844707  1.0000
  O   O9        1.0  0.9236483433795546  0.3566376704658809  0.5646762174371627  1.0000
