data_image0
_chemical_formula_structural       NC5NC4H6C6BrH5C6NCH7Zn2C4O8
_chemical_formula_sum              "N3 C26 H18 Br1 Zn2 O8"
_cell_length_a       13.854160002989762
_cell_length_b       9.276564384272257
_cell_length_c       9.273390368590327
_cell_angle_alpha    86.11919172510322
_cell_angle_beta     89.99084465989662
_cell_angle_gamma    90.58592978602583

_space_group_name_H-M_alt    "P 1"
_space_group_IT_number       1

loop_
  _space_group_symop_operation_xyz
  'x, y, z'

loop_
  _atom_site_type_symbol
  _atom_site_label
  _atom_site_symmetry_multiplicity
  _atom_site_fract_x
  _atom_site_fract_y
  _atom_site_fract_z
  _atom_site_occupancy
  N   N1        1.0  0.919769913741275  0.5613235284162097  0.40887294666736795  1.0000
  C   C1        1.0  0.8476118730139965  0.5859060461234553  0.3498169267684481  1.0000
  C   C2        1.0  0.7578462568771623  0.6164873579027736  0.276348977015044  1.0000
  C   C3        1.0  0.6700707233369211  0.5877685258683241  0.3480829382016233  1.0000
  C   C4        1.0  0.5827038446048154  0.6164873719848065  0.2763489538349515  1.0000
  C   C5        1.0  0.4925037306378102  0.5859058997904691  0.3498170184961731  1.0000
  N   N2        1.0  0.4199963427087003  0.5613234649240835  0.40887294663405194  1.0000
  C   C6        1.0  0.5831492849662046  0.6745315868287387  0.1328994900744065  1.0000
  C   C7        1.0  0.6709068108166103  0.7053992508298912  0.061060303978842434  1.0000
  C   C8        1.0  0.6713216477062484  0.7635625630693574  0.9061238851382933  1.0000
  C   C9        1.0  0.7582263739958881  0.6745315845447399  0.13289939981494125  1.0000
  H   H1        1.0  0.6697505037883638  0.5427321488224879  0.45911028256626163  1.0000
  H   H2        1.0  0.5154273887978044  0.6957250674100857  0.07724249356272339  1.0000
  H   H3        1.0  0.7366434134348547  0.8314644173795751  0.8822846563009525  1.0000
  H   H4        1.0  0.606934935786804  0.8314644199474901  0.8822847213714877  1.0000
  H   H5        1.0  0.6707043343596164  0.6722864349977862  0.8346597316580988  1.0000
  H   H6        1.0  0.8262503486528796  0.6957251789762491  0.07724240805861071  1.0000
  C   C10       1.0  0.16697964126659692  0.1378464444052292  0.40924152625884913  1.0000
  C   C11       1.0  0.15461449173391695  0.21994610215894528  0.2775119199792515  1.0000
  C   C12       1.0  0.15123224505923824  0.15357067432022076  0.14701273457552347  1.0000
  C   C13       1.0  0.160193783417091  0.004150257894357967  0.14576524512134448  1.0000
  C   C14       1.0  0.17085857153784081  0.9203361065088196  0.2755028772227295  1.0000
  C   C15       1.0  0.17279578581553107  0.9847895461721565  0.40851682782811616  1.0000
  Br  Br1       1.0  0.15627646003700826  0.9138898825984407  0.9666975618978801  1.0000
  H   H7        1.0  0.1386676618611995  0.40288849912250263  0.6435606339061084  1.0000
  H   H8        1.0  0.14985123358223684  0.3365762787343252  0.27504447631486717  1.0000
  H   H9        1.0  0.14256178840794043  0.21872421688484842  0.04661863826828272  1.0000
  H   H10       1.0  0.1753246606567309  0.8040631073243852  0.2723954864563882  1.0000
  H   H11       1.0  0.22603495327490392  0.6892419474924981  0.6329931673230049  1.0000
  C   C16       1.0  0.16990156737683623  0.5568210366812647  0.9856372768556056  1.0000
  C   C17       1.0  0.25853329752921095  0.5539557069893345  0.05924222311251293  1.0000
  C   C18       1.0  0.34571080636676843  0.5644959475803906  0.9838184251060458  1.0000
  C   C19       1.0  0.3464724034769422  0.578292191283398  0.8321786322671949  1.0000
  C   C20       1.0  0.2584122967636173  0.5787255393285422  0.7577661649216907  1.0000
  C   C21       1.0  0.169873878599742  0.5658150093446412  0.8321211159774675  1.0000
  N   N3        1.0  0.43529270330341263  0.5904928439943656  0.7513799306499376  1.0000
  C   C22       1.0  0.5305947523296728  0.590662793867156  0.8183679924937777  1.0000
  H   H12       1.0  0.01707627803223999  0.4875503049496728  0.27153652623278735  1.0000
  H   H13       1.0  0.41220542568941143  0.5631689779425499  0.04494057150639352  1.0000
  H   H14       1.0  0.9441608250277461  0.4537808872487964  0.7367258674894952  1.0000
  H   H15       1.0  0.4322265260482613  0.6000501064575644  0.638495919587986  1.0000
  H   H16       1.0  0.5374943067851559  0.6831702540638178  0.8877573768438403  1.0000
  H   H17       1.0  0.5416606206571724  0.48758082511553896  0.8840101311284885  1.0000
  H   H18       1.0  0.587235086970282  0.6015646747783379  0.7334681035071857  1.0000
  Zn  Zn1       1.0  0.06412443442267987  0.561319737746929  0.40888128200594737  1.0000
  Zn  Zn2       1.0  0.2756417417765378  0.5613155806281834  0.4088764582247755  1.0000
  C   C23       1.0  0.16983748720745506  0.5583700125076789  0.6721224677216097  1.0000
  C   C24       1.0  0.1699310112447563  0.5642671268700254  0.14563541236145605  1.0000
  C   C25       1.0  0.17169162698254056  0.8246382706879256  0.40291046238568984  1.0000
  C   C26       1.0  0.16807678739307882  0.2979971369269303  0.4148474960222259  1.0000
  O   O1        1.0  0.25021056548107334  0.5667582338388373  0.19933042302131332  1.0000
  O   O2        1.0  0.250094667618137  0.555874658076785  0.6184233819612124  1.0000
  O   O3        1.0  0.2515908268120901  0.770889659923559  0.40103278167459067  1.0000
  O   O4        1.0  0.24871433418497105  0.3517432411612591  0.41672091523467936  1.0000
  O   O5        1.0  0.0910517698337816  0.7708920772167613  0.40103682499010707  1.0000
  O   O6        1.0  0.08955562253595528  0.5558788071357437  0.6184273469459427  1.0000
  O   O7        1.0  0.08967152017472022  0.5667623142334632  0.19933265521186883  1.0000
  O   O8        1.0  0.08817528880030179  0.35174731238959733  0.41672325549255507  1.0000
