data_image0
_chemical_formula_structural       NC5NC4H6C9H8C6BrH4Zn2C4O8
_chemical_formula_sum              "N2 C28 H18 Br1 Zn2 O8"
_cell_length_a       13.854160002989762
_cell_length_b       9.275152443626249
_cell_length_c       9.27656775626242
_cell_angle_alpha    85.92079402595407
_cell_angle_beta     90.1862127555096
_cell_angle_gamma    90.57354205828562

_space_group_name_H-M_alt    "P 1"
_space_group_IT_number       1

loop_
  _space_group_symop_operation_xyz
  'x, y, z'

loop_
  _atom_site_type_symbol
  _atom_site_label
  _atom_site_symmetry_multiplicity
  _atom_site_fract_x
  _atom_site_fract_y
  _atom_site_fract_z
  _atom_site_occupancy
  N   N1        1.0  0.9159140326016771  0.5631681995274811  0.40525078241147144  1.0000
  C   C1        1.0  0.843617856801438  0.5878081112974711  0.34614719696125457  1.0000
  C   C2        1.0  0.7536803953872393  0.6184608233948329  0.27262007457361975  1.0000
  C   C3        1.0  0.6660724810170062  0.5896726547555278  0.344408841910983  1.0000
  C   C4        1.0  0.5785379830600116  0.6184608375008642  0.2726200513633148  1.0000
  C   C5        1.0  0.4885097146559461  0.5878079648394507  0.3461472890444376  1.0000
  N   N2        1.0  0.41614046157850093  0.5631681360143141  0.40525078254347047  1.0000
  C   C6        1.0  0.5786481365985967  0.6766439114400573  0.12905939096681718  1.0000
  C   C7        1.0  0.6662374830315528  0.7075817128336674  0.0571598333744594  1.0000
  C   C8        1.0  0.666290860265375  0.7658935006959864  0.902115104920072  1.0000
  C   C9        1.0  0.7537252254231065  0.6766439092305527  0.12905930073841976  1.0000
  H   H1        1.0  0.6660117841222691  0.5445287663348706  0.45552253997448533  1.0000
  H   H2        1.0  0.5107963504410427  0.6978908276174443  0.07336270646513188  1.0000
  H   H3        1.0  0.7315482130182744  0.833837762701235  0.8781057239479967  1.0000
  H   H4        1.0  0.6018397355180017  0.8338377652157509  0.878105788993736  1.0000
  H   H5        1.0  0.66552444819833  0.6746466657052386  0.8309084853745003  1.0000
  H   H6        1.0  0.8216193100847825  0.6978909392919168  0.07336262069434607  1.0000
  C   C10       1.0  0.16318779225693686  0.1395502835265663  0.4067218113012008  1.0000
  C   C11       1.0  0.1280933467829597  0.22109034441481737  0.2843133287940556  1.0000
  C   C12       1.0  0.10196598522091582  0.15442720350804606  0.15961305480752364  1.0000
  C   C13       1.0  0.11052167422595137  0.005038617150293193  0.15485223471411702  1.0000
  C   C14       1.0  0.14372631048611795  0.9218002736914508  0.27622620684496213  1.0000
  C   C15       1.0  0.16887590602462388  0.9867750978901736  0.4037922515381197  1.0000
  C   C16       1.0  0.08408115642966948  0.9366238624725224  0.025717258448403998  1.0000
  C   C17       1.0  0.06194337903346289  0.8793090632701722  0.9175869627545779  1.0000
  C   C18       1.0  0.03508355661670869  0.8097556908629884  0.7863898128459983  1.0000
  H   H7        1.0  0.30252827605631016  0.2240211247184727  0.694479192485016  1.0000
  H   H8        1.0  0.12300780786673914  0.33760339044674215  0.28386010098792447  1.0000
  H   H9        1.0  0.07594988086898469  0.21975265608324124  0.06629538738776586  1.0000
  H   H10       1.0  0.14778122662199378  0.80545086080563  0.2722067293455306  1.0000
  H   H11       1.0  0.2596023680352111  0.6934040693979958  0.600608638731289  1.0000
  H   H12       1.0  0.052759147161066874  0.6931657463004912  0.7998505858058431  1.0000
  H   H13       1.0  0.9564782834394405  0.8221450008823411  0.7666644857898163  1.0000
  H   H14       1.0  0.0756366204312204  0.8611904184174695  0.6931247632295533  1.0000
  C   C19       1.0  0.16508267760988787  0.5590170775317935  0.9821446319822331  1.0000
  C   C20       1.0  0.07954210110463289  0.5937448715307756  0.05263538031719106  1.0000
  C   C21       1.0  0.9983705114753498  0.6403552644384282  0.9737732138784301  1.0000
  C   C22       1.0  0.0012153094921989452  0.6531819231658041  0.8232330185220137  1.0000
  C   C23       1.0  0.08485313102121217  0.6168958175301225  0.7510205959776409  1.0000
  C   C24       1.0  0.16698104545063436  0.5673083171527258  0.8283694856010899  1.0000
  Br  Br1       1.0  0.8901250159439679  0.7181356854649485  0.7157581851314574  1.0000
  H   H15       1.0  0.2969882659252823  0.4279908412817361  0.2734318936041922  1.0000
  H   H16       1.0  0.9334813216087875  0.6678591691517115  0.02999549265493706  1.0000
  H   H17       1.0  0.08475069105769382  0.6242645734831747  0.6339446532037538  1.0000
  H   H18       1.0  0.32569848038032895  0.5524123930709255  0.5490262745379222  1.0000
  Zn  Zn1       1.0  0.06026857282777254  0.5631644006509096  0.4052591252993914  1.0000
  Zn  Zn2       1.0  0.2717858698185309  0.5631602461744103  0.4052543136841421  1.0000
  C   C25       1.0  0.16658144909804343  0.5599942247941764  0.6684347243712783  1.0000
  C   C26       1.0  0.16547531584795153  0.5663322435214095  0.1420788496845684  1.0000
  C   C27       1.0  0.16778287679805662  0.8265752900520031  0.3986043994881916  1.0000
  C   C28       1.0  0.16427380450810714  0.299749445860773  0.41190925737946976  1.0000
  O   O1        1.0  0.24587675845103918  0.5687794100435317  0.19575242994094721  1.0000
  O   O2        1.0  0.24671673249703427  0.5575428127980437  0.6147570812071206  1.0000
  O   O3        1.0  0.24768582184569804  0.7728104090717529  0.3968671796078136  1.0000
  O   O4        1.0  0.24490759675278218  0.35351182303216433  0.41364222347320534  1.0000
  O   O5        1.0  0.0871467737130422  0.7728128237960701  0.3968712155043863  1.0000
  O   O6        1.0  0.08617769582373035  0.5575469599280845  0.6147610342859362  1.0000
  O   O7        1.0  0.08533771761834852  0.5687834899311346  0.19575465088664035  1.0000
  O   O8        1.0  0.08436855608920556  0.35351589366033953  0.4136445524800053  1.0000
