data_image0
_chemical_formula_structural       NC12NC2H8C6ClH5C7NH4Zn2C4O8
_chemical_formula_sum              "N3 C31 H17 Cl1 Zn2 O8"
_cell_length_a       19.240039667572717
_cell_length_b       10.30297070629231
_cell_length_c       9.275157849593905
_cell_angle_alpha    86.11098826397364
_cell_angle_beta     89.74087680363883
_cell_angle_gamma    89.99831201696266

_space_group_name_H-M_alt    "P 1"
_space_group_IT_number       1

loop_
  _space_group_symop_operation_xyz
  'x, y, z'

loop_
  _atom_site_type_symbol
  _atom_site_label
  _atom_site_symmetry_multiplicity
  _atom_site_fract_x
  _atom_site_fract_y
  _atom_site_fract_z
  _atom_site_occupancy
  N   N1        1.0  0.6579206013676516  0.407049241752965  0.41038900115835864  1.0000
  C   C1        1.0  0.5977722327472832  0.4070493249197553  0.410388910238149  1.0000
  C   C2        1.0  0.522954195936465  0.4070494408481085  0.4103887578788783  1.0000
  C   C3        1.0  0.486231301788219  0.343598802489906  0.5251402165496009  1.0000
  C   C4        1.0  0.41356034605998393  0.34348878851221554  0.5252362459258921  1.0000
  C   C5        1.0  0.3766219615485359  0.40704953119505505  0.41038850522903325  1.0000
  C   C6        1.0  0.4140592549506484  0.47061046267471857  0.29554098041828136  1.0000
  C   C7        1.0  0.486729735493485  0.47050021445025125  0.29563714572069033  1.0000
  C   C8        1.0  0.2994168713410126  0.40704945164175405  0.41038839934479876  1.0000
  C   C9        1.0  0.26212955444830194  0.29422727823939687  0.45684634559894044  1.0000
  C   C10       1.0  0.189459085327554  0.2943332664879297  0.45674500845638555  1.0000
  C   C11       1.0  0.15308458427249438  0.40704932309558106  0.41038846692983183  1.0000
  C   C12       1.0  0.0782665465177177  0.40704921177927106  0.4103887428585793  1.0000
  N   N2        1.0  0.018118229162000395  0.40704917297218635  0.41038897413551756  1.0000
  C   C13       1.0  0.1896575942008123  0.5197654549982496  0.3640318667149234  1.0000
  C   C14       1.0  0.26232851007261443  0.5198716217473367  0.36393034915263556  1.0000
  H   H1        1.0  0.5137516081659566  0.29448044901330683  0.614734914879651  1.0000
  H   H2        1.0  0.3862697681020833  0.29517898824811617  0.6160688365002123  1.0000
  H   H3        1.0  0.38716330224301815  0.5189202894938416  0.20470833341970818  1.0000
  H   H4        1.0  0.5146391999131398  0.5196184703473821  0.20604275343074718  1.0000
  H   H5        1.0  0.2891488347379367  0.20539991941244232  0.49142834267688706  1.0000
  H   H6        1.0  0.1616677349486997  0.2064147301954944  0.4924733093539122  1.0000
  H   H7        1.0  0.1620191210970616  0.607683966901518  0.32830358196260034  1.0000
  H   H8        1.0  0.289495708707257  0.6086990592952969  0.32934830239623514  1.0000
  C   C15       1.0  0.8380227274541896  0.025801825358712453  0.410395184426978  1.0000
  C   C16       1.0  0.9097305402590335  0.022899495778449405  0.4381529843315488  1.0000
  C   C17       1.0  0.9453100432806071  0.904502592521479  0.4519255630403338  1.0000
  C   C18       1.0  0.9097305398518601  0.7877915265207176  0.43815291655507815  1.0000
  C   C19       1.0  0.8380227346918138  0.7882867678868926  0.4103952669237161  1.0000
  C   C20       1.0  0.8025183715672098  0.9078854543960713  0.39665164207322934  1.0000
  Cl  Cl1       1.0  0.03489018650796649  0.9023804074581193  0.4866015692115097  1.0000
  H   H9        1.0  0.8110116520462354  0.3541981934059304  0.39993850053067015  1.0000
  H   H10       1.0  0.938250480385844  0.11227043220534605  0.4491928122231023  1.0000
  H   H11       1.0  0.9382504531256458  0.6970692384792412  0.44919270868334044  1.0000
  H   H12       1.0  0.7472151303113984  0.9091954915253178  0.375243947996176  1.0000
  H   H13       1.0  0.8110116480638337  0.461170229089565  0.39993877261833544  1.0000
  C   C21       1.0  0.8389449807918701  0.4033745378947618  0.9871974291967573  1.0000
  C   C22       1.0  0.8988509615252269  0.44569804210159303  0.0568934523175022  1.0000
  C   C23       1.0  0.955191626823723  0.4982303135562832  0.9770152791321927  1.0000
  C   C24       1.0  0.9522831178787815  0.5092742353681368  0.8263563329862813  1.0000
  C   C25       1.0  0.8938060843724753  0.4658994305734667  0.7553187677102802  1.0000
  C   C26       1.0  0.8371005154307235  0.4107139853744049  0.8335930003820047  1.0000
  C   C27       1.0  0.01577881782089707  0.5423618325272066  0.05001889434255746  1.0000
  N   N3        1.0  0.06447540587091538  0.5778316740761995  0.10870148550366743  1.0000
  H   H14       1.0  0.6698362971896904  0.35960076080815817  0.09503506667083017  1.0000
  H   H15       1.0  0.995562682803623  0.5503405328032491  0.7635335303860824  1.0000
  H   H16       1.0  0.89365232744041  0.4727250309200447  0.638254328252934  1.0000
  H   H17       1.0  0.7239689498228008  0.37579070082150046  0.5561865172218639  1.0000
  Zn  Zn1       1.0  0.7618658471146643  0.40704582786424415  0.41039730312255224  1.0000
  Zn  Zn2       1.0  0.9141729765550529  0.40704209874332187  0.4103924335667601  1.0000
  C   C28       1.0  0.8374475915680509  0.4041546690427012  0.6736060888086877  1.0000
  C   C29       1.0  0.8385928949825867  0.40993489684835277  0.14718378927459042  1.0000
  C   C30       1.0  0.8380316826989566  0.6441110552189857  0.40465242029909176  1.0000
  C   C31       1.0  0.8380087517124223  0.16997695153399303  0.4161375346185654  1.0000
  O   O1        1.0  0.8962744936358344  0.4121295341240517  0.20087482523888742  1.0000
  O   O2        1.0  0.8953635809169967  0.40195621844271145  0.6199109421144042  1.0000
  O   O3        1.0  0.8958344594580595  0.59572404795593  0.4027289519260451  1.0000
  O   O4        1.0  0.8958035633581417  0.21836171296237628  0.4180567073741075  1.0000
  O   O5        1.0  0.7802352083366441  0.5957262136478101  0.4027330293092859  1.0000
  O   O6        1.0  0.7797643299599082  0.40195994327528567  0.6199149426573474  1.0000
  O   O7        1.0  0.7806752465008148  0.41213319869042264  0.20087709312543264  1.0000
  O   O8        1.0  0.7802043159848203  0.21836536917982377  0.41805908330787345  1.0000
