data_image0
_chemical_formula_structural       NC6NCNCH5C7NH5C6NH7Zn2C4O8
_chemical_formula_sum              "N5 C25 H17 Zn2 O8"
_cell_length_a       14.933214217465613
_cell_length_b       9.275154477615127
_cell_length_c       9.274774538082516
_cell_angle_alpha    85.29330631285735
_cell_angle_beta     90.31607823643775
_cell_angle_gamma    89.46799387830556

_space_group_name_H-M_alt    "P 1"
_space_group_IT_number       1

loop_
  _space_group_symop_operation_xyz
  'x, y, z'

loop_
  _atom_site_type_symbol
  _atom_site_label
  _atom_site_symmetry_multiplicity
  _atom_site_fract_x
  _atom_site_fract_y
  _atom_site_fract_z
  _atom_site_occupancy
  N   N1        1.0  0.8274429102303938  0.592551383272363  0.41351534162043463  1.0000
  C   C1        1.0  0.7499427342224695  0.5935564591755254  0.4125276199021568  1.0000
  C   C2        1.0  0.6535319302750803  0.5948095332222053  0.4112960524689435  1.0000
  C   C3        1.0  0.6066603590541837  0.49823988026743216  0.5062174228468335  1.0000
  C   C4        1.0  0.5131161600115017  0.4993318746730653  0.5051440962687668  1.0000
  C   C5        1.0  0.46554172417483214  0.5969381923905157  0.4092037916353084  1.0000
  C   C6        1.0  0.3689871781107202  0.5948117074278804  0.4112939877420668  1.0000
  N   N2        1.0  0.2915190381139383  0.5930377524174282  0.4130372994403946  1.0000
  C   C7        1.0  0.5125000302750226  0.6947272556169292  0.3130839513618915  1.0000
  N   N3        1.0  0.4661873745152092  0.7961777138369713  0.2133653523386465  1.0000
  C   C8        1.0  0.6065342007285379  0.6926609891276898  0.3151150655639318  1.0000
  H   H1        1.0  0.6424091815042496  0.4221012038225207  0.5810564967287264  1.0000
  H   H2        1.0  0.47777765662133453  0.4238336897541037  0.5793534839404806  1.0000
  H   H3        1.0  0.5018359634604798  0.8678317784751183  0.14293426239003404  1.0000
  H   H4        1.0  0.3963926382980026  0.8015757429445451  0.2080595294382761  1.0000
  H   H5        1.0  0.6430046349842736  0.7673995395025304  0.2416521837029115  1.0000
  C   C9        1.0  0.062070117994379226  0.16942249715205998  0.4116036505687427  1.0000
  C   C10       1.0  0.037001253143033486  0.25368244931893513  0.28438480341004446  1.0000
  C   C11       1.0  0.004674612263100953  0.18865863912302916  0.16391377165488796  1.0000
  C   C12       1.0  0.9968867357531522  0.03848365439035573  0.16924293330367177  1.0000
  C   C13       1.0  0.022774396896049435  0.9530421216032138  0.29356049620614255  1.0000
  C   C14       1.0  0.05690051071396775  0.01615542784376769  0.4149614964002776  1.0000
  C   C15       1.0  0.9784085055951919  0.27651249284625035  0.03516252760395422  1.0000
  N   N4        1.0  0.9572978310808848  0.34713080581462635  0.9316795061579194  1.0000
  H   H6        1.0  0.08079512549891327  0.2430309209813981  0.7658315671474218  1.0000
  H   H7        1.0  0.04064182673124428  0.3706829226377234  0.2800989713443476  1.0000
  H   H8        1.0  0.9715645376814513  0.9871363737993446  0.07665387068320473  1.0000
  H   H9        1.0  0.01807171173910982  0.8365707023833215  0.2934383327163548  1.0000
  H   H10       1.0  0.07330407214450461  0.7153371730466552  0.6523003033593897  1.0000
  C   C16       1.0  0.05785573974826888  0.5964746931772007  0.9894825151518027  1.0000
  C   C17       1.0  0.12078784592086406  0.6816201267148061  0.056491054637717746  1.0000
  C   C18       1.0  0.18780982569941385  0.754893682704721  0.9759469340288125  1.0000
  C   C19       1.0  0.19244411032178266  0.7433543791452966  0.826919038738062  1.0000
  C   C20       1.0  0.12977990851609422  0.6613852228231369  0.7582202353983942  1.0000
  C   C21       1.0  0.061114876213302714  0.5891031701006514  0.8370825850163985  1.0000
  N   N5        1.0  0.25177116658099585  0.8398396181472996  0.04595886436052332  1.0000
  H   H11       1.0  0.9257250095533336  0.3145024639841576  0.11442307169555055  1.0000
  H   H12       1.0  0.11913420287291633  0.6884561464602734  0.17253995989995083  1.0000
  H   H13       1.0  0.24419509326734123  0.7991114558641275  0.7635555050463926  1.0000
  H   H14       1.0  0.13379748479952847  0.6573790792468988  0.6420271694484367  1.0000
  H   H15       1.0  0.9693432198720754  0.40357110516064093  0.5703611402212301  1.0000
  H   H16       1.0  0.24911560905983876  0.8488779008739404  0.15736731870942952  1.0000
  H   H17       1.0  0.3022365776712528  0.8944615939777646  0.9868808506663557  1.0000
  Zn  Zn1       1.0  0.9613653124452529  0.5926877978566116  0.413385716378736  1.0000
  Zn  Zn2       1.0  0.15759673901872417  0.5928894072377608  0.41317872924683885  1.0000
  C   C22       1.0  0.06053190304002909  0.58475307935945  0.6768452502062643  1.0000
  C   C23       1.0  0.05843228070345608  0.6008259457979008  0.1497193420211831  1.0000
  C   C24       1.0  0.057850950023054425  0.8561548717597571  0.40857579966975804  1.0000
  C   C25       1.0  0.06111317763162338  0.32942242050898596  0.4179888627014299  1.0000
  O   O1        1.0  0.1330946152319702  0.6023564858831202  0.20341770941957593  1.0000
  O   O2        1.0  0.13480468583757532  0.5833744721157902  0.6229893646108666  1.0000
  O   O3        1.0  0.13263878426611142  0.8025348377410153  0.4063598922554321  1.0000
  O   O4        1.0  0.13526044936389559  0.3831961314436032  0.4200470736779626  1.0000
  O   O5        1.0  0.9837015351358875  0.8023810735836052  0.40651737201066185  1.0000
  O   O6        1.0  0.985867425831964  0.583222440779824  0.6231467742854051  1.0000
  O   O7        1.0  0.9841573489208569  0.6022044193970306  0.2035733837726263  1.0000
  O   O8        1.0  0.9863231835281265  0.383044053704642  0.42020285619111086  1.0000
