data_image0
_chemical_formula_structural       NC8NC6H8C6NO2H5C8NH7Zn2C4O8
_chemical_formula_sum              "N4 C32 H20 O10 Zn2"
_cell_length_a       17.457602349358154
_cell_length_b       9.273392599741051
_cell_length_c       9.274266800404106
_cell_angle_alpha    86.1050913810774
_cell_angle_beta     92.41618932719734
_cell_angle_gamma    91.0881455882028

_space_group_name_H-M_alt    "P 1"
_space_group_IT_number       1

loop_
  _space_group_symop_operation_xyz
  'x, y, z'

loop_
  _atom_site_type_symbol
  _atom_site_label
  _atom_site_symmetry_multiplicity
  _atom_site_fract_x
  _atom_site_fract_y
  _atom_site_fract_z
  _atom_site_occupancy
  N   N1        1.0  0.7199202210643851  0.6019800541176268  0.47867665912234486  1.0000
  C   C1        1.0  0.6591737758370084  0.5509059054038277  0.46681342365038203  1.0000
  C   C2        1.0  0.5836025353059497  0.48737608552641715  0.4520661567086848  1.0000
  C   C3        1.0  0.5244776295854883  0.5325680399734356  0.5352442782256326  1.0000
  C   C4        1.0  0.45032859946006437  0.4713949760371737  0.5211826639952157  1.0000
  C   C5        1.0  0.3875783797274469  0.519112941354398  0.6092712144596626  1.0000
  C   C6        1.0  0.31317873659027673  0.5391694678481309  0.5474314853122557  1.0000
  C   C7        1.0  0.2540544529779142  0.584158085201778  0.6307290515259865  1.0000
  C   C8        1.0  0.1782232806459677  0.6048694595344764  0.5664322209359087  1.0000
  N   N2        1.0  0.11726797305553362  0.6215143226031752  0.5147377250261636  1.0000
  C   C9        1.0  0.268833782696572  0.6093642126616936  0.7764310302986801  1.0000
  C   C10       1.0  0.3424445240739011  0.589742676742737  0.8387015417495034  1.0000
  C   C11       1.0  0.4015539601274662  0.5449576447320456  0.7559121809648057  1.0000
  C   C12       1.0  0.4366039704044026  0.3642663312933001  0.4223517566145816  1.0000
  C   C13       1.0  0.4957135794318955  0.31938699824913686  0.33961797933370086  1.0000
  C   C14       1.0  0.5690745860464168  0.3806892479274014  0.35429000889237594  1.0000
  H   H1        1.0  0.5360489450092721  0.6165886395470731  0.6093139259480189  1.0000
  H   H2        1.0  0.30140204137694004  0.5217286506540857  0.434200473896085  1.0000
  H   H3        1.0  0.22350849621967434  0.6441249031219632  0.8417703408300039  1.0000
  H   H4        1.0  0.3536996893531415  0.6089098988793834  0.9515212536878501  1.0000
  H   H5        1.0  0.45791630661629446  0.5286834175671995  0.807043091375647  1.0000
  H   H6        1.0  0.3804473521085435  0.3138465760186492  0.4104495295365859  1.0000
  H   H7        1.0  0.48465481591051723  0.23659632826278099  0.2642207576549094  1.0000
  H   H8        1.0  0.6144028684422256  0.3449670762702315  0.28951623153884853  1.0000
  C   C15       1.0  0.9209388188375689  0.18832702195192327  0.4960135170457219  1.0000
  C   C16       1.0  0.911729033273845  0.2702278059163006  0.3634983408357908  1.0000
  C   C17       1.0  0.8957329452423118  0.20338883758824974  0.23514534219177397  1.0000
  C   C18       1.0  0.8884143200665489  0.05262234020474233  0.23571946103834865  1.0000
  C   C19       1.0  0.898824298944048  0.9696046121327926  0.36733835432796  1.0000
  C   C20       1.0  0.9162567134449958  0.0351566439045361  0.49741394453944615  1.0000
  N   N3        1.0  0.8712429589286561  0.9842762987529537  0.10303296082750468  1.0000
  O   O1        1.0  0.8617211105309535  0.0659413860071032  0.9741929052250555  1.0000
  O   O2        1.0  0.8644902988991822  0.8500128118455157  0.10265025752064338  1.0000
  H   H9        1.0  0.9038366357697907  0.2666343126744195  0.8482560692288532  1.0000
  H   H10       1.0  0.9150987045946691  0.38720372549713017  0.35954522248505527  1.0000
  H   H11       1.0  0.8883155609051021  0.27019436218279225  0.13539843937766727  1.0000
  H   H12       1.0  0.8951166774749638  0.8528279279511937  0.3680279737975005  1.0000
  H   H13       1.0  0.9073502654823034  0.7384368542817162  0.7357144737377928  1.0000
  C   C21       1.0  0.920378601264714  0.6086759464332365  0.07355784331950632  1.0000
  C   C22       1.0  0.8763945132416106  0.5032660869174679  0.15049308012705637  1.0000
  C   C23       1.0  0.8277089227430041  0.40884201506094753  0.07797930334990189  1.0000
  C   C24       1.0  0.8213754917257572  0.418333556674965  0.9267277786650316  1.0000
  C   C25       1.0  0.8664311919958052  0.5203479870838887  0.8485761137282544  1.0000
  C   C26       1.0  0.9168169065624346  0.6148077488450383  0.9198696097658795  1.0000
  C   C27       1.0  0.7697101190392391  0.3150581381747891  0.8487400383222503  1.0000
  C   C28       1.0  0.8119572551716293  0.18527845824175748  0.8210749193281632  1.0000
  N   N4        1.0  0.8453056273514146  0.08285260721618506  0.7992384519186384  1.0000
  H   H14       1.0  0.0030840230993349777  0.9301678071062697  0.16118304933088173  1.0000
  H   H15       1.0  0.8783932889120821  0.49589472504927773  0.26767240418015725  1.0000
  H   H16       1.0  0.794305566473228  0.3290105481428984  0.14002328087242155  1.0000
  H   H17       1.0  0.8634271580916651  0.5234911293437289  0.7314195800801079  1.0000
  H   H18       1.0  0.9753011009412015  0.8285944555052991  0.6292918287968603  1.0000
  H   H19       1.0  0.7475489573407275  0.3667789221056068  0.744073581876262  1.0000
  H   H20       1.0  0.7195885424117886  0.28296019429217467  0.9142889904869733  1.0000
  Zn  Zn1       1.0  0.8345861855017214  0.6076134155999124  0.4890914174691434  1.0000
  Zn  Zn2       1.0  0.0026020100818131527  0.6158692247014734  0.504334744673248  1.0000
  C   C29       1.0  0.9175202089114486  0.6079044743781574  0.7598889406476284  1.0000
  C   C30       1.0  0.9196698107455628  0.6155800764022978  0.2335375323932028  1.0000
  C   C31       1.0  0.9171619487195144  0.8750460483328419  0.49140667982644515  1.0000
  C   C32       1.0  0.9200280228602513  0.3484367678385345  0.5020198619731835  1.0000
  O   O3        1.0  0.983193098758687  0.6210239115468604  0.29301293030856645  1.0000
  O   O4        1.0  0.9815170518929339  0.6087255165587153  0.7119824587659794  1.0000
  O   O5        1.0  0.9812268864208769  0.8244456846145929  0.49518105809324187  1.0000
  O   O6        1.0  0.9834832072959946  0.4053037502056233  0.5098142177527352  1.0000
  O   O7        1.0  0.853704930952008  0.8181788872799751  0.48361193918027956  1.0000
  O   O8        1.0  0.8539950871657794  0.6024604510173884  0.7004132658848431  1.0000
  O   O9        1.0  0.8556711416514352  0.6147587832095252  0.28144200486398097  1.0000
  O   O10       1.0  0.8559612497879602  0.39903861233786014  0.4982434003273424  1.0000
