data_image0
_chemical_formula_structural       NC12NC2H8C6NH7C9H10Zn2C4O8
_chemical_formula_sum              "N3 C33 H25 Zn2 O8"
_cell_length_a       19.240039667572717
_cell_length_b       9.274771166103584
_cell_length_c       10.297187173949778
_cell_angle_alpha    85.46307945309522
_cell_angle_beta     89.97407950640248
_cell_angle_gamma    90.59704977044065

_space_group_name_H-M_alt    "P 1"
_space_group_IT_number       1

loop_
  _space_group_symop_operation_xyz
  'x, y, z'

loop_
  _atom_site_type_symbol
  _atom_site_label
  _atom_site_symmetry_multiplicity
  _atom_site_fract_x
  _atom_site_fract_y
  _atom_site_fract_z
  _atom_site_occupancy
  N   N1        1.0  0.6627535496732762  0.5784639586627762  0.5645722162345987  1.0000
  C   C1        1.0  0.6026051813443839  0.5784640519325275  0.5645721341281782  1.0000
  C   C2        1.0  0.5277871448908146  0.578464182187375  0.5645719965817719  1.0000
  C   C3        1.0  0.4909287503954982  0.5068739850114239  0.6681229797426487  1.0000
  C   C4        1.0  0.4182573626976439  0.50675083728891  0.6682097409017078  1.0000
  C   C5        1.0  0.381454910524971  0.5784642849731423  0.564571768683096  1.0000
  C   C6        1.0  0.4190281377358684  0.6501779403723729  0.460933990710946  1.0000
  C   C7        1.0  0.4916981852581104  0.6500545310900683  0.46102087482197485  1.0000
  C   C8        1.0  0.3042498196694771  0.578464197590167  0.5645716733882821  1.0000
  C   C9        1.0  0.266419925735206  0.4526678419739307  0.6066555659204556  1.0000
  C   C10       1.0  0.19374985589057367  0.4527865672735449  0.606564027891525  1.0000
  C   C11       1.0  0.15791753201081032  0.5784640541222384  0.5645717345445705  1.0000
  C   C12       1.0  0.0830994941611353  0.5784639278164121  0.5645719834648978  1.0000
  N   N2        1.0  0.022951177030907897  0.5784638824988482  0.564572192003614  1.0000
  C   C13       1.0  0.1950327194235371  0.7041416251879398  0.5225793881586813  1.0000
  C   C14       1.0  0.2677040352252298  0.7042605505320256  0.5224876871750643  1.0000
  H   H1        1.0  0.5183456246472985  0.4514473822390954  0.7489718853799172  1.0000
  H   H2        1.0  0.3908702479324747  0.45221082772623666  0.7501729617679646  1.0000
  H   H3        1.0  0.3922287218761382  0.7047179799764829  0.3789707189363609  1.0000
  H   H4        1.0  0.5197110818433329  0.7054810225328998  0.3801722452213473  1.0000
  H   H5        1.0  0.2930082037953557  0.3536446051909685  0.6379905675097772  1.0000
  H   H6        1.0  0.1655347845269956  0.35476220208972853  0.6389306044668147  1.0000
  H   H7        1.0  0.1678179671989003  0.8021659631198732  0.4902128261812085  1.0000
  H   H8        1.0  0.29530223643489306  0.803283875252846  0.49115264066179476  1.0000
  C   C15       1.0  0.8407217089740601  0.15486748081923896  0.5652802150853297  1.0000
  C   C16       1.0  0.8247561029180857  0.23816035380108924  0.44911801676450347  1.0000
  C   C17       1.0  0.8152799191319288  0.1730949880839523  0.3322188185540987  1.0000
  C   C18       1.0  0.8218059822014492  0.023359160624029297  0.33063510683318614  1.0000
  C   C19       1.0  0.8364867405571529  0.9387466415619291  0.44520157635606084  1.0000
  C   C20       1.0  0.8449896432581324  0.002049327019122407  0.5638754375185665  1.0000
  N   N3        1.0  0.7997416429850894  0.2594871844564528  0.21477993026398814  1.0000
  H   H9        1.0  0.9188733060816181  0.23456665107608268  0.849564845364138  1.0000
  H   H10       1.0  0.8212517883043599  0.3547529941009899  0.4486190438707076  1.0000
  H   H11       1.0  0.8148439701185403  0.9718596428859879  0.24069296774546123  1.0000
  H   H12       1.0  0.8395506411368834  0.8225821172700509  0.44148136942956384  1.0000
  H   H13       1.0  0.894810399111202  0.7050094499074901  0.7572896426544385  1.0000
  H   H14       1.0  0.7949529721146288  0.37156108050776804  0.2147377405580615  1.0000
  H   H15       1.0  0.7928445489104212  0.21200516648303333  0.12697402401117297  1.0000
  C   C21       1.0  0.8429472930308496  0.5784062432093997  0.1831247457260894  1.0000
  C   C22       1.0  0.7727115302880453  0.6180268881776958  0.17957714833816746  1.0000
  C   C23       1.0  0.7367276776765996  0.6383254704734702  0.06114320626304993  1.0000
  C   C24       1.0  0.7724392591695503  0.6181799239281895  0.944354169536077  1.0000
  C   C25       1.0  0.8427640556808762  0.5785105551822338  0.9460308824766407  1.0000
  C   C26       1.0  0.8775588185356458  0.5588813492595064  0.06580471812916988  1.0000
  C   C27       1.0  0.6607626364434249  0.6811777346226933  0.06673839661696214  1.0000
  C   C28       1.0  0.6118116111492177  0.6231583973587775  0.966562768266414  1.0000
  C   C29       1.0  0.6332809246087575  0.7822974230408613  0.9551993786703107  1.0000
  H   H16       1.0  0.8700133219023949  0.5631522286581427  0.5120291374961132  1.0000
  H   H17       1.0  0.7455967276444699  0.6333229923348528  0.2696299387174246  1.0000
  H   H18       1.0  0.7460768398539733  0.6330478791409897  0.8517224196303613  1.0000
  H   H19       1.0  0.9317470447680805  0.5283124718188121  0.06781441798299959  1.0000
  H   H20       1.0  0.9755850650289644  0.5035678295781838  0.7419826031215457  1.0000
  H   H21       1.0  0.63634634229129  0.6949523966191606  0.1627928417685989  1.0000
  H   H22       1.0  0.6350214278052448  0.558051151133871  0.8921457435793726  1.0000
  H   H23       1.0  0.5576947063399179  0.6036403583253254  0.0017137211334601306  1.0000
  H   H24       1.0  0.669532515206621  0.8138582527078816  0.8738806448542058  1.0000
  H   H25       1.0  0.5917112704675668  0.8557895722017157  0.9837065128353499  1.0000
  Zn  Zn1       1.0  0.7666987922030329  0.5784600865950393  0.5645797057062371  1.0000
  Zn  Zn2       1.0  0.9190058914489574  0.5784559895596224  0.5645753232817821  1.0000
  C   C30       1.0  0.8427681844052756  0.5727442744912383  0.8018348129743962  1.0000
  C   C31       1.0  0.8429381715739477  0.5841736216938258  0.3273203404423066  1.0000
  C   C32       1.0  0.8441805701741252  0.8419131863367979  0.5589646343897468  1.0000
  C   C33       1.0  0.8415257250858597  0.31500297679016454  0.5701905911561511  1.0000
  O   O1        1.0  0.900734829035144  0.5861013587077887  0.37571204660011115  1.0000
  O   O2        1.0  0.9005690857330263  0.570812339667621  0.7534394085337754  1.0000
  O   O3        1.0  0.9017088256107232  0.7881696402939957  0.5573200185151752  1.0000
  O   O4        1.0  0.8995950372607294  0.3687440683883918  0.5718313392069414  1.0000
  O   O5        1.0  0.7861095944163327  0.788172007769238  0.5573236897757372  1.0000
  O   O6        1.0  0.7849698632829464  0.5708164402039313  0.7534430076598024  1.0000
  O   O7        1.0  0.7851356067531741  0.5861054087636324  0.3757140840642694  1.0000
  O   O8        1.0  0.7839958149005491  0.36874810814022485  0.57183347407753  1.0000
