data_image0
_chemical_formula_structural       NC8NC6H8C6NH7C6ClH5Zn2C4O8
_chemical_formula_sum              "N3 C30 H20 Cl1 Zn2 O8"
_cell_length_a       17.457602349358154
_cell_length_b       9.274771166103582
_cell_length_c       10.302974078461048
_cell_angle_alpha    85.4557754151483
_cell_angle_beta     92.87591007631781
_cell_angle_gamma    92.29117059398062

_space_group_name_H-M_alt    "P 1"
_space_group_IT_number       1

loop_
  _space_group_symop_operation_xyz
  'x, y, z'

loop_
  _atom_site_type_symbol
  _atom_site_label
  _atom_site_symmetry_multiplicity
  _atom_site_fract_x
  _atom_site_fract_y
  _atom_site_fract_z
  _atom_site_occupancy
  N   N1        1.0  0.7314003951797549  0.6141283294257716  0.6250174118148958  1.0000
  C   C1        1.0  0.6700387425561382  0.5631045496258105  0.6144665945153186  1.0000
  C   C2        1.0  0.5937022989618287  0.49963731631853925  0.6013509089615846  1.0000
  C   C3        1.0  0.535421784115091  0.5442577328815201  0.6761701431120923  1.0000
  C   C4        1.0  0.46053650960361586  0.48314392901782605  0.6636658605955771  1.0000
  C   C5        1.0  0.3986789562607554  0.530256516620673  0.7429024382212417  1.0000
  C   C6        1.0  0.32424638825002067  0.5507754053713236  0.6871326652449512  1.0000
  C   C7        1.0  0.2659647342931079  0.5951914769061237  0.7620600632984544  1.0000
  C   C8        1.0  0.19009775385652414  0.6163834855631193  0.7040747514994949  1.0000
  N   N2        1.0  0.1291135786799121  0.6334147725558634  0.6574547203402226  1.0000
  C   C9        1.0  0.2816249877346264  0.6193587933414852  0.8932652588180677  1.0000
  C   C10       1.0  0.35527525483856803  0.599272075387665  0.9494219817754026  1.0000
  C   C11       1.0  0.41354641622334465  0.555056046568871  0.8749519130528026  1.0000
  C   C12       1.0  0.4452162107797953  0.3766570859781759  0.5749108034243836  1.0000
  C   C13       1.0  0.503486729123783  0.33234628730871196  0.5004910678295106  1.0000
  C   C14       1.0  0.5775879322133474  0.393584941297938  0.5135449681683865  1.0000
  H   H1        1.0  0.5482303640316929  0.6277999334806641  0.7426783059179405  1.0000
  H   H2        1.0  0.3118089036809639  0.5341433900518684  0.5851619146695599  1.0000
  H   H3        1.0  0.2369548049416136  0.6536700050317079  0.9520403637009596  1.0000
  H   H4        1.0  0.3672086514002245  0.6176346826078862  0.05101751268822907  1.0000
  H   H5        1.0  0.4699394128107244  0.5383997403857284  0.9210631720646755  1.0000
  H   H6        1.0  0.3884514790708328  0.3262884390249252  0.564323092825916  1.0000
  H   H7        1.0  0.49119885636022476  0.2500445001510511  0.432783487168249  1.0000
  H   H8        1.0  0.6222527860356414  0.3583074770322914  0.45528198205840104  1.0000
  C   C15       1.0  0.9279045894523809  0.20006090885637076  0.6417518428090825  1.0000
  C   C16       1.0  0.9102453187852027  0.282513308595681  0.5242134847139954  1.0000
  C   C17       1.0  0.8997511651698604  0.2169550312167132  0.4065229183670666  1.0000
  C   C18       1.0  0.9069565147157662  0.06756883213117515  0.40552774704442224  1.0000
  C   C19       1.0  0.9231966942760996  0.98372818798448  0.5213555165880456  1.0000
  C   C20       1.0  0.9326166676714315  0.047471451789013575  0.64073215640406  1.0000
  N   N3        1.0  0.8825633933679584  0.30252979350514075  0.2877470303796179  1.0000
  H   H9        1.0  0.014271268621544708  0.28390941743073855  0.9329235797910146  1.0000
  H   H10       1.0  0.9063758883561808  0.39891837533749624  0.5233991976863153  1.0000
  H   H11       1.0  0.8992455391021447  0.015707682214194166  0.3150063538728649  1.0000
  H   H12       1.0  0.9265787215142559  0.8677281783711435  0.5179132004520388  1.0000
  H   H13       1.0  0.9876776766800605  0.7530752210828153  0.8385303504106565  1.0000
  H   H14       1.0  0.8772759587684004  0.41434728970939577  0.2872736223880994  1.0000
  H   H15       1.0  0.8749246636518436  0.2546893546816196  0.1993665831318181  1.0000
  C   C21       1.0  0.9302606297035191  0.6237661815278723  0.2599994927054594  1.0000
  C   C22       1.0  0.9160782576306027  0.47325756054800777  0.2683247507808768  1.0000
  C   C23       1.0  0.9090413907569664  0.39857928415721067  0.15549872879118842  1.0000
  C   C24       1.0  0.9160782924063428  0.47325764369964757  0.03321685451105272  1.0000
  C   C25       1.0  0.9302606273318822  0.623766106953231  0.022484511708850567  1.0000
  C   C26       1.0  0.937282694571791  0.6982867830444401  0.13652406922106408  1.0000
  Cl  Cl1       1.0  0.8913242412890618  0.21055826103050057  0.16740249688112274  1.0000
  H   H16       1.0  0.9356033269773188  0.6804602027331375  0.5841664868609562  1.0000
  H   H17       1.0  0.9104376075081961  0.41339676780778123  0.36216113089609636  1.0000
  H   H18       1.0  0.9104376610202295  0.41339674981965513  0.9469601692207195  1.0000
  H   H19       1.0  0.9482205311670174  0.8143635473412238  0.12917505247579997  1.0000
  H   H20       1.0  0.9356031808775769  0.6804601828832777  0.6911388444849043  1.0000
  Zn  Zn1       1.0  0.8461718073765956  0.6196901109294373  0.6343856190098247  1.0000
  Zn  Zn2       1.0  0.014342086451644585  0.6278411610463761  0.6480971563835227  1.0000
  C   C27       1.0  0.9302269427725922  0.6180179736139285  0.8783652658784561  1.0000
  C   C28       1.0  0.9302887975931141  0.6295152079201297  0.40411778447792757  1.0000
  C   C29       1.0  0.9317220252182563  0.8872925983918215  0.6357510974169853  1.0000
  C   C30       1.0  0.9287936481232725  0.3602388468240427  0.6467320195623043  1.0000
  O   O1        1.0  0.9941179604739244  0.6345316199489099  0.45768866428336996  1.0000
  O   O2        1.0  0.9940351244617297  0.6191869315242448  0.8352007532639868  1.0000
  O   O3        1.0  0.9952415621237951  0.8366295547758339  0.6392880237444178  1.0000
  O   O4        1.0  0.9929114654841302  0.4170890042376034  0.6536012917693113  1.0000
  O   O5        1.0  0.8676023709558559  0.8304422649582273  0.6288814789381307  1.0000
  O   O6        1.0  0.8663959429297139  0.6130013752448495  0.824794137148888  1.0000
  O   O7        1.0  0.8664787787133895  0.6283460133915157  0.4472804873498485  1.0000
  O   O8        1.0  0.86527228366307  0.4109033873599439  0.6431932121835124  1.0000
