data_image0
_chemical_formula_structural       NC6NCNCH5C6NCH9C6OCH7Zn2C4O8
_chemical_formula_sum              "N4 C26 H21 O9 Zn2"
_cell_length_a       14.933214217465613
_cell_length_b       9.273386996610927
_cell_length_c       9.273891588657152
_cell_angle_alpha    85.97842517681073
_cell_angle_beta     89.64588733206324
_cell_angle_gamma    89.43266693644959

_space_group_name_H-M_alt    "P 1"
_space_group_IT_number       1

loop_
  _space_group_symop_operation_xyz
  'x, y, z'

loop_
  _atom_site_type_symbol
  _atom_site_label
  _atom_site_symmetry_multiplicity
  _atom_site_fract_x
  _atom_site_fract_y
  _atom_site_fract_z
  _atom_site_occupancy
  N   N1        1.0  0.8385534078309195  0.5653630663366085  0.4066375492193651  1.0000
  C   C1        1.0  0.7610601441145094  0.5663512229937868  0.4056454692953835  1.0000
  C   C2        1.0  0.6646579589919966  0.567583200747075  0.40440846845631  1.0000
  C   C3        1.0  0.6171221002809226  0.4726395210096512  0.4997485588886413  1.0000
  C   C4        1.0  0.5235854126804617  0.47371312968573265  0.4986704974521879  1.0000
  C   C5        1.0  0.47668239512020794  0.569676020183784  0.40230697780264607  1.0000
  C   C6        1.0  0.3801132212504169  0.5675853396268995  0.4044063942082623  1.0000
  N   N2        1.0  0.302632881183924  0.5658412467843652  0.40615739813968565  1.0000
  C   C7        1.0  0.5243133759061219  0.6658185808547428  0.3057631300221413  1.0000
  N   N3        1.0  0.47869857994480175  0.7655608909970724  0.20560464772431675  1.0000
  C   C8        1.0  0.6183333319861517  0.6637871067803269  0.3078032032782898  1.0000
  H   H1        1.0  0.6523471770364034  0.39778281433504836  0.5749177654272475  1.0000
  H   H2        1.0  0.4877275703707583  0.39948612813629775  0.5732072408135095  1.0000
  H   H3        1.0  0.5148400662556144  0.8360084931946623  0.134862870226782  1.0000
  H   H4        1.0  0.4089409754006226  0.7708680330686901  0.2002754192109233  1.0000
  H   H5        1.0  0.6553178809559356  0.7372672611001323  0.2340162596678166  1.0000
  C   C9        1.0  0.07334861860537449  0.14195738146263115  0.40710293082470767  1.0000
  C   C10       1.0  0.08953133071100355  0.2242732293548444  0.27676061100103855  1.0000
  C   C11       1.0  0.09728262643366287  0.15860182905361264  0.1464189577642283  1.0000
  C   C12       1.0  0.0889732616412629  0.008262450331065766  0.14308716982764103  1.0000
  C   C13       1.0  0.07437021718188674  0.9249812289518431  0.27297513354228586  1.0000
  C   C14       1.0  0.0678462394532966  0.989235894576233  0.4057045540317397  1.0000
  N   N4        1.0  0.09597704140408153  0.9375295652601845  0.010055423141971833  1.0000
  C   C15       1.0  0.11139038759651615  0.014172265542131246  0.8693832812892763  1.0000
  H   H6        1.0  0.0908094407287921  0.4062561964619438  0.6437249245962868  1.0000
  H   H7        1.0  0.09410494876445813  0.34090787224781494  0.2749875194020268  1.0000
  H   H8        1.0  0.10892056389899696  0.2263321496761288  0.048499881980169864  1.0000
  H   H9        1.0  0.07015151426132538  0.8085552873644709  0.270705662171967  1.0000
  H   H10       1.0  0.09957987327374651  0.8610756330504427  0.7567363214480523  1.0000
  H   H11       1.0  0.08963559509661216  0.8251828894500508  0.013050897740541023  1.0000
  H   H12       1.0  0.05596540672297934  0.09246266010151992  0.8443971385129476  1.0000
  H   H13       1.0  0.17620445803025897  0.07179289132643339  0.8695488168788091  1.0000
  H   H14       1.0  0.11394854544049715  0.9359680428944649  0.7840499222143631  1.0000
  C   C16       1.0  0.07208924006840922  0.5617773978789451  0.9831331846097444  1.0000
  C   C17       1.0  0.14502745746214674  0.6227871767753328  0.051530448407137504  1.0000
  C   C18       1.0  0.2128163074664038  0.6945642966039427  0.9715317412912922  1.0000
  C   C19       1.0  0.20790866299584243  0.7056933817866342  0.8200777543955842  1.0000
  C   C20       1.0  0.13685743647288118  0.6438120174888062  0.7503377881420052  1.0000
  C   C21       1.0  0.0691056169093236  0.5694158427011249  0.8296742486225669  1.0000
  O   O1        1.0  0.2833205397646153  0.7537953239956918  0.04656737441610215  1.0000
  C   C22       1.0  0.3565680963307023  0.8297951548261271  0.9792894062295625  1.0000
  H   H15       1.0  0.8596673430175396  0.4729512620888321  0.09451701922575406  1.0000
  H   H16       1.0  0.25913531209084684  0.7608353636914696  0.7550113303716381  1.0000
  H   H17       1.0  0.136086603967982  0.651246490560921  0.6332450878997715  1.0000
  H   H18       1.0  0.9274892186454476  0.5038953839745794  0.5544864445633225  1.0000
  H   H19       1.0  0.3318966834308219  0.9273957489799468  0.9147575680299053  1.0000
  H   H20       1.0  0.39437090104034866  0.7582351145907574  0.9089562823152956  1.0000
  H   H21       1.0  0.40218302546315865  0.8643254535252567  0.06402861614434309  1.0000
  Zn  Zn1       1.0  0.9724767155502043  0.5654972630869404  0.4065073267012136  1.0000
  Zn  Zn2       1.0  0.1687095939437704  0.5656953216924246  0.4062994768521616  1.0000
  C   C23       1.0  0.06970492570368547  0.5622248573257571  0.6696693668563054  1.0000
  C   C24       1.0  0.07148351432751637  0.5689695511584338  0.1431375728944666  1.0000
  C   C25       1.0  0.06890195582762315  0.8290304022368535  0.4002250822431954  1.0000
  C   C26       1.0  0.07228642822828052  0.30216227360632003  0.4125819372851932  1.0000
  O   O2        1.0  0.14574962278258669  0.5714521719027996  0.19675763971417995  1.0000
  O   O3        1.0  0.1443750399597502  0.5598914664085809  0.6158911336856159  1.0000
  O   O4        1.0  0.14372562246508125  0.7753403306512063  0.39831296608506306  1.0000
  O   O5        1.0  0.14639897363014764  0.3560033169374952  0.414335699295243  1.0000
  O   O6        1.0  0.9947872688991924  0.7751892677757841  0.39847110432147725  1.0000
  O   O7        1.0  0.995436675404526  0.5597421361080903  0.6160491922077584  1.0000
  O   O8        1.0  0.9968112647211337  0.5713027756928737  0.19691396536489036  1.0000
  O   O9        1.0  0.9974606152511687  0.3558539113841627  0.41449213302878807  1.0000
