data_image0
_chemical_formula_structural       NC10NC5H10C12ClH9C11NCOCH12Zn2C4O8
_chemical_formula_sum              "N3 C44 H31 Cl1 O9 Zn2"
_cell_length_a       19.4436361288709
_cell_length_b       10.299768534541528
_cell_length_c       10.299158637457994
_cell_angle_alpha    85.58253282463849
_cell_angle_beta     89.6864852280966
_cell_angle_gamma    89.43641405984484

_space_group_name_H-M_alt    "P 1"
_space_group_IT_number       1

loop_
  _space_group_symop_operation_xyz
  'x, y, z'

loop_
  _atom_site_type_symbol
  _atom_site_label
  _atom_site_symmetry_multiplicity
  _atom_site_fract_x
  _atom_site_fract_y
  _atom_site_fract_z
  _atom_site_occupancy
  N   N1        1.0  0.6481259337551204  0.4087775878637829  0.5621398484398332  1.0000
  C   C1        1.0  0.5892900767094615  0.41868187577393834  0.5765244991284683  1.0000
  C   C2        1.0  0.5159608846012166  0.43103386001030386  0.5945176599700162  1.0000
  C   C3        1.0  0.47378216033108345  0.3990206690999856  0.4998410435976173  1.0000
  C   C4        1.0  0.3978786334433933  0.4094597261117152  0.5051696936026098  1.0000
  C   C5        1.0  0.3581233105999643  0.38473127557683884  0.6122424937450298  1.0000
  C   C6        1.0  0.2820048593163336  0.38864552496824784  0.5992831138499171  1.0000
  C   C7        1.0  0.24144102174660004  0.4463225162127493  0.6930578842953361  1.0000
  C   C8        1.0  0.1697794046358506  0.4499583340174495  0.6825140043352673  1.0000
  C   C9        1.0  0.1376867717516801  0.39552120684923714  0.5784818658683107  1.0000
  C   C10       1.0  0.0638959374757018  0.3992182392810752  0.5677827045799397  1.0000
  N   N2        1.0  0.004573111674783796  0.40219045938584275  0.5591812882483371  1.0000
  C   C11       1.0  0.1775255582897288  0.3371372053048728  0.48509030224221505  1.0000
  C   C12       1.0  0.2492036236683484  0.3334471197490365  0.4953823985595516  1.0000
  C   C13       1.0  0.3862347076642284  0.3442944756779931  0.7433370897996612  1.0000
  C   C14       1.0  0.4449001331298493  0.387423984774101  0.7905823234570524  1.0000
  C   C15       1.0  0.48913210340163976  0.4852672785732428  0.7162184841668573  1.0000
  H   H1        1.0  0.49588650567995174  0.36988805877463293  0.40953153492237215  1.0000
  H   H2        1.0  0.3731944026542617  0.4319374697434641  0.41201107096449757  1.0000
  H   H3        1.0  0.2653095511426275  0.4896269890739832  0.7739094408326861  1.0000
  H   H4        1.0  0.1394338939261593  0.4952850917286466  0.7554380775123086  1.0000
  H   H5        1.0  0.1531851411519582  0.2940284458385647  0.4045732428262754  1.0000
  H   H6        1.0  0.278883068270888  0.2858771355702967  0.4231545614389087  1.0000
  H   H7        1.0  0.3552513796969485  0.28008992816477013  0.807581862984193  1.0000
  H   H8        1.0  0.46003341154301286  0.35337472411048876  0.8885165488725821  1.0000
  H   H9        1.0  0.45904096510081066  0.5759754696568273  0.6909705378300046  1.0000
  H   H10       1.0  0.5324143393032064  0.5108640093028485  0.7793055946034813  1.0000
  C   C16       1.0  0.8262879424726308  0.024119770742005112  0.5606589816725722  1.0000
  C   C17       1.0  0.8308409606150969  0.03355315823974281  0.42415109109830884  1.0000
  C   C18       1.0  0.8332141314922755  0.921192544202044  0.3549882974228207  1.0000
  C   C19       1.0  0.8309723195558943  0.7982630187507932  0.4241654909059749  1.0000
  C   C20       1.0  0.8264176834130834  0.786838132094174  0.5606733328594282  1.0000
  C   C21       1.0  0.824101507597902  0.9003228718444031  0.6281556291961548  1.0000
  C   C22       1.0  0.8380317596202342  0.9322259326778316  0.2105743214588998  1.0000
  C   C23       1.0  0.7989160870039596  0.02646258177270088  0.1364345382538377  1.0000
  C   C24       1.0  0.803511855780271  0.03665059690310568  0.0005154762159187414  1.0000
  C   C25       1.0  0.8471571643305581  0.9531247226547457  0.9370448739069387  1.0000
  C   C26       1.0  0.8862618217227607  0.8591999881149606  0.009673515018209677  1.0000
  C   C27       1.0  0.8817881912514796  0.8486174698041689  0.14560620669556745  1.0000
  Cl  Cl1       1.0  0.8528466046734227  0.9661545602978943  0.7665111870014525  1.0000
  H   H11       1.0  0.8245177288336685  0.34797958703744425  0.6126722475156652  1.0000
  H   H12       1.0  0.8335015953204563  0.1284977446375759  0.37139596454362783  1.0000
  H   H13       1.0  0.8318380766568252  0.7113945435021546  0.37121170474776527  1.0000
  H   H14       1.0  0.8205883671280162  0.892277271791349  0.7334651887118179  1.0000
  H   H15       1.0  0.8247095379484891  0.45503046528146623  0.6126938845847123  1.0000
  H   H16       1.0  0.7641327835726218  0.09109779489557754  0.1834671090544029  1.0000
  H   H17       1.0  0.7729840171266141  0.10930886150929099  0.9446566156388343  1.0000
  H   H18       1.0  0.920278369064926  0.7945317331515545  0.9609578158014793  1.0000
  H   H19       1.0  0.9131890517651012  0.7762358534076296  0.19996350316515143  1.0000
  C   C28       1.0  0.8264172688262705  0.40533981523971185  0.1792925500551228  1.0000
  C   C29       1.0  0.8280385591216032  0.5420118501120281  0.1679683224836206  1.0000
  C   C30       1.0  0.8288066180719778  0.6114473158786231  0.045069600807145616  1.0000
  C   C31       1.0  0.8279069559352435  0.5423741485582076  0.9326579435071749  1.0000
  C   C32       1.0  0.8262883512860211  0.40561815594241946  0.9420398409339419  1.0000
  C   C33       1.0  0.8255564809744356  0.3379418140538708  0.06574494390358487  1.0000
  C   C34       1.0  0.8305225684949987  0.7560295425973609  0.03406348933530646  1.0000
  C   C35       1.0  0.8743691021893867  0.9591418790915328  0.10579353555173632  1.0000
  C   C36       1.0  0.8342316887276889  0.03086832769472858  0.011978560188236289  1.0000
  C   C37       1.0  0.7911865440259043  0.9641909082985071  0.9315501633514662  1.0000
  C   C38       1.0  0.7895943809883215  0.8281588985434039  0.9417771777960589  1.0000
  N   N3        1.0  0.8339928530671119  0.17091742040545732  0.0007480051495263284  1.0000
  C   C39       1.0  0.8929338714373494  0.24881535300710755  0.02349196274480647  1.0000
  O   O1        1.0  0.9522256867403428  0.19830743266731465  0.03151497144241634  1.0000
  C   C40       1.0  0.8848904844442315  0.3927778140237428  0.028164199976934864  1.0000
  H   H20       1.0  0.8258151990218865  0.35276764455550763  0.5111239268284015  1.0000
  H   H21       1.0  0.8277468818400007  0.5948339992072862  0.2549226698141252  1.0000
  H   H22       1.0  0.8294070747223034  0.5953595387577528  0.8376749594184987  1.0000
  H   H23       1.0  0.8243082963515822  0.23252343692011523  0.07376466852035368  1.0000
  H   H24       1.0  0.8236508630533261  0.14747528050613123  0.7524519993040002  1.0000
  H   H25       1.0  0.9061152364601872  0.007894335420190572  0.17256255991448824  1.0000
  H   H26       1.0  0.7590246135487804  0.017886817873573144  0.8601949352547825  1.0000
  H   H27       1.0  0.755594966555794  0.7794013031450894  0.8787110966065997  1.0000
  H   H28       1.0  0.7894164208919296  0.21919574904631742  0.9661722188000704  1.0000
  H   H29       1.0  0.8365317976916422  0.41538595973654235  0.07998381992674665  1.0000
  H   H30       1.0  0.8830492381866505  0.43947874975099355  0.9274616336887386  1.0000
  H   H31       1.0  0.9287769745675684  0.43273405786182634  0.0804555295020879  1.0000
  Zn  Zn1       1.0  0.750988889026683  0.40687321628947615  0.5612935840435833  1.0000
  Zn  Zn2       1.0  0.9017101443087558  0.40408422730584426  0.5600382337562533  1.0000
  C   C41       1.0  0.8263103029983294  0.4003919375062821  0.7978641604421763  1.0000
  C   C42       1.0  0.8263903764657021  0.4105671142791756  0.3234677711482312  1.0000
  C   C43       1.0  0.8263904883614942  0.642666338856339  0.5554954509417127  1.0000
  C   C44       1.0  0.8263101393948098  0.16829115362280556  0.5658365502870926  1.0000
  O   O2        1.0  0.8835792810692568  0.4112573711331539  0.37137789340531563  1.0000
  O   O3        1.0  0.8835153435979601  0.39758392269975196  0.749000882494687  1.0000
  O   O4        1.0  0.883579323009088  0.5932235805284858  0.5532864412218989  1.0000
  O   O5        1.0  0.8835152502452127  0.21561772351068909  0.5670922377307733  1.0000
  O   O6        1.0  0.7691837316564601  0.5953397210377873  0.5542395804906217  1.0000
  O   O7        1.0  0.769119752519294  0.39970162346852334  0.7499539525465704  1.0000
  O   O8        1.0  0.7691836902925469  0.41337502607593213  0.37232940203597226  1.0000
  O   O9        1.0  0.769119659447653  0.21773536920035497  0.568043843730319  1.0000
