data_image0
_chemical_formula_structural       NC8NH4C6NH5C6IH3Zn2C4O8
_chemical_formula_sum              "N3 C24 H12 I1 Zn2 O8"
_cell_length_a       14.927258825633057
_cell_length_b       9.274771166103582
_cell_length_c       9.275433903346869
_cell_angle_alpha    86.06373460888793
_cell_angle_beta     89.9656238394683
_cell_angle_gamma    90.59705077502286

_space_group_name_H-M_alt    "P 1"
_space_group_IT_number       1

loop_
  _space_group_symop_operation_xyz
  'x, y, z'

loop_
  _atom_site_type_symbol
  _atom_site_label
  _atom_site_symmetry_multiplicity
  _atom_site_fract_x
  _atom_site_fract_y
  _atom_site_fract_z
  _atom_site_occupancy
  N   N1        1.0  0.8542734789214954  0.5617183786695245  0.4076869478049243  1.0000
  C   C1        1.0  0.7767470543996943  0.5617183523144074  0.4076869575022568  1.0000
  C   C2        1.0  0.6803144126353147  0.5617183526104504  0.40768701256586115  1.0000
  C   C3        1.0  0.6327173811087972  0.47242857814347  0.3181397644338504  1.0000
  C   C4        1.0  0.5390060689797027  0.47242848798814724  0.31813973614324964  1.0000
  C   C5        1.0  0.4924984155967772  0.5617184047318571  0.40768692468026724  1.0000
  C   C6        1.0  0.5400954472266332  0.6510081883665115  0.49723406475979526  1.0000
  C   C7        1.0  0.6338068263472426  0.6510082785189306  0.4972340930563237  1.0000
  C   C8        1.0  0.3960657732376577  0.5617183065048318  0.40768686993926395  1.0000
  N   N2        1.0  0.318539349413935  0.561718387840457  0.4076868813887211  1.0000
  H   H1        1.0  0.6679896907001833  0.4029558988113635  0.24846699904578637  1.0000
  H   H2        1.0  0.5028860346344782  0.40295587616591  0.24846709628732766  1.0000
  H   H3        1.0  0.5048231376352469  0.7204808676986179  0.566906830147859  1.0000
  H   H4        1.0  0.6699267935976136  0.7204808811763979  0.566906840958801  1.0000
  C   C9        1.0  0.08366014732012217  0.13813016564229244  0.4084723438540625  1.0000
  C   C10       1.0  0.0630847795887528  0.22006789807983693  0.27961417639832864  1.0000
  C   C11       1.0  0.05087377595232123  0.15363879422446658  0.14993845911775328  1.0000
  C   C12       1.0  0.05928538910022385  0.003884491490836912  0.14818165594807398  1.0000
  C   C13       1.0  0.07820473263469552  0.9206084972740892  0.2752696890313753  1.0000
  C   C14       1.0  0.0891612088844911  0.9852956239338702  0.4069140312706925  1.0000
  N   N3        1.0  0.030849235380379317  0.23866095628980766  0.019664065679730218  1.0000
  H   H5        1.0  0.1843839027276295  0.22114578282146202  0.7238279194191479  1.0000
  H   H6        1.0  0.05031425075925  0.9513357148525661  0.04840927448634292  1.0000
  H   H7        1.0  0.15337114274828062  0.6905121048817348  0.6214674801709126  1.0000
  H   H8        1.0  0.0246770237086491  0.35073436001497965  0.01961726440286515  1.0000
  H   H9        1.0  0.021961715640498536  0.19015460056064293  0.9222613969981043  1.0000
  C   C15       1.0  0.0865386763045417  0.5572107291776824  0.9845491262092452  1.0000
  C   C16       1.0  0.16904286798751467  0.5545102898895309  0.05800895030911968  1.0000
  C   C17       1.0  0.24981557877379013  0.5651019900750107  0.981870717380287  1.0000
  C   C18       1.0  0.24937901154498787  0.5787308932422444  0.8313000037188307  1.0000
  C   C19       1.0  0.1683785117429852  0.5792509965666015  0.7563236686983958  1.0000
  C   C20       1.0  0.08628265673215774  0.566214977162549  0.8308371865530932  1.0000
  I   I1        1.0  0.3725115332350757  0.5631871121626274  0.09465862016326909  1.0000
  H   H10       1.0  0.8735442929062512  0.6426668611806288  0.08188156454490447  1.0000
  H   H11       1.0  0.31191587025055817  0.5875485224840165  0.7720728455283261  1.0000
  H   H12       1.0  0.9423957010308368  0.6176834672653926  0.546267000284586  1.0000
  Zn  Zn1       1.0  0.988250561400822  0.5617145970989734  0.4076952653838275  1.0000
  Zn  Zn2       1.0  0.18456219955484077  0.5617104535182293  0.40769041796623195  1.0000
  C   C21       1.0  0.08629174362320913  0.5587665887355706  0.6708812178500287  1.0000
  C   C22       1.0  0.0865231728249265  0.5646602833636615  0.14450460352832217  1.0000
  C   C23       1.0  0.0881185061535339  0.8251021941420966  0.40146650098550984  1.0000
  C   C24       1.0  0.08469633203049787  0.2983229457404861  0.41391940040540454  1.0000
  O   O1        1.0  0.1610171724450706  0.5671525563679576  0.1981852949339995  1.0000
  O   O2        1.0  0.16079372807925418  0.5562700782536203  0.6171964345711376  1.0000
  O   O3        1.0  0.16226785718636869  0.7713394638555865  0.3996421418150802  1.0000
  O   O4        1.0  0.15954297644977955  0.3520831799365687  0.4157394796316456  1.0000
  O   O5        1.0  0.013269717514368343  0.7713418706835382  0.3996462037124855  1.0000
  O   O6        1.0  0.01179559967984312  0.5562742173011245  0.617200416450052  1.0000
  O   O7        1.0  0.012019044302917333  0.5671566267167565  0.19818754446893894  1.0000
  O   O8        1.0  0.010544848204288025  0.35208724111769385  0.4157418372190682  1.0000
