data_image0
_chemical_formula_structural       NC9NC3NH7C9H10C7F3H4Zn2C4O8
_chemical_formula_sum              "N3 C32 H21 F3 Zn2 O8"
_cell_length_a       16.053384444249904
_cell_length_b       9.272676604525723
_cell_length_c       9.272721663655245
_cell_angle_alpha    86.12112079025516
_cell_angle_beta     90.31938989593549
_cell_angle_gamma    89.72820801156413

_space_group_name_H-M_alt    "P 1"
_space_group_IT_number       1

loop_
  _space_group_symop_operation_xyz
  'x, y, z'

loop_
  _atom_site_type_symbol
  _atom_site_label
  _atom_site_symmetry_multiplicity
  _atom_site_fract_x
  _atom_site_fract_y
  _atom_site_fract_z
  _atom_site_occupancy
  N   N1        1.0  0.7848314873236728  0.550221213480311  0.41295448647718835  1.0000
  C   C1        1.0  0.7335158495494383  0.5266642787591167  0.3297511047596404  1.0000
  C   C2        1.0  0.6697447758560225  0.49739465167073427  0.22639219490811313  1.0000
  C   C3        1.0  0.6825336406625561  0.4832003910825446  0.08118159568108885  1.0000
  C   C4        1.0  0.6054510592053697  0.4547659158208947  0.023042523401880066  1.0000
  C   C5        1.0  0.5489293215337975  0.4531945242689047  0.13591856777450073  1.0000
  C   C6        1.0  0.4580699153785188  0.42668388276396335  0.1244267312341587  1.0000
  C   C7        1.0  0.4029803807235106  0.4746716991159974  0.22889712474256396  1.0000
  C   C8        1.0  0.3172349949035222  0.4495282491700833  0.2178911971334174  1.0000
  C   C9        1.0  0.26138989424733783  0.49946763100232694  0.3250035209344917  1.0000
  N   N2        1.0  0.21650697045640363  0.5396118427198651  0.4111050583943747  1.0000
  C   C10       1.0  0.2858524974594556  0.3762727277933342  0.10242955827961042  1.0000
  C   C11       1.0  0.3399354427599434  0.3284189901580665  0.9981947564141298  1.0000
  C   C12       1.0  0.4254715483189899  0.3533760535867443  0.008759560826266494  1.0000
  N   N3        1.0  0.58890343967474  0.47936999510206957  0.2598882303776042  1.0000
  H   H1        1.0  0.7410242781672473  0.4924783812570936  0.0239142603297473  1.0000
  H   H2        1.0  0.5925221249873321  0.4388662272736709  0.9106416278374064  1.0000
  H   H3        1.0  0.4260837390741251  0.5333959529528653  0.31774984014366936  1.0000
  H   H4        1.0  0.2196700679950429  0.35627350410201686  0.09298031479634083  1.0000
  H   H5        1.0  0.3155505958549448  0.27151620062955656  0.9090903134589058  1.0000
  H   H6        1.0  0.4659485579087625  0.31358247406784767  0.9272619915718737  1.0000
  H   H7        1.0  0.5632887093522025  0.482555316289924  0.3628897109093474  1.0000
  C   C13       1.0  0.9983034600678872  0.12147588433107634  0.4101978354394018  1.0000
  C   C14       1.0  0.9655820637701422  0.18705333291412704  0.5297605272664405  1.0000
  C   C15       1.0  0.9405000247209825  0.10422691056102162  0.6528146588777917  1.0000
  C   C16       1.0  0.9473308680723442  0.9533529980335725  0.6604466422996531  1.0000
  C   C17       1.0  0.9786817567939231  0.8863532942656807  0.5397788493995543  1.0000
  C   C18       1.0  0.0030429813626215983  0.9683459735293937  0.41387409229933136  1.0000
  C   C19       1.0  0.919351620416113  0.8712067948872236  0.7990840541910349  1.0000
  C   C20       1.0  0.877178777435201  0.726067764266745  0.7849076022457351  1.0000
  C   C21       1.0  0.9654504214227113  0.7316863151264704  0.8455427140450638  1.0000
  H   H8        1.0  0.015571559471472044  0.41854267117095234  0.17383220820626133  1.0000
  H   H9        1.0  0.961186226728782  0.3036831138098081  0.5296407415972411  1.0000
  H   H10       1.0  0.9162953606258287  0.15878006009597279  0.7435204655491587  1.0000
  H   H11       1.0  0.9826624521028162  0.769862684642438  0.5411008092373095  1.0000
  H   H12       1.0  0.02282032019408043  0.8890499195714165  0.06071482154439244  1.0000
  H   H13       1.0  0.8962445275039784  0.9324104924532848  0.8899729163929784  1.0000
  H   H14       1.0  0.8727414361725416  0.6863055915811209  0.6749987602295204  1.0000
  H   H15       1.0  0.8293372366289326  0.6989312381335607  0.8683011232933295  1.0000
  H   H16       1.0  0.014608457055229394  0.6952097271872095  0.772551712837763  1.0000
  H   H17       1.0  0.9691973658368299  0.7078276637386349  0.9643935985128672  1.0000
  C   C22       1.0  0.9984562436041268  0.5426263422677401  0.9885920200617404  1.0000
  C   C23       1.0  0.03324686701270996  0.4238114963724747  0.07065048495729132  1.0000
  C   C24       1.0  0.07538610046740124  0.3133942774690759  0.004087560985369441  1.0000
  C   C25       1.0  0.08017180941139901  0.3199176204793835  0.852946222000146  1.0000
  C   C26       1.0  0.04487073009694531  0.4357424246720307  0.7699085377564456  1.0000
  C   C27       1.0  0.002890188964566944  0.5471955524748191  0.8354798687459639  1.0000
  C   C28       1.0  0.11032042195138048  0.1850382335788443  0.09372880134651651  1.0000
  F   F1        1.0  0.13860632077013846  0.22625744493140584  0.22602349359718607  1.0000
  F   F2        1.0  0.17638261112820297  0.12376309687550567  0.024065511956603114  1.0000
  F   F3        1.0  0.04858707076510327  0.0827491169206411  0.11657594902246893  1.0000
  H   H18       1.0  0.9475789131692904  0.8872941143309798  0.06652818253960291  1.0000
  H   H19       1.0  0.11048491424081575  0.2344555561318202  0.7985387550446026  1.0000
  H   H20       1.0  0.04844260814631629  0.43611588058642603  0.6532406301597362  1.0000
  H   H21       1.0  0.8547743186974555  0.7940772236553089  0.7158851916649178  1.0000
  Zn  Zn1       1.0  0.9094037268177017  0.5471557775247367  0.4124290842838012  1.0000
  Zn  Zn2       1.0  0.09193470345974797  0.542665594655589  0.41164219487049847  1.0000
  C   C29       1.0  0.002018054420434678  0.5405874760362586  0.6753750205063904  1.0000
  C   C30       1.0  0.99932238001276  0.549235667263059  0.14869639948236824  1.0000
  C   C31       1.0  0.002112716310883388  0.8082386157440564  0.4074330770109924  1.0000
  C   C32       1.0  0.9992276465442232  0.28158279707090367  0.41663841260331114  1.0000
  O   O1        1.0  0.06888258246503876  0.5497435253383026  0.20213024404798863  1.0000
  O   O2        1.0  0.07099463149906526  0.5366705830164871  0.6213435252702475  1.0000
  O   O3        1.0  0.07107014623603414  0.7528022943014016  0.4049785206981371  1.0000
  O   O4        1.0  0.06880700493428438  0.33361182531735567  0.418495140815734  1.0000
  O   O5        1.0  0.9325313630542703  0.7562095483967779  0.40557613859951447  1.0000
  O   O6        1.0  0.9324558576064944  0.540079569130028  0.6219410738070288  1.0000
  O   O7        1.0  0.9303437992699616  0.5531524518484023  0.20272605870215976  1.0000
  O   O8        1.0  0.9302682222440976  0.33702074209729543  0.41909106353521963  1.0000
