data_image0
_chemical_formula_structural       NC9NC5H8C12NCOCH13C12NH11Zn2C4O8
_chemical_formula_sum              "N4 C44 H32 O9 Zn2"
_cell_length_a       17.807436237873137
_cell_length_b       10.299155265289647
_cell_length_c       10.299774167527174
_cell_angle_alpha    85.56091470143106
_cell_angle_beta     89.3859809594266
_cell_angle_gamma    88.36808077728017

_space_group_name_H-M_alt    "P 1"
_space_group_IT_number       1

loop_
  _space_group_symop_operation_xyz
  'x, y, z'

loop_
  _atom_site_type_symbol
  _atom_site_label
  _atom_site_symmetry_multiplicity
  _atom_site_fract_x
  _atom_site_fract_y
  _atom_site_fract_z
  _atom_site_occupancy
  N   N1        1.0  0.7072033638030413  0.38744275510648296  0.5567836109859818  1.0000
  C   C1        1.0  0.6466243290390916  0.3522468109804966  0.5457704592591235  1.0000
  C   C2        1.0  0.571270667990988  0.3084669324628253  0.532071294290265  1.0000
  C   C3        1.0  0.5532020888333358  0.237014704076393  0.42709375715563097  1.0000
  C   C4        1.0  0.4800376020596618  0.19439628552475208  0.4137101584337317  1.0000
  C   C5        1.0  0.4238930612693436  0.22285252449527523  0.5052717571062999  1.0000
  C   C6        1.0  0.3461380414542523  0.17767507240202152  0.4911304949307511  1.0000
  C   C7        1.0  0.2839419301879942  0.25944578235378746  0.5170443812836412  1.0000
  C   C8        1.0  0.2106351823355459  0.21662431279876038  0.5036745225640442  1.0000
  C   C9        1.0  0.1473883640801153  0.301086707938774  0.5299515084902684  1.0000
  N   N2        1.0  0.0965509118313014  0.3689886305104627  0.5510774804286915  1.0000
  C   C10       1.0  0.1989410594192231  0.09177412423535625  0.4643655043435834  1.0000
  C   C11       1.0  0.2602798044816005  0.009989558335807606  0.438443232700096  1.0000
  C   C12       1.0  0.3334672209316305  0.052416393687942694  0.4516106770372926  1.0000
  C   C13       1.0  0.442652921205938  0.2947992257327085  0.61046836994576  1.0000
  C   C14       1.0  0.5158703317829211  0.33722718772751037  0.6236963801651487  1.0000
  H   H1        1.0  0.5956068172350121  0.21450629224043968  0.35539058374392574  1.0000
  H   H2        1.0  0.46714248622774746  0.1406848882387277  0.3308088893415597  1.0000
  H   H3        1.0  0.2924159774997732  0.35692737997846324  0.5458916577579198  1.0000
  H   H4        1.0  0.1424842469936866  0.05773208778401905  0.4537810362391721  1.0000
  H   H5        1.0  0.2511073132000124  0.9133277718790429  0.40839535486501427  1.0000
  H   H6        1.0  0.3801238218825352  0.986660216277707  0.4325823350397367  1.0000
  H   H7        1.0  0.4009651041682487  0.3167689279784494  0.6834661455482816  1.0000
  H   H8        1.0  0.5292935989054705  0.392158962947305  0.7055557084420363  1.0000
  C   C15       1.0  0.9019646277114755  0.9968141082166947  0.554047985118959  1.0000
  C   C16       1.0  0.8891403859879945  0.007094220504469503  0.41931738355848586  1.0000
  C   C17       1.0  0.882565473006203  0.8951721947976068  0.35088947848340246  1.0000
  C   C18       1.0  0.8889607744396678  0.7718429006163108  0.4190122461881563  1.0000
  C   C19       1.0  0.9017968501075474  0.7596070104373286  0.5538242608671722  1.0000
  C   C20       1.0  0.908223095417664  0.8726132673226449  0.6205121222270467  1.0000
  C   C21       1.0  0.8689999011814372  0.9070209376538626  0.20836075707419652  1.0000
  C   C22       1.0  0.9071056515260678  0.9993089414126421  0.12638870715050277  1.0000
  C   C23       1.0  0.8943457363636734  0.01032821878767321  0.9922595921572022  1.0000
  C   C24       1.0  0.8436920812868101  0.9283752543633415  0.9372541296913188  1.0000
  C   C25       1.0  0.8046686619501848  0.8379470173237815  0.019171472426030796  1.0000
  C   C26       1.0  0.8174559420975476  0.8266704157976144  0.15326285274299134  1.0000
  N   N3        1.0  0.8285147198185354  0.9393072514552419  0.7999222748074567  1.0000
  C   C27       1.0  0.8833768438329518  0.9736231810904262  0.7009053472877129  1.0000
  O   O1        1.0  0.9522957067395015  0.9728966597087302  0.7277523510480983  1.0000
  C   C28       1.0  0.8594191118794533  0.001176886488785552  0.5627233887288359  1.0000
  H   H9        1.0  0.906920699375159  0.3203350177185049  0.6058651017324082  1.0000
  H   H10       1.0  0.8831999567328753  0.10241018795036295  0.36759735540468985  1.0000
  H   H11       1.0  0.8849229911496631  0.6852243399433584  0.3664455629925636  1.0000
  H   H12       1.0  0.918117230185713  0.8639690168159424  0.7244321682581094  1.0000
  H   H13       1.0  0.9264741381890783  0.5292077411062351  0.8081374817224849  1.0000
  H   H14       1.0  0.9472195766173113  0.062464280198668565  0.16589116349520316  1.0000
  H   H15       1.0  0.9231708553036381  0.08440532106293742  0.932259643160028  1.0000
  H   H16       1.0  0.7644826971721326  0.7754989644248432  0.9788030785964406  1.0000
  H   H17       1.0  0.7862167270783027  0.7563242556574394  0.21413108799201216  1.0000
  H   H18       1.0  0.7756024544464618  0.9129401698448193  0.7696258172573001  1.0000
  H   H19       1.0  0.805188750128237  0.057192019451195446  0.5590647418847308  1.0000
  H   H20       1.0  0.8524702500721757  0.9078872796381797  0.5176033850474147  1.0000
  H   H21       1.0  0.9021910757923961  0.05922944309389466  0.5067039807722495  1.0000
  C   C29       1.0  0.9019063123292459  0.37809480067927653  0.17258369909880056  1.0000
  C   C30       1.0  0.8283393645083599  0.3322761028133061  0.17649724454174742  1.0000
  C   C31       1.0  0.7910360799784713  0.3091764802798538  0.06133280123790529  1.0000
  C   C32       1.0  0.8282877006299088  0.33250987003979365  0.9411932220781888  1.0000
  C   C33       1.0  0.9018551268266057  0.3783263185668498  0.935288525922767  1.0000
  C   C34       1.0  0.938252354234437  0.4008627247582066  0.05150908095977891  1.0000
  C   C35       1.0  0.7132065127663817  0.26070352025837695  0.06652645398181334  1.0000
  C   C36       1.0  0.6921143730691408  0.16324194633047703  0.16216350424411075  1.0000
  C   C37       1.0  0.6188576828645432  0.11767489057652147  0.16691810062087176  1.0000
  C   C38       1.0  0.5655343386980521  0.16873161972214645  0.07638059198851388  1.0000
  C   C39       1.0  0.5861308074480321  0.2658264971091049  0.9809102864211283  1.0000
  C   C40       1.0  0.6593649165298364  0.31149589263629296  0.9758897108530231  1.0000
  N   N4        1.0  0.4906097591202774  0.12206747756032632  0.08138018105201894  1.0000
  H   H22       1.0  0.9299514762710881  0.3954995460300752  0.49854988824966906  1.0000
  H   H23       1.0  0.7995000751489962  0.31613855226698373  0.2692107730781663  1.0000
  H   H24       1.0  0.8001565980845158  0.3131661073503976  0.8522812136323502  1.0000
  H   H25       1.0  0.9950060306980703  0.43620884603901  0.04772197158183666  1.0000
  H   H26       1.0  0.9298763624009629  0.39584008159080225  0.6055811115874912  1.0000
  H   H27       1.0  0.7325356329952208  0.12105486052574242  0.23223286965218629  1.0000
  H   H28       1.0  0.6037193196173278  0.042340032791771794  0.24098085921433143  1.0000
  H   H29       1.0  0.5453962872914592  0.3063629948721256  0.9105759526953028  1.0000
  H   H30       1.0  0.6736248295025679  0.38773894684989285  0.9021715873046633  1.0000
  H   H31       1.0  0.45046842161722084  0.15952917820171875  0.01429338895555898  1.0000
  H   H32       1.0  0.474726883028329  0.049713400536879115  0.15220584256616454  1.0000
  Zn  Zn1       1.0  0.8195606548595865  0.38211383007705774  0.5551444564504533  1.0000
  Zn  Zn2       1.0  0.9841936041902731  0.37430697170364047  0.5527273142196514  1.0000
  C   C41       1.0  0.9018642736546851  0.3731084892838583  0.7911225540007908  1.0000
  C   C42       1.0  0.9018917828128077  0.3833138660441491  0.31674931725453037  1.0000
  C   C43       1.0  0.9018250230696591  0.6154215006784789  0.548691671237892  1.0000
  C   C44       1.0  0.9019309775587424  0.140999296898882  0.5591802705355051  1.0000
  O   O2        1.0  0.9643642541000172  0.3820971037660028  0.3642153244589945  1.0000
  O   O3        1.0  0.9643444018029494  0.36839904677550495  0.7418216182294879  1.0000
  O   O4        1.0  0.9643118641440398  0.5640699082908729  0.546056977129397  1.0000
  O   O5        1.0  0.9643967355853426  0.18642625417604794  0.5599798690107087  1.0000
  O   O6        1.0  0.8393574672833718  0.5699945502701591  0.5478919024774169  1.0000
  O   O7        1.0  0.8393900046002266  0.3743252491709465  0.7436564738774532  1.0000
  O   O8        1.0  0.8394098570619729  0.38802326042538055  0.36604861878629746  1.0000
  O   O9        1.0  0.8394423385397369  0.19235240157552155  0.5618132607044095  1.0000
