data_image0
_chemical_formula_structural       NC8NC6H8C7OC4NC3H8C6SCOC6H10Zn2C4O8
_chemical_formula_sum              "N3 C45 H26 O10 S1 Zn2"
_cell_length_a       17.457602349358154
_cell_length_b       10.299371701877257
_cell_length_c       10.302041481415108
_cell_angle_alpha    85.56120269447774
_cell_angle_beta     92.8727530123399
_cell_angle_gamma    91.69730494660953

_space_group_name_H-M_alt    "P 1"
_space_group_IT_number       1

loop_
  _space_group_symop_operation_xyz
  'x, y, z'

loop_
  _atom_site_type_symbol
  _atom_site_label
  _atom_site_symmetry_multiplicity
  _atom_site_fract_x
  _atom_site_fract_y
  _atom_site_fract_z
  _atom_site_occupancy
  N   N1        1.0  0.7226296392235737  0.4533067485886313  0.6273212788860882  1.0000
  C   C1        1.0  0.6615472755971851  0.4073850584076421  0.6166914974821416  1.0000
  C   C2        1.0  0.5855582324539538  0.35026418694607864  0.6034775913416497  1.0000
  C   C3        1.0  0.527031002714509  0.390400468314434  0.6783733323990002  1.0000
  C   C4        1.0  0.4524802419719042  0.3353976541515107  0.6657744856241046  1.0000
  C   C5        1.0  0.3903621850393388  0.3777755742254367  0.7450918703712599  1.0000
  C   C6        1.0  0.3158195681074119  0.3962631348769314  0.6893470336736689  1.0000
  C   C7        1.0  0.2572923121036631  0.4362154533211741  0.7643506394814017  1.0000
  C   C8        1.0  0.181311687174515  0.4553096278887807  0.7063910381338039  1.0000
  N   N2        1.0  0.12023618056195931  0.4706549644766846  0.659791667392783  1.0000
  C   C9        1.0  0.2728155167198098  0.45792317888529555  0.8956075759087854  1.0000
  C   C10       1.0  0.3465734559372242  0.4398244730137942  0.9517400652239469  1.0000
  C   C11       1.0  0.405089108692592  0.40005205243608577  0.8771941455938167  1.0000
  C   C12       1.0  0.43774533960543033  0.23958162868582655  0.5768470475644925  1.0000
  C   C13       1.0  0.49626086542226056  0.19972389088359027  0.5023513223422384  1.0000
  C   C14       1.0  0.5700268515779333  0.25483889241933677  0.5155000396709981  1.0000
  H   H1        1.0  0.539380439005885  0.46557214851853157  0.7450163784847914  1.0000
  H   H2        1.0  0.3034768416357199  0.3813277942957953  0.5873393483522444  1.0000
  H   H3        1.0  0.227955573723098  0.48878585719709416  0.9544416525124406  1.0000
  H   H4        1.0  0.3584026493283979  0.45631760582633785  0.05337512584484183  1.0000
  H   H5        1.0  0.4615714063146996  0.38504440043753374  0.923285257888941  1.0000
  H   H6        1.0  0.3812563173977223  0.1942496204891442  0.5661813671575553  1.0000
  H   H7        1.0  0.48442540158778047  0.1256690857798859  0.43451061263702573  1.0000
  H   H8        1.0  0.6148867277093559  0.22310633879481978  0.45717666736192686  1.0000
  C   C15       1.0  0.9213964516534017  0.0806088597842949  0.6434265312528555  1.0000
  C   C16       1.0  0.9251293638918393  0.09016003554289552  0.5070987380868424  1.0000
  C   C17       1.0  0.9261409928345237  0.9777704836493295  0.4382052523993154  1.0000
  C   C18       1.0  0.9251388421652585  0.8548920232313304  0.507416833093038  1.0000
  C   C19       1.0  0.921476700677888  0.8433431271434575  0.6436982342202442  1.0000
  C   C20       1.0  0.9194248412601458  0.9567955454965106  0.7108822490933466  1.0000
  C   C21       1.0  0.9308884279123466  0.9877472438221685  0.2943770063402902  1.0000
  O   O1        1.0  0.9678160011543064  0.903630691007834  0.2424597817515346  1.0000
  C   C22       1.0  0.8937309167370208  0.09306769905951429  0.20944969915968725  1.0000
  C   C23       1.0  0.9265937639091038  0.13918746485987343  0.0921914734259679  1.0000
  C   C24       1.0  0.8914595514279752  0.23758505682430298  0.010550065199747218  1.0000
  C   C25       1.0  0.9258108677836577  0.2849545763745238  0.8912277615412197  1.0000
  N   N3        1.0  0.9534277961849016  0.3230299677406856  0.7953102146116611  1.0000
  C   C26       1.0  0.8228897436029013  0.28975774396634035  0.045112698190521876  1.0000
  C   C27       1.0  0.7893793149046212  0.24339969982357212  0.16057890013430343  1.0000
  C   C28       1.0  0.8242932465246969  0.14528997505784869  0.24219092428523048  1.0000
  H   H9        1.0  0.9281137769958515  0.18523233003720696  0.454468316045715  1.0000
  H   H10       1.0  0.9264873507685445  0.7681317278212055  0.45452720886836273  1.0000
  H   H11       1.0  0.9165474584336015  0.9486284134578136  0.8159812953873695  1.0000
  H   H12       1.0  0.9207156107080775  0.5114743131481865  0.6961489543061994  1.0000
  H   H13       1.0  0.9798002398492334  0.09942875147596553  0.06496712209729827  1.0000
  H   H14       1.0  0.795234723585809  0.365788241439481  0.9826289888986669  1.0000
  H   H15       1.0  0.7360418820300157  0.28316928465231905  0.18663982284794756  1.0000
  H   H16       1.0  0.7965722218271943  0.10933930121560675  0.33006215354313184  1.0000
  C   C29       1.0  0.9214509730218512  0.46210590125608664  0.2622765755536529  1.0000
  C   C30       1.0  0.9566361668009479  0.586739785925958  0.2542797818528333  1.0000
  C   C31       1.0  0.9744844363757679  0.6482447801583671  0.1333731536292082  1.0000
  C   C32       1.0  0.9567089382149124  0.5863390975758471  0.01918017237346081  1.0000
  C   C33       1.0  0.9214222002138955  0.46184608641603137  0.024848226856678753  1.0000
  C   C34       1.0  0.9040324816430589  0.400322543931682  0.14698571560557583  1.0000
  S   S1        1.0  0.020117526696492367  0.8067690857105543  0.12463164650134682  1.0000
  C   C35       1.0  0.11461888843740442  0.7410914586850972  0.1348932113334138  1.0000
  O   O2        1.0  0.14464138316196049  0.7192285764797954  0.03027666582270672  1.0000
  C   C36       1.0  0.15690328632454187  0.7115936344034817  0.26185996352296126  1.0000
  C   C37       1.0  0.22495517370510992  0.6408393011294258  0.2675840388526072  1.0000
  C   C38       1.0  0.26493909505276064  0.6116870407052517  0.38679064408216957  1.0000
  C   C39       1.0  0.23768546301906146  0.6528455457356632  0.5015172798606293  1.0000
  C   C40       1.0  0.17045814028974027  0.7234770448442709  0.4972407538801816  1.0000
  C   C41       1.0  0.1302452606992217  0.7529934510132319  0.3783149869100981  1.0000
  H   H17       1.0  0.8550180739737722  0.22730092110509717  0.48464814728528505  1.0000
  H   H18       1.0  0.9704235477698667  0.6362692422836012  0.3417370664098778  1.0000
  H   H19       1.0  0.9708214710118666  0.6355512097471288  0.9263781949329729  1.0000
  H   H20       1.0  0.8769089861594884  0.30423856061592236  0.15223026420212848  1.0000
  H   H21       1.0  0.908215656677014  0.4143531185966135  0.6996941443054476  1.0000
  H   H22       1.0  0.2471130102769341  0.6073480994883869  0.1800629191177392  1.0000
  H   H23       1.0  0.31708451667173576  0.5569776136384534  0.39018225375036725  1.0000
  H   H24       1.0  0.26870689842967477  0.6301478261457245  0.5937043415636585  1.0000
  H   H25       1.0  0.14949147298866686  0.7556331779013341  0.5862127058739299  1.0000
  H   H26       1.0  0.07868215732503536  0.8086703446365957  0.3781985180529066  1.0000
  Zn  Zn1       1.0  0.8373702976625863  0.4583095836658897  0.6366990272039839  1.0000
  Zn  Zn2       1.0  0.005495506351349103  0.46564147786807686  0.6504245454922928  1.0000
  C   C42       1.0  0.9214253629886232  0.45672141514848263  0.8807038464918764  1.0000
  C   C43       1.0  0.9214422771149502  0.46723136503954343  0.4064200041090342  1.0000
  C   C44       1.0  0.9214577763390461  0.6991717209487384  0.6384725136008864  1.0000
  C   C45       1.0  0.9214098062283705  0.22477949639808695  0.6486514009841782  1.0000
  O   O3        1.0  0.9852419985985597  0.47172826735694784  0.4600046161396627  1.0000
  O   O4        1.0  0.9852287846582999  0.45778827127861565  0.8375362111416236  1.0000
  O   O5        1.0  0.9852540987075957  0.6535699214466824  0.6419326262686904  1.0000
  O   O6        1.0  0.9852166271841728  0.27594662401046954  0.6556080989788671  1.0000
  O   O7        1.0  0.8576491194568806  0.6480044350228977  0.6315154690267344  1.0000
  O   O8        1.0  0.8576238055708589  0.4522243451954314  0.8271189852248391  1.0000
  O   O9        1.0  0.8576370196163327  0.46616429655146985  0.44958582915048667  1.0000
  O   O10       1.0  0.8576116481941547  0.27038264388280364  0.6451894093327455  1.0000
