data_image0
_chemical_formula_structural       NC9NC5H8C7NC2NH8C8H5Zn2C4O8
_chemical_formula_sum              "N4 C35 H21 Zn2 O8"
_cell_length_a       17.807436237873137
_cell_length_b       9.273995741505848
_cell_length_c       9.275144076552241
_cell_angle_alpha    86.09759500334717
_cell_angle_beta     89.86257050345318
_cell_angle_gamma    88.97465214434487

_space_group_name_H-M_alt    "P 1"
_space_group_IT_number       1

loop_
  _space_group_symop_operation_xyz
  'x, y, z'

loop_
  _atom_site_type_symbol
  _atom_site_label
  _atom_site_symmetry_multiplicity
  _atom_site_fract_x
  _atom_site_fract_y
  _atom_site_fract_z
  _atom_site_occupancy
  N   N1        1.0  0.7088491249920335  0.5298189088930508  0.40234387633442387  1.0000
  C   C1        1.0  0.6480023630532488  0.4906705002221465  0.3900145813733804  1.0000
  C   C2        1.0  0.5723156788023637  0.44197419095619983  0.3746782772883925  1.0000
  C   C3        1.0  0.5533115454651301  0.361906835031146  0.257948887858676  1.0000
  C   C4        1.0  0.4798226433122357  0.3145020738969124  0.24296632203998603  1.0000
  C   C5        1.0  0.4242867763842393  0.3467453109657084  0.34467611684706423  1.0000
  C   C6        1.0  0.3461880796614725  0.296494447978616  0.3288449280096193  1.0000
  C   C7        1.0  0.2846155305559018  0.3874502556645516  0.35785255070818733  1.0000
  C   C8        1.0  0.2109831894456541  0.33982019402672337  0.3428846245888095  1.0000
  C   C9        1.0  0.1483781347424598  0.4337665318456727  0.37230334240186463  1.0000
  N   N2        1.0  0.0980566211791679  0.5092928960515599  0.3959551695639616  1.0000
  C   C10       1.0  0.1983382116600808  0.2009477383288971  0.2988802495625631  1.0000
  C   C11       1.0  0.2590532699471399  0.10997648971379155  0.2698632783775765  1.0000
  C   C12       1.0  0.3325629032412901  0.15716703545314026  0.2846053584801891  1.0000
  C   C13       1.0  0.44398625718399  0.42736312889354516  0.46165014480033695  1.0000
  C   C14       1.0  0.5175261788910284  0.47455535860913606  0.4764594503898647  1.0000
  H   H1        1.0  0.5952382419133275  0.33640812589158164  0.17829784647820035  1.0000
  H   H2        1.0  0.46620533562500355  0.254286056825322  0.15079271844987652  1.0000
  H   H3        1.0  0.2938232409924663  0.4958670801005736  0.3901631686086364  1.0000
  H   H4        1.0  0.1416227703967804  0.1630833036219148  0.28703021919389915  1.0000
  H   H5        1.0  0.2491464374909674  0.002461114885284666  0.23622257668400648  1.0000
  H   H6        1.0  0.3787266551079767  0.08403758533118189  0.2632881414835854  1.0000
  H   H7        1.0  0.4027793170893248  0.45227310061618137  0.5427364464801054  1.0000
  H   H8        1.0  0.5316741649373443  0.5361186136391378  0.5674802716322327  1.0000
  C   C15       1.0  0.9012059845284027  0.09617807458164253  0.39813344303290854  1.0000
  C   C16       1.0  0.9138437219450062  0.1778371736615283  0.26756990922514046  1.0000
  C   C17       1.0  0.9332242424301346  0.11082778443088405  0.14230223566628353  1.0000
  C   C18       1.0  0.940782376387354  0.9599959466973487  0.14401560689939252  1.0000
  C   C19       1.0  0.9265626071079404  0.8771343422710887  0.2734110245013053  1.0000
  C   C20       1.0  0.9057069292129709  0.9429223239281401  0.4001779417631591  1.0000
  C   C21       1.0  0.962231378495445  0.8909316758395164  0.009715250743014485  1.0000
  N   N3        1.0  0.9644161988986835  0.9641859992379259  0.8786999848170183  1.0000
  C   C22       1.0  0.9865614594397354  0.8644973097218867  0.7876804132454688  1.0000
  C   C23       1.0  0.9975992692687353  0.733535320645914  0.8640207214725582  1.0000
  N   N4        1.0  0.9823303050197741  0.7503130280719285  0.0036404691467082405  1.0000
  H   H9        1.0  0.8411751241615781  0.36539491958406556  0.6065717244383091  1.0000
  H   H10       1.0  0.9105564018897548  0.29482194076513957  0.2629748342763065  1.0000
  H   H11       1.0  0.9434117599206654  0.17780640704309336  0.04421596957361462  1.0000
  H   H12       1.0  0.9291140444754528  0.7604516372776253  0.275366708532075  1.0000
  H   H13       1.0  0.9076978255731781  0.646461114428088  0.6398504699367726  1.0000
  H   H14       1.0  0.9943870288647273  0.8863033994145878  0.6726289802682035  1.0000
  H   H15       1.0  0.015864365638978074  0.633162057199228  0.8209903036752457  1.0000
  H   H16       1.0  0.9867662868367468  0.6701269514276441  0.08782463624157466  1.0000
  C   C24       1.0  0.9016717944730309  0.5166932543815146  0.9758921195950561  1.0000
  C   C25       1.0  0.8532053909177  0.6133009950758128  0.042896634266207136  1.0000
  C   C26       1.0  0.8108031269547422  0.7167342853958119  0.9609105898699273  1.0000
  C   C27       1.0  0.8161015870629106  0.7256705777520642  0.810416188656319  1.0000
  C   C28       1.0  0.8630083024371387  0.6290393336888789  0.7416811782957788  1.0000
  C   C29       1.0  0.9052411190497598  0.522407235512212  0.8224193384406147  1.0000
  C   C30       1.0  0.7726296114000756  0.8331246378671443  0.7260877039636954  1.0000
  C   C31       1.0  0.7362349977511787  0.9230888533176285  0.6554688133760482  1.0000
  H   H17       1.0  0.05679132507109608  0.31919942224153997  0.0914764435328066  1.0000
  H   H18       1.0  0.8494359257924518  0.6110754962024865  0.15962256842498188  1.0000
  H   H19       1.0  0.7743914138053228  0.7907622150759992  0.015127011360257065  1.0000
  H   H20       1.0  0.8651932316821498  0.6349166631287393  0.6245756908508415  1.0000
  H   H21       1.0  0.7042880791909014  0.0020582532894106702  0.5934786101099174  1.0000
  Zn  Zn1       1.0  0.8211660145526543  0.5238917542429529  0.40050856015370356  1.0000
  Zn  Zn2       1.0  0.9857397009136407  0.5152083784153558  0.397802306842036  1.0000
  C   C32       1.0  0.9045342325979865  0.5155836550439798  0.662393690399423  1.0000
  C   C33       1.0  0.902373290274021  0.523518202864822  0.13591729290558474  1.0000
  C   C34       1.0  0.9048280705484013  0.7828311142351008  0.3940478926432449  1.0000
  C   C35       1.0  0.9020793872825985  0.2562690149814566  0.40426316424748354  1.0000
  O   O1        1.0  0.9650635415299131  0.52250713221215  0.18859617870130685  1.0000
  O   O2        1.0  0.9667515937832826  0.5100031539210479  0.6076604034180992  1.0000
  O   O3        1.0  0.9669880360422638  0.7258089115616415  0.3909692906034099  1.0000
  O   O4        1.0  0.9648270427122271  0.30670138711869965  0.40528718439275413  1.0000
  O   O5        1.0  0.8420786165931228  0.7323987485043371  0.3930236835189194  1.0000
  O   O6        1.0  0.841842183214204  0.5165947225207159  0.609714723663822  1.0000
  O   O7        1.0  0.8401541234369596  0.5290986388711427  0.19064876589903604  1.0000
  O   O8        1.0  0.8399176250170324  0.31329288419527757  0.4073398796296597  1.0000
