data_image0
_chemical_formula_structural       NC6NCNCH5C6NH7C7OH6Zn2C4O8
_chemical_formula_sum              "N4 C25 H18 O9 Zn2"
_cell_length_a       14.933214217465613
_cell_length_b       9.274771166103582
_cell_length_c       9.274074313596557
_cell_angle_alpha    86.0140142098405
_cell_angle_beta     90.19933690330467
_cell_angle_gamma    90.63112361825276

_space_group_name_H-M_alt    "P 1"
_space_group_IT_number       1

loop_
  _space_group_symop_operation_xyz
  'x, y, z'

loop_
  _atom_site_type_symbol
  _atom_site_label
  _atom_site_symmetry_multiplicity
  _atom_site_fract_x
  _atom_site_fract_y
  _atom_site_fract_z
  _atom_site_occupancy
  N   N1        1.0  0.8493189176956498  0.5639009784059976  0.4064715057426738  1.0000
  C   C1        1.0  0.7718325324195182  0.5648882230438645  0.40547931978644414  1.0000
  C   C2        1.0  0.675438922155557  0.5661190636382607  0.40424218676401313  1.0000
  C   C3        1.0  0.6272422886684236  0.47126302766574385  0.49959246322597517  1.0000
  C   C4        1.0  0.5337130731874021  0.4723356453031828  0.4985142866048171  1.0000
  C   C5        1.0  0.4874779239753103  0.5682099512188326  0.4021404715763839  1.0000
  C   C6        1.0  0.3908941997415033  0.5661212006021972  0.4042401122799961  1.0000
  N   N2        1.0  0.3134017191725481  0.5643787174596595  0.40599130335913336  1.0000
  C   C7        1.0  0.5357780241044972  0.6642637615248548  0.3055863091329327  1.0000
  N   N3        1.0  0.490857401351458  0.7639139984411105  0.20541712596036943  1.0000
  C   C8        1.0  0.6297838425405514  0.6622341628243631  0.3076266003253445  1.0000
  H   H1        1.0  0.6619463886889012  0.39647542217141263  0.5747697007677794  1.0000
  H   H2        1.0  0.4973386358960453  0.39817716354232685  0.5730589934228307  1.0000
  H   H3        1.0  0.527489178066685  0.8342965694938362  0.13466779049772803  1.0000
  H   H4        1.0  0.421136733090877  0.7692162414771078  0.20008732806404472  1.0000
  H   H5        1.0  0.6672797877016506  0.7356464866482466  0.23383177339830377  1.0000
  C   C9        1.0  0.0786173985257339  0.14054816548201865  0.40701983806842246  1.0000
  C   C10       1.0  0.05767646094655943  0.22257021439449678  0.278156084705246  1.0000
  C   C11       1.0  0.04509421786934342  0.15623470337902812  0.14846596080186414  1.0000
  C   C12       1.0  0.05349741898728366  0.006490494544164395  0.14670009223555924  1.0000
  C   C13       1.0  0.07277785214016835  0.9231299288824292  0.2737950548153274  1.0000
  C   C14       1.0  0.08411177153536081  0.987720560168703  0.40545551150888426  1.0000
  N   N4        1.0  0.024699783207655656  0.24134290811470757  0.018185116543863126  1.0000
  H   H6        1.0  0.1802159511559387  0.22340926544397674  0.7223369928578094  1.0000
  H   H7        1.0  0.05315986953144616  0.33915283889624104  0.2776071319218259  1.0000
  H   H8        1.0  0.04424048213564679  0.9540141644542438  0.04691618784119277  1.0000
  H   H9        1.0  0.07671354587919699  0.806929447211611  0.2696633029338513  1.0000
  H   H10       1.0  0.14891858012941517  0.6928274715189255  0.6199872861529763  1.0000
  H   H11       1.0  0.018529870001932073  0.3534099988351356  0.018144688697323996  1.0000
  H   H12       1.0  0.01553330406673026  0.1929071450289545  0.9207713324946023  1.0000
  C   C15       1.0  0.08026542927055491  0.5599787330698333  0.9830052632568357  1.0000
  C   C16       1.0  0.0024632249444904736  0.6024842215708288  0.05289626254542301  1.0000
  C   C17       1.0  0.92914586283438  0.656586793940857  0.9736902083401037  1.0000
  C   C18       1.0  0.9319168030758577  0.6696231758843756  0.8223833597527905  1.0000
  C   C19       1.0  0.00849862833641657  0.6253749515720664  0.7513569412878813  1.0000
  C   C20       1.0  0.08246369648882901  0.5682899102949821  0.8294701074816415  1.0000
  C   C21       1.0  0.8552652647477818  0.7276890589567921  0.7369649814882999  1.0000
  O   O1        1.0  0.785353123592763  0.7678075398938597  0.7976696483453726  1.0000
  H   H13       1.0  0.29882752463015483  0.5234533627458717  0.08963531323937102  1.0000
  H   H14       1.0  0.9991041435740561  0.5970874466446823  0.16982924474163563  1.0000
  H   H15       1.0  0.8706044478076469  0.6895476359607318  0.03109167679365732  1.0000
  H   H16       1.0  0.009581614473023196  0.6323664187920675  0.6341862964767024  1.0000
  H   H17       1.0  0.22934412981707797  0.5384606632199287  0.5519074725095021  1.0000
  H   H18       1.0  0.8585018874480664  0.736447945947071  0.6200760062979566  1.0000
  Zn  Zn1       1.0  0.9832431866029668  0.5640350548860833  0.40634126842657325  1.0000
  Zn  Zn2       1.0  0.1794773895928362  0.5642329235273276  0.4061333981208628  1.0000
  C   C22       1.0  0.0820089338529839  0.560972477212478  0.6694806979716181  1.0000
  C   C23       1.0  0.08071379738548906  0.5672973247880071  0.142994104403716  1.0000
  C   C24       1.0  0.0830536823702468  0.8275305170021637  0.40000792385711526  1.0000
  C   C25       1.0  0.07966897086702152  0.30073755263563506  0.41246695862840244  1.0000
  O   O2        1.0  0.15533409035873036  0.5698223081256748  0.19660894693148268  1.0000
  O   O3        1.0  0.15632585226371443  0.5585965793301915  0.6157076738173055  1.0000
  O   O4        1.0  0.1571684999067069  0.7738455812491369  0.39810650044910867  1.0000
  O   O5        1.0  0.1544913755405749  0.35457331539693926  0.4142100122879149  1.0000
  O   O6        1.0  0.008229133690115908  0.7736946629504453  0.3982646543228736  1.0000
  O   O7        1.0  0.007386497083215815  0.5584473933281591  0.6158657476442393  1.0000
  O   O8        1.0  0.006394730411649401  0.5696730548433742  0.19676528805301333  1.0000
  O   O9        1.0  0.005552015803544473  0.35442405285840195  0.41436646148456285  1.0000
