data_image0
_chemical_formula_structural       NC6NC3H6C10H5C6H4Zn2C4O8
_chemical_formula_sum              "N2 C29 H15 Zn2 O8"
_cell_length_a       14.934028789175542
_cell_length_b       9.275150299802176
_cell_length_c       10.681121600428288
_cell_angle_alpha    85.23622488855405
_cell_angle_beta     89.97499362812657
_cell_angle_gamma    89.44625895822752

_space_group_name_H-M_alt    "P 1"
_space_group_IT_number       1

loop_
  _space_group_symop_operation_xyz
  'x, y, z'

loop_
  _atom_site_type_symbol
  _atom_site_label
  _atom_site_symmetry_multiplicity
  _atom_site_fract_x
  _atom_site_fract_y
  _atom_site_fract_z
  _atom_site_occupancy
  N   N1        1.0  0.8343594389203988  0.5782265578957883  0.6104402994087423  1.0000
  C   C1        1.0  0.7568795143842924  0.5771278467771925  0.6098559692469547  1.0000
  C   C2        1.0  0.6604906111059977  0.5757559984504679  0.6091265432673423  1.0000
  C   C3        1.0  0.6121335225416499  0.6825964628512271  0.6658417652338038  1.0000
  C   C4        1.0  0.5186279267803825  0.6814949645753579  0.6652569328543906  1.0000
  C   C5        1.0  0.4725665671348456  0.5736075255424187  0.6079859960665581  1.0000
  C   C6        1.0  0.375907918521118  0.5759223594858347  0.6092159264731781  1.0000
  N   N2        1.0  0.298417576436893  0.577759472064822  0.6101923165662397  1.0000
  C   C7        1.0  0.5209263101075142  0.465288946687598  0.5504856493306869  1.0000
  C   C8        1.0  0.47326277075263967  0.347992874257659  0.4882213056037539  1.0000
  C   C9        1.0  0.6150567195125687  0.46751441930135  0.5516670653511083  1.0000
  H   H1        1.0  0.6467093672791606  0.7667768383039933  0.7105286112898295  1.0000
  H   H2        1.0  0.48212743392197854  0.7650270290372091  0.7095995040413778  1.0000
  H   H3        1.0  0.4302385476287356  0.39708808357290626  0.4110024528536677  1.0000
  H   H4        1.0  0.4308697563008074  0.28511507049397555  0.5581295954624714  1.0000
  H   H5        1.0  0.5211443764792847  0.2720185186687467  0.4478854473539843  1.0000
  H   H6        1.0  0.653044088761794  0.3850935802999064  0.507914630410414  1.0000
  C   C10       1.0  0.06875545386965642  0.15428507321139007  0.6124115517001016  1.0000
  C   C11       1.0  0.11584543836247357  0.2362904791111493  0.5176424674695421  1.0000
  C   C12       1.0  0.15525608064527335  0.17010203027228774  0.4180627248461133  1.0000
  C   C13       1.0  0.14797664945882585  0.020941892077082518  0.4119694915942038  1.0000
  C   C14       1.0  0.10284158461185239  0.937490682154317  0.5061747040471952  1.0000
  C   C15       1.0  0.06403019940082566  0.0016897958694566165  0.6082319332515513  1.0000
  C   C16       1.0  0.20235694144767669  0.2558495793725797  0.32112741153215696  1.0000
  C   C17       1.0  0.24179226536521436  0.3276654915614492  0.23997234914682686  1.0000
  C   C18       1.0  0.28796919968673884  0.41176686827157094  0.14494331049934428  1.0000
  C   C19       1.0  0.32739691996425035  0.48357730584266867  0.06380380499263993  1.0000
  H   H7        1.0  0.12014776439692972  0.3527344977523801  0.5195748048991948  1.0000
  H   H8        1.0  0.1779932328260456  0.9687671327211312  0.3349159490989375  1.0000
  H   H9        1.0  0.10010312484177758  0.8214934208208571  0.5007694882993432  1.0000
  H   H10       1.0  0.005845254738229049  0.871275196236293  0.9058062635599595  1.0000
  H   H11       1.0  0.3620177473627386  0.5466329661952514  0.9925566174443174  1.0000
  C   C20       1.0  0.0663928603984687  0.5779874287780173  0.24257651244289574  1.0000
  C   C21       1.0  0.0027487240091479404  0.4978053247610598  0.18158406893152446  1.0000
  C   C22       1.0  0.002748667586754954  0.49780541733483097  0.05070192855218658  1.0000
  C   C23       1.0  0.0663927896110254  0.5779874995777454  0.9780669478080037  1.0000
  C   C24       1.0  0.12998439745949225  0.6581031564282551  0.03905916723679391  1.0000
  C   C25       1.0  0.12998438612786356  0.6581031340662167  0.16995146601631372  1.0000
  H   H12       1.0  0.9528614453800829  0.4349548020532428  0.23495799292698516  1.0000
  H   H13       1.0  0.9528614263002559  0.4349548699899736  0.006453963376457979  1.0000
  H   H14       1.0  0.17987819032038332  0.7209619612768603  0.985729534221226  1.0000
  H   H15       1.0  0.17987814548686898  0.7209619107419194  0.21415390197921666  1.0000
  Zn  Zn1       1.0  0.9682766282728975  0.5780879005686019  0.6103759821363668  1.0000
  Zn  Zn2       1.0  0.1645004830542609  0.5778863102322732  0.6102669305506347  1.0000
  C   C26       1.0  0.06642288104456949  0.5722394093543831  0.8390718748493807  1.0000
  C   C27       1.0  0.06635636288945235  0.5837366197818128  0.38157115058036667  1.0000
  C   C28       1.0  0.06491878687767055  0.8415122913457105  0.604031670475728  1.0000
  C   C29       1.0  0.06786039976519653  0.3144620043342436  0.6166114303066426  1.0000
  O   O1        1.0  0.14081007935254725  0.5855833035766136  0.42817766740987384  1.0000
  O   O2        1.0  0.14089853611915737  0.5702386346689463  0.7923822352672146  1.0000
  O   O3        1.0  0.13968295722109106  0.7876798933286819  0.6025856004452141  1.0000
  O   O4        1.0  0.14202559123515468  0.3681420553072712  0.6179742083220368  1.0000
  O   O5        1.0  0.9907514531304231  0.7878321555639676  0.6026687043955838  1.0000
  O   O6        1.0  0.9919670223580642  0.5703926304308382  0.7924652638955809  1.0000
  O   O7        1.0  0.9918785659314583  0.5857372490581507  0.42825919066361817  1.0000
  O   O8        1.0  0.9930940778679445  0.36829599046877876  0.6180558255162382  1.0000
