data_image0
_chemical_formula_structural       NC12NC2H8C7OC6H10C7OC3OC4H12Zn2C4O8
_chemical_formula_sum              "N2 C45 H30 O11 Zn2"
_cell_length_a       17.80743265337812
_cell_length_b       10.299379429549807
_cell_length_c       10.299374482448636
_cell_angle_alpha    85.52536088050722
_cell_angle_beta     91.51588487774274
_cell_angle_gamma    89.43379168207073

_space_group_name_H-M_alt    "P 1"
_space_group_IT_number       1

loop_
  _space_group_symop_operation_xyz
  'x, y, z'

loop_
  _atom_site_type_symbol
  _atom_site_label
  _atom_site_symmetry_multiplicity
  _atom_site_fract_x
  _atom_site_fract_y
  _atom_site_fract_z
  _atom_site_occupancy
  N   N1        1.0  0.7076367197108525  0.40704691525014475  0.6007996386772474  1.0000
  C   C1        1.0  0.656828304805286  0.43662112616230137  0.5320892736188956  1.0000
  C   C2        1.0  0.5936176204098603  0.4734092970894903  0.4466222283732775  1.0000
  C   C3        1.0  0.6053653184784171  0.5274583571520322  0.3199812144794292  1.0000
  C   C4        1.0  0.5440616007226057  0.562742371524487  0.2369107303292666  1.0000
  C   C5        1.0  0.4708559917480488  0.5442409370954313  0.27982125374798095  1.0000
  C   C6        1.0  0.45813144095253655  0.490072974172486  0.40693045914481524  1.0000
  C   C7        1.0  0.5202924776245649  0.4547922171663773  0.4899844302220193  1.0000
  C   C8        1.0  0.3803571485914225  0.47045677853367035  0.45270171735085435  1.0000
  C   C9        1.0  0.36154863079812477  0.4976197927820981  0.5797376518331698  1.0000
  C   C10       1.0  0.28831306784437327  0.4791599262358983  0.622688723461996  1.0000
  C   C11       1.0  0.2329429147697433  0.4332825932582365  0.5394419318843549  1.0000
  C   C12       1.0  0.15757051836009853  0.4142695916999401  0.5837941494449201  1.0000
  N   N2        1.0  0.09697644919789171  0.3989844171751833  0.6194502812380018  1.0000
  C   C13       1.0  0.2510598499710452  0.4059505494372946  0.41294903507356184  1.0000
  C   C14       1.0  0.3242426014963402  0.4244252526148182  0.3697420679834864  1.0000
  H   H1        1.0  0.6618365527180756  0.5422897946411134  0.2855383951723387  1.0000
  H   H2        1.0  0.5532754576923866  0.6048612142438257  0.13911512108153912  1.0000
  H   H3        1.0  0.4242271923155188  0.5738911514036774  0.21421884357567444  1.0000
  H   H4        1.0  0.511777062657987  0.4112880050850969  0.5876560991767026  1.0000
  H   H5        1.0  0.4032127694565161  0.5347884854577172  0.645297941729988  1.0000
  H   H6        1.0  0.2748522757142863  0.5009875964734082  0.7206907858735585  1.0000
  H   H7        1.0  0.2086787270095032  0.3700491357388631  0.3478012409925657  1.0000
  H   H8        1.0  0.3371749888175778  0.40106188116607355  0.2720439064257443  1.0000
  C   C15       1.0  0.9023183498674303  0.02162349366984362  0.6102795746661294  1.0000
  C   C16       1.0  0.9478379868917505  0.010766914800422127  0.7242090768716412  1.0000
  C   C17       1.0  0.9700924283965007  0.8880663037584332  0.7824892797760119  1.0000
  C   C18       1.0  0.9477465948373509  0.775546797538322  0.7239284082354056  1.0000
  C   C19       1.0  0.9023020129030568  0.7843977268830714  0.6099818756377915  1.0000
  C   C20       1.0  0.8796882875959662  0.9079078262635503  0.5540077253056601  1.0000
  C   C21       1.0  0.01881036477423659  0.8765060612519558  0.9020240168513639  1.0000
  O   O1        1.0  0.0664685183439475  0.7847299169131041  0.9166635599801969  1.0000
  C   C22       1.0  0.013458990989124953  0.9689591728950977  0.004955515303016076  1.0000
  C   C23       1.0  0.07770582953709003  0.9970772730840974  0.07959793103851687  1.0000
  C   C24       1.0  0.07303473172888064  0.08291125737153915  0.177869384800327  1.0000
  C   C25       1.0  0.004212021787526998  0.14062353699503705  0.2033316473628769  1.0000
  C   C26       1.0  0.9398495970575919  0.11219845337252066  0.13092786063560724  1.0000
  C   C27       1.0  0.9442190249530444  0.02645038881959638  0.03255428638274626  1.0000
  H   H9        1.0  0.817368261360644  0.24950148486449142  0.39417245758525143  1.0000
  H   H10       1.0  0.966727798971582  0.09795422833981515  0.7669522049826367  1.0000
  H   H11       1.0  0.9653252900668842  0.6808715168580944  0.7682089773072172  1.0000
  H   H12       1.0  0.8445964316261502  0.9154733303780704  0.46617607706253755  1.0000
  H   H13       1.0  0.8853672362548379  0.4603796530654321  0.56560176169165  1.0000
  H   H14       1.0  0.13160366467846707  0.9535207780645779  0.06113184948064631  1.0000
  H   H15       1.0  0.12282412781672172  0.10463811624511599  0.23435212341151523  1.0000
  H   H16       1.0  0.0006987515208949362  0.20694939493255382  0.27950662009498506  1.0000
  H   H17       1.0  0.886434807430299  0.15618323677943402  0.15141696656910386  1.0000
  H   H18       1.0  0.893391548453735  0.004059418352657889  0.9791816599851759  1.0000
  C   C28       1.0  0.9023797715285788  0.40309666014102197  0.22875149290943764  1.0000
  C   C29       1.0  0.9808506473305707  0.4161368710809723  0.23013341326374806  1.0000
  C   C30       1.0  0.02033425534896538  0.42418743300749545  0.11353750771667735  1.0000
  C   C31       1.0  0.9806710772630617  0.4160767150674848  0.9948859854041983  1.0000
  C   C32       1.0  0.9022405761559533  0.40292453917737214  0.9915099205428962  1.0000
  C   C33       1.0  0.863527474513129  0.3968521036462786  0.10896943435743789  1.0000
  C   C34       1.0  0.10328227869371354  0.43659657238056687  0.11496646795180365  1.0000
  O   O2        1.0  0.14014072231257146  0.3822881140228728  0.030905814801196033  1.0000
  C   C35       1.0  0.1444130759855362  0.5106306295931355  0.2116754366654683  1.0000
  C   C36       1.0  0.21770933495654554  0.4723928006481213  0.25336513393736837  1.0000
  C   C37       1.0  0.25783552714484737  0.5418300605622624  0.34346329208290394  1.0000
  O   O3        1.0  0.3305217419761437  0.49843020349051603  0.38225473593647474  1.0000
  C   C38       1.0  0.37758993174955835  0.5593298479290716  0.4728776927595255  1.0000
  C   C39       1.0  0.22424986321697735  0.6519186046952656  0.3917265073041134  1.0000
  C   C40       1.0  0.15183070660241826  0.6914715619233891  0.3495677527494492  1.0000
  C   C41       1.0  0.11213812214851095  0.6217922999027958  0.25973148903593946  1.0000
  H   H19       1.0  0.7544240405099591  0.37649787282377584  0.4336264929505766  1.0000
  H   H20       1.0  0.011448024160510389  0.41859542528349736  0.32218920085198044  1.0000
  H   H21       1.0  0.011095093620128173  0.4213026161415701  0.9049475001073364  1.0000
  H   H22       1.0  0.8030321624648282  0.3867982022664543  0.10710035962150122  1.0000
  H   H23       1.0  0.8721819437934084  0.396787034297879  0.6628438690507501  1.0000
  H   H24       1.0  0.24376462325387793  0.3875362008102481  0.21676757524242848  1.0000
  H   H25       1.0  0.43166801971901125  0.5048496591209093  0.4854476601388362  1.0000
  H   H26       1.0  0.3504620479432694  0.5580905710881625  0.568813587481283  1.0000
  H   H27       1.0  0.3891375803174355  0.6611024529823529  0.43572961300726787  1.0000
  H   H28       1.0  0.25368806095885876  0.7077500378308815  0.4613056713679857  1.0000
  H   H29       1.0  0.12648096472523607  0.7768026296967864  0.3862278499919578  1.0000
  H   H30       1.0  0.05658387745176574  0.6556714204001611  0.22683335633969404  1.0000
  Zn  Zn1       1.0  0.8199917574865033  0.40471678328493965  0.6061892997325133  1.0000
  Zn  Zn2       1.0  0.9846214072222607  0.4013039526468007  0.6140712176550742  1.0000
  C   C42       1.0  0.9022653289873868  0.39778312508102553  0.8473342205379277  1.0000
  C   C43       1.0  0.9023496334136646  0.4082392122731666  0.3729265097503105  1.0000
  C   C44       1.0  0.9023021743257791  0.6402184005214435  0.6048626569873861  1.0000
  C   C45       1.0  0.9023127319194753  0.16580237758423297  0.61539814046079  1.0000
  O   O4        1.0  0.9648156130084661  0.4086642822195305  0.42430411144312535  1.0000
  O   O5        1.0  0.964749444360442  0.3947668159501229  0.8019384386994003  1.0000
  O   O6        1.0  0.9647783549831156  0.5905363840353341  0.6061408947560851  1.0000
  O   O7        1.0  0.9647866462264147  0.21289472461164635  0.6201015553159472  1.0000
  O   O8        1.0  0.8398264623023308  0.5931260124861413  0.6001589593750964  1.0000
  O   O9        1.0  0.8397975516554352  0.39735800481549227  0.7959564334619307  1.0000
  O   O10       1.0  0.8398637206393208  0.41125542617747146  0.41832054478276576  1.0000
  O   O11       1.0  0.8398347538366288  0.21548585925830688  0.6141180860295385  1.0000
