data_image0
_chemical_formula_structural       NC12NC2H8C13OH12C13NH13Zn2C4O8
_chemical_formula_sum              "N3 C44 H33 O9 Zn2"
_cell_length_a       19.240039667572717
_cell_length_b       10.299150109392551
_cell_length_c       10.299780419254978
_cell_angle_alpha    85.552664501727
_cell_angle_beta     89.9865849046833
_cell_angle_gamma    89.97992514300192

_space_group_name_H-M_alt    "P 1"
_space_group_IT_number       1

loop_
  _space_group_symop_operation_xyz
  'x, y, z'

loop_
  _atom_site_type_symbol
  _atom_site_label
  _atom_site_symmetry_multiplicity
  _atom_site_fract_x
  _atom_site_fract_y
  _atom_site_fract_z
  _atom_site_occupancy
  N   N1        1.0  0.6543901988836774  0.42108175367447265  0.5670454339575841  1.0000
  C   C1        1.0  0.5942418300609204  0.42108183764494683  0.5670453519965997  1.0000
  C   C2        1.0  0.5194237929149771  0.42108195491071565  0.56704521465924  1.0000
  C   C3        1.0  0.48294920322751694  0.35663354785337065  0.6704740467826593  1.0000
  C   C4        1.0  0.41027846507050947  0.35652267617939754  0.670560621535764  1.0000
  C   C5        1.0  0.3730915579888319  0.42108204743476546  0.5670449869565066  1.0000
  C   C6        1.0  0.4102803292349134  0.48564160573281756  0.46352954684971903  1.0000
  C   C7        1.0  0.48295102767043324  0.4855304985666864  0.46361624417479425  1.0000
  C   C8        1.0  0.2958864675759181  0.4210819687470109  0.5670448915701385  1.0000
  C   C9        1.0  0.2587146486702708  0.3078210636186369  0.608950450093132  1.0000
  C   C10       1.0  0.1860439516889854  0.3079279529364931  0.6088590938246929  1.0000
  C   C11       1.0  0.14955418066930798  0.4210818395767919  0.5670449525196244  1.0000
  C   C12       1.0  0.0747361435045106  0.42108172587773623  0.5670452012072522  1.0000
  N   N2        1.0  0.014587826633937198  0.42108168509524174  0.5670454096315294  1.0000
  C   C13       1.0  0.1860119204986547  0.5342358020395062  0.5252307583014655  1.0000
  C   C14       1.0  0.2586826081059913  0.534342871458101  0.5251392393868581  1.0000
  H   H1        1.0  0.5106633061942338  0.30673633323293314  0.751228204690758  1.0000
  H   H2        1.0  0.3831841057964896  0.30742384716583393  0.7524299853155938  1.0000
  H   H3        1.0  0.383188157722107  0.5347404617901624  0.38166013221475376  1.0000
  H   H4        1.0  0.510666696151024  0.5354276129752206  0.38286236208352836  1.0000
  H   H5        1.0  0.28582073495531596  0.2186651910804227  0.6401455375317494  1.0000
  H   H6        1.0  0.158341622691062  0.21967155149988504  0.6410868177893154  1.0000
  H   H7        1.0  0.15828442605156529  0.6224921789403923  0.4930030488946034  1.0000
  H   H8        1.0  0.2857630006289213  0.6234988231697337  0.4939441071529818  1.0000
  C   C15       1.0  0.8345578386098815  0.03968211642663899  0.5671895247706114  1.0000
  C   C16       1.0  0.8332606140718029  0.027906759679426  0.7039944382040675  1.0000
  C   C17       1.0  0.8325424516158392  0.9048017483371903  0.7730937499260657  1.0000
  C   C18       1.0  0.833126657044863  0.7926513383831395  0.7036310586882337  1.0000
  C   C19       1.0  0.8344268614345478  0.802471307145723  0.5669125405525709  1.0000
  C   C20       1.0  0.8351367654787206  0.9264472795883686  0.49949074602617904  1.0000
  C   C21       1.0  0.8311640864131484  0.8933264874512846  0.9177277182498622  1.0000
  C   C22       1.0  0.7884183762875361  0.8004605828212246  0.9857462446938359  1.0000
  C   C23       1.0  0.7870983095813371  0.7897437831005265  0.12184666434216664  1.0000
  C   C24       1.0  0.8289559495192709  0.8707347682536092  0.19238895064956785  1.0000
  C   C25       1.0  0.8710366343867894  0.9645544429349303  0.12501296860398103  1.0000
  C   C26       1.0  0.8723728345620556  0.9754470396243223  0.9889122602518977  1.0000
  C   C27       1.0  0.8260760765740863  0.8615730923069626  0.33846901200877066  1.0000
  O   O1        1.0  0.7741237835957628  0.9447569858389323  0.3787079668696123  1.0000
  H   H9        1.0  0.8365548675879851  0.26920149011349387  0.3089638398976098  1.0000
  H   H10       1.0  0.831842267935167  0.11468997696253067  0.7570007624824152  1.0000
  H   H11       1.0  0.8335166405682054  0.6975385440646343  0.7564623274450354  1.0000
  H   H12       1.0  0.8361376853559744  0.9347379238998457  0.39403566204629625  1.0000
  H   H13       1.0  0.8348801856065571  0.47877294354499705  0.5143258035027103  1.0000
  H   H14       1.0  0.7551863922813193  0.737442447604149  0.9336397717835441  1.0000
  H   H15       1.0  0.753282547891651  0.7184233504350429  0.1722200902088662  1.0000
  H   H16       1.0  0.9029882968207901  0.029125684550642017  0.17786561576302773  1.0000
  H   H17       1.0  0.9062117830494282  0.04721305237157102  0.9393454433538994  1.0000
  H   H18       1.0  0.8771950201847422  0.8894095920924535  0.37863730162602094  1.0000
  H   H19       1.0  0.8147765126570871  0.7595586889783337  0.3762799884912559  1.0000
  H   H20       1.0  0.7743692081593296  0.9350973548429574  0.47533053999539626  1.0000
  C   C28       1.0  0.8345396910060501  0.42099185450445753  0.18569689794518635  1.0000
  C   C29       1.0  0.8848433318873246  0.5200289671983027  0.17699935504746384  1.0000
  C   C30       1.0  0.9102789786181751  0.5703071492254698  0.05544828647417477  1.0000
  C   C31       1.0  0.8847478457704162  0.5202012137125315  0.9416991166459049  1.0000
  C   C32       1.0  0.8344450310032956  0.42116158147043103  0.9484051071060509  1.0000
  C   C33       1.0  0.8096207231989049  0.37211492203636  0.07085815054435285  1.0000
  C   C34       1.0  0.9634982552583843  0.6750773351052105  0.04733861036483188  1.0000
  C   C35       1.0  0.9587819431714658  0.7796634045130372  0.9514743337433328  1.0000
  C   C36       1.0  0.008895684621770476  0.8781879341028553  0.9439270284771051  1.0000
  C   C37       1.0  0.0642988656049619  0.8744845339920233  0.0326028361848063  1.0000
  C   C38       1.0  0.06968149973184068  0.7696196046825403  0.12741044144500369  1.0000
  C   C39       1.0  0.01958213312579038  0.6710703741248444  0.13513052634974845  1.0000
  C   C40       1.0  0.11916465016612719  0.9787106716669357  0.02210953872452226  1.0000
  N   N3        1.0  0.17245042802823393  0.9460561139111654  0.9292435089445656  1.0000
  H   H21       1.0  0.8153999026488036  0.3832072108092467  0.5164679047626449  1.0000
  H   H22       1.0  0.9036765694616924  0.5595379993597099  0.26485488431903154  1.0000
  H   H23       1.0  0.9048897012831956  0.5573591874311397  0.8478781216559117  1.0000
  H   H24       1.0  0.7708139865496987  0.29571125263867337  0.07679934515986142  1.0000
  H   H25       1.0  0.8152641609189635  0.383445938154822  0.6235050790309087  1.0000
  H   H26       1.0  0.9159166721966614  0.7860103335418576  0.8831703317891582  1.0000
  H   H27       1.0  0.00440560791573019  0.9575944063232561  0.8690589318296227  1.0000
  H   H28       1.0  0.1128047410254491  0.76392498724869  0.1951876820856793  1.0000
  H   H29       1.0  0.025283733242256187  0.5906466621372202  0.2085331046393615  1.0000
  H   H30       1.0  0.09513311374908762  0.07374480260040882  0.9887944971213575  1.0000
  H   H31       1.0  0.14313116247107135  0.9900219156411532  0.11896211112824441  1.0000
  H   H32       1.0  0.20750974727693938  0.023753810110948227  0.9192757740045373  1.0000
  H   H33       1.0  0.20034777075464594  0.8657463009308044  0.9700451384941201  1.0000
  Zn  Zn1       1.0  0.7583354623927131  0.4210782680694469  0.5670529163322333  1.0000
  Zn  Zn2       1.0  0.9106425823994235  0.4210745787264052  0.5670485295929575  1.0000
  C   C41       1.0  0.8344622422895082  0.41595543323251327  0.8042388332933119  1.0000
  C   C42       1.0  0.8345174653944314  0.4261990523028971  0.3298627394503709  1.0000
  C   C43       1.0  0.8344486833067802  0.6582868001169082  0.5617899071784147  1.0000
  C   C44       1.0  0.8345309726647295  0.18386612500700347  0.572311735369379  1.0000
  O   O2        1.0  0.8923097655363961  0.4279395691684834  0.37824445014372193  1.0000
  O   O3        1.0  0.8922675223004206  0.41421113635635703  0.7558534196906325  1.0000
  O   O4        1.0  0.8922557939143729  0.6098967801333532  0.5600741960184975  1.0000
  O   O5        1.0  0.8923214419608332  0.23225393466204364  0.5740235764430885  1.0000
  O   O6        1.0  0.7766565508563592  0.6098989121364801  0.560077869476768  1.0000
  O   O7        1.0  0.7766682789798923  0.41421482877365423  0.7558570233394581  1.0000
  O   O8        1.0  0.7767105224636895  0.42794321597865076  0.37824649246885467  1.0000
  O   O9        1.0  0.7767221988747931  0.2322575722043261  0.5740257161356559  1.0000
