data_image0
_chemical_formula_structural       NC10NC3NH7C12OCH12C12IH9Zn2C4O8
_chemical_formula_sum              "N3 C42 H28 O9 I1 Zn2"
_cell_length_a       19.210446455230148
_cell_length_b       10.29979075500242
_cell_length_c       10.29977335064465
_cell_angle_alpha    85.5398229900983
_cell_angle_beta     89.99988081382295
_cell_angle_gamma    89.92936594805748

_space_group_name_H-M_alt    "P 1"
_space_group_IT_number       1

loop_
  _space_group_symop_operation_xyz
  'x, y, z'

loop_
  _atom_site_type_symbol
  _atom_site_label
  _atom_site_symmetry_multiplicity
  _atom_site_fract_x
  _atom_site_fract_y
  _atom_site_fract_z
  _atom_site_occupancy
  N   N1        1.0  0.6551072059887179  0.42059272730795216  0.5672673043552723  1.0000
  C   C1        1.0  0.5948781354905932  0.42280013089498975  0.5674983635712033  1.0000
  C   C2        1.0  0.5200730497628584  0.42553690719035675  0.5677846170256624  1.0000
  C   C3        1.0  0.48443497510097894  0.5417606295839135  0.58289170351295  1.0000
  C   C4        1.0  0.41176945214367694  0.5419121798508457  0.5828391003021747  1.0000
  C   C5        1.0  0.37490612850859256  0.4262458343742017  0.5678710715460817  1.0000
  C   C6        1.0  0.2975843214019935  0.4248894299321897  0.5677205342829672  1.0000
  C   C7        1.0  0.2597974672248393  0.5284772685861517  0.5043548817919645  1.0000
  C   C8        1.0  0.18701944988645672  0.5270750972638807  0.5042458639337202  1.0000
  C   C9        1.0  0.151026805965211  0.4223426076720669  0.5674514916846288  1.0000
  C   C10       1.0  0.0760975960282683  0.4210405920586564  0.5673147154826415  1.0000
  N   N2        1.0  0.0158599930597887  0.4199937272869529  0.567204782293756  1.0000
  C   C11       1.0  0.1880899685967058  0.3188804667496439  0.6307921307991788  1.0000
  C   C12       1.0  0.2608699087129294  0.32000835997867527  0.6309514052493675  1.0000
  C   C13       1.0  0.4131536420960798  0.3118422458825656  0.5530520757647477  1.0000
  N   N3        1.0  0.48392299675574574  0.3142871239645474  0.5532175402060137  1.0000
  H   H1        1.0  0.5125149041520427  0.6311888718378859  0.5949365071144712  1.0000
  H   H2        1.0  0.3844795706111829  0.6319218507380935  0.596278598006855  1.0000
  H   H3        1.0  0.28649870063755173  0.6097446348345892  0.453361228012258  1.0000
  H   H4        1.0  0.1588473455783425  0.6075143683156012  0.45458263089272705  1.0000
  H   H5        1.0  0.1607489713564886  0.23747784748852713  0.6803559181089351  1.0000
  H   H6        1.0  0.28839727006801136  0.23968783376864766  0.682052353552623  1.0000
  H   H7        1.0  0.38690954067983  0.22096968468666198  0.5395663657118279  1.0000
  C   C14       1.0  0.8355494835332556  0.03892536665742451  0.5672749842105163  1.0000
  C   C15       1.0  0.8154111101199377  0.02775398502253834  0.6987168238687997  1.0000
  C   C16       1.0  0.805151600989087  0.9049571771900073  0.7652862618714121  1.0000
  C   C17       1.0  0.8152860460504621  0.7924719188359663  0.6986510603148683  1.0000
  C   C18       1.0  0.8354243884822113  0.8016510860286163  0.5672082881452055  1.0000
  C   C19       1.0  0.8454449642532659  0.9253189235790444  0.5022569117178604  1.0000
  C   C20       1.0  0.7838505836697631  0.8941925842745141  0.9043456034193503  1.0000
  C   C21       1.0  0.733064168504137  0.8033973995604071  0.9494200572646364  1.0000
  C   C22       1.0  0.713078889170401  0.7935396599474839  0.0801628468147747  1.0000
  C   C23       1.0  0.743429852953374  0.8738088136495054  0.167505943325981  1.0000
  C   C24       1.0  0.7944017459503339  0.9652122236106269  0.12430316706767022  1.0000
  C   C25       1.0  0.8141711831677942  0.974709289252929  0.9930337141101487  1.0000
  O   O1        1.0  0.8265850257436914  0.04783398277317751  0.20816619716761145  1.0000
  C   C26       1.0  0.811673200870265  0.04879584676785797  0.3435051716024991  1.0000
  H   H8        1.0  0.8432535318266444  0.37063356298931954  0.5172112877948121  1.0000
  H   H9        1.0  0.8067348293674415  0.11477962498067516  0.7491471959128331  1.0000
  H   H10       1.0  0.8083511634345356  0.6975679214787953  0.7500202457104692  1.0000
  H   H11       1.0  0.8609814042207167  0.9331687751591354  0.4008550857225451  1.0000
  H   H12       1.0  0.8430633786341578  0.4776973659505686  0.5171069678278316  1.0000
  H   H13       1.0  0.7081608227555464  0.7412295828433045  0.8832147049353014  1.0000
  H   H14       1.0  0.6737682292643151  0.7236247850322874  0.11384852936955205  1.0000
  H   H15       1.0  0.7269422795085692  0.8640565022327422  0.2681756025495295  1.0000
  H   H16       1.0  0.8540436233253007  0.044196567620914624  0.9608607949966259  1.0000
  H   H17       1.0  0.8237020975410524  0.952231644237744  0.39412577401610516  1.0000
  H   H18       1.0  0.8445249142336155  0.12336765333900424  0.38571388136524026  1.0000
  H   H19       1.0  0.756105471551311  0.0737944383510567  0.3579503184449046  1.0000
  C   C27       1.0  0.8354537218004245  0.42039437336387175  0.18587246031815252  1.0000
  C   C28       1.0  0.898542883377007  0.4892929378740722  0.17951828050577445  1.0000
  C   C29       1.0  0.9305441436759342  0.5240964970105662  0.05916853531341615  1.0000
  C   C30       1.0  0.8986098768548825  0.4890786707380203  0.9442486742467144  1.0000
  C   C31       1.0  0.8355201319819167  0.42018211213682566  0.9486108957830917  1.0000
  C   C32       1.0  0.8042956007671997  0.3862246983285622  0.06989087113337544  1.0000
  C   C33       1.0  0.9972869404703385  0.5969831099396347  0.05350036124513614  1.0000
  C   C34       1.0  0.008220105800771819  0.6999837705342683  0.1333000830994313  1.0000
  C   C35       1.0  0.07107487520120492  0.7684714557770661  0.127763367456579  1.0000
  C   C36       1.0  0.12369505512497847  0.7350245740013468  0.04276781557045895  1.0000
  C   C37       1.0  0.11343320771175948  0.6329089937686933  0.9631106405026572  1.0000
  C   C38       1.0  0.050649091507395376  0.5641952199356419  0.9682414220080263  1.0000
  I   I1        1.0  0.21845730644656847  0.8385057527461086  0.03472409103245222  1.0000
  H   H20       1.0  0.8113936435791219  0.3942059300863971  0.5157421782109683  1.0000
  H   H21       1.0  0.9234304033763332  0.5144985314905759  0.26848862712322163  1.0000
  H   H22       1.0  0.9225781325542296  0.5172265074211126  0.8511292553706933  1.0000
  H   H23       1.0  0.755624793878847  0.33307372913465016  0.07402447209515774  1.0000
  H   H24       1.0  0.8114908983646988  0.393893627953962  0.6228223489872239  1.0000
  H   H25       1.0  0.9678517443974641  0.7286286277796736  0.19869528158437721  1.0000
  H   H26       1.0  0.07876569955191348  0.8477354113513278  0.1893409698654367  1.0000
  H   H27       1.0  0.15414307562285212  0.6064997916699597  0.8974240466623895  1.0000
  H   H28       1.0  0.04416802212072368  0.4843883706338534  0.9068245671892008  1.0000
  Zn  Zn1       1.0  0.7592126680298753  0.4204164027101194  0.5672567612143776  1.0000
  Zn  Zn2       1.0  0.911754517740574  0.42015946640650603  0.5672259621445416  1.0000
  C   C39       1.0  0.8355068712926371  0.4150485697633133  0.8044374214605051  1.0000
  C   C40       1.0  0.8354619799723697  0.4255289351271789  0.3300454288854489  1.0000
  C   C41       1.0  0.8354439832902589  0.6574811596665324  0.5620457581917979  1.0000
  C   C42       1.0  0.8355248161848533  0.1830947849940771  0.5724371615396902  1.0000
  O   O2        1.0  0.8933535894063895  0.42714896924572393  0.3784195065815614  1.0000
  O   O3        1.0  0.8933909963390603  0.41323254731965764  0.7560395942223261  1.0000
  O   O4        1.0  0.8933394332301704  0.608999930583692  0.5603066112111784  1.0000
  O   O5        1.0  0.8934051004530773  0.23138159538665956  0.5741523922276662  1.0000
  O   O6        1.0  0.7775620332623241  0.6091942738190603  0.5603303311349324  1.0000
  O   O7        1.0  0.7776135961060608  0.413428450874004  0.7560632447642244  1.0000
  O   O8        1.0  0.7775761890911682  0.4273448279786778  0.378441595725554  1.0000
  O   O9        1.0  0.7776277001450107  0.23157744480373887  0.5741745787403805  1.0000
