data_image0
_chemical_formula_structural       NC5N2C2NH4C7NH5C10H3Zn2C4O8
_chemical_formula_sum              "N5 C28 H12 Zn2 O8"
_cell_length_a       13.87973921873968
_cell_length_b       9.275154477615127
_cell_length_c       9.275153671780863
_cell_angle_alpha    85.92749838792564
_cell_angle_beta     89.40940373860386
_cell_angle_gamma    89.4337086285363

_space_group_name_H-M_alt    "P 1"
_space_group_IT_number       1

loop_
  _space_group_symop_operation_xyz
  'x, y, z'

loop_
  _atom_site_type_symbol
  _atom_site_label
  _atom_site_symmetry_multiplicity
  _atom_site_fract_x
  _atom_site_fract_y
  _atom_site_fract_z
  _atom_site_occupancy
  N   N1        1.0  0.907751592416279  0.5738336114512057  0.4157437522140399  1.0000
  C   C1        1.0  0.8348709690623138  0.5982187038881883  0.359185467181395  1.0000
  C   C2        1.0  0.7443559342968391  0.6285073713370741  0.2889339642964375  1.0000
  C   C3        1.0  0.6576141718580532  0.5980056089470034  0.36203264713660066  1.0000
  C   C4        1.0  0.5714765332968857  0.6285073068261096  0.2889340039552042  1.0000
  C   C5        1.0  0.4803938489980033  0.5982185589577449  0.35918536334960804  1.0000
  N   N2        1.0  0.40705616150827  0.5738335868057036  0.41574374111968515  1.0000
  N   N3        1.0  0.5736843922807084  0.6867793356782184  0.15036831468794642  1.0000
  C   C6        1.0  0.6587604320456619  0.717217257937365  0.08131384808528686  1.0000
  C   C7        1.0  0.6594212544373103  0.7773259657504122  0.927757946529301  1.0000
  N   N4        1.0  0.7432872911773424  0.6867792890531694  0.15036832525709998  1.0000
  H   H1        1.0  0.6571604896912178  0.5513794758403827  0.47261008861310344  1.0000
  H   H2        1.0  0.724127843713226  0.8451243932406384  0.9056243361992  1.0000
  H   H3        1.0  0.6605173134085176  0.6872197526282933  0.8551587823488562  1.0000
  H   H4        1.0  0.5941230423637479  0.8451223280452933  0.9056235617674933  1.0000
  C   C8        1.0  0.1602079934989895  0.15044002325300831  0.4140751825502349  1.0000
  C   C9        1.0  0.13464021560127826  0.23329376697965284  0.28694094568651374  1.0000
  C   C10       1.0  0.10118934067515739  0.166947235571554  0.16654119879073925  1.0000
  C   C11       1.0  0.09275156298165599  0.016840316718895524  0.17185772066818172  1.0000
  C   C12       1.0  0.11923229779745026  0.9327714819466387  0.2960940338632647  1.0000
  C   C13       1.0  0.15460896306051206  0.9972161136272046  0.41742479400061483  1.0000
  C   C14       1.0  0.0743503601564075  0.25337887048357066  0.037874662837055435  1.0000
  N   N5        1.0  0.052779283348130424  0.32285408325226994  0.9344597255671016  1.0000
  H   H5        1.0  0.17644547576603672  0.22801682995210948  0.7680149457430747  1.0000
  H   H6        1.0  0.1386043992919866  0.35024221840474357  0.2826625797966691  1.0000
  H   H7        1.0  0.066529099980289  0.9644769418747683  0.07932295346837925  1.0000
  H   H8        1.0  0.11417402898847406  0.8163035615746989  0.2959671367133536  1.0000
  H   H9        1.0  0.16963862099627636  0.6990527456092692  0.654574503085442  1.0000
  C   C15       1.0  0.16033166162767265  0.5727444754960083  0.9923160563744982  1.0000
  C   C16       1.0  0.18482073916233732  0.7001651104378988  0.05656379560709768  1.0000
  C   C17       1.0  0.2002990838577623  0.8289428442234043  0.9720808051876979  1.0000
  C   C18       1.0  0.19137801005076605  0.8319039008887595  0.8221519983251673  1.0000
  C   C19       1.0  0.1687400365062743  0.7060914211133167  0.7562922176026938  1.0000
  C   C20       1.0  0.1544853167712117  0.5749116161418062  0.8391839057498887  1.0000
  C   C21       1.0  0.22426292048770624  0.9587352525843915  0.039703287673260375  1.0000
  C   C22       1.0  0.24432779748586686  0.06739959974688192  0.09634481643508441  1.0000
  C   C23       1.0  0.26782276750183365  0.19464076449126688  0.1626776096131588  1.0000
  C   C24       1.0  0.2878837656587151  0.3032843355964281  0.21931640508284203  1.0000
  H   H10       1.0  0.1896801226774294  0.7002381082522411  0.17317947671879663  1.0000
  H   H11       1.0  0.20286732806271443  0.9313072814848369  0.7558385319010177  1.0000
  H   H12       1.0  0.30549896107720276  0.39868229875289307  0.2690502204286076  1.0000
  Zn  Zn1       1.0  0.051840074585290497  0.5738297620409567  0.4157520632544631  1.0000
  Zn  Zn2       1.0  0.26296766145989103  0.5738256559322272  0.41574720373450225  1.0000
  C   C25       1.0  0.155626207663621  0.5687582092889698  0.6790850038586276  1.0000
  C   C26       1.0  0.15918382088243166  0.5788990281875781  0.15241441179937487  1.0000
  C   C27       1.0  0.1557020035568586  0.8371426842160796  0.4110456173537398  1.0000
  C   C28       1.0  0.15910796386926673  0.3105128212196504  0.4204538683294057  1.0000
  O   O1        1.0  0.23892045555201347  0.580956703973019  0.2061430133525406  1.0000
  O   O2        1.0  0.23613053632951186  0.5666963283175213  0.6253522946584837  1.0000
  O   O3        1.0  0.23619065204078438  0.7834201898639361  0.4089085995876902  1.0000
  O   O4        1.0  0.23886026847537378  0.3642328524652856  0.4225866003506966  1.0000
  O   O5        1.0  0.07594739552236551  0.78342256551085  0.4089126666323488  1.0000
  O   O6        1.0  0.07588726888357789  0.5667004360082024  0.6253562916720803  1.0000
  O   O7        1.0  0.07867720047047988  0.5809607569843895  0.20614527654419335  1.0000
  O   O8        1.0  0.07861701271176513  0.36423689544092497  0.4225889716090676  1.0000
