data_image0
_chemical_formula_structural       NC6NC2H4C12H8C12H8Zn2C4O8
_chemical_formula_sum              "N2 C36 H20 Zn2 O8"
_cell_length_a       14.927258858638513
_cell_length_b       14.994057918209652
_cell_length_c       14.389300134226545
_cell_angle_alpha    83.13641900786516
_cell_angle_beta     90.22201251492375
_cell_angle_gamma    89.9901835886132

_space_group_name_H-M_alt    "P 1"
_space_group_IT_number       1

loop_
  _space_group_symop_operation_xyz
  'x, y, z'

loop_
  _atom_site_type_symbol
  _atom_site_label
  _atom_site_symmetry_multiplicity
  _atom_site_fract_x
  _atom_site_fract_y
  _atom_site_fract_z
  _atom_site_occupancy
  N   N1        1.0  0.839547485832872  0.018274564357739775  0.9703871384005844  1.0000
  C   C1        1.0  0.7620209946938935  0.018274546442111912  0.9703871452562197  1.0000
  C   C2        1.0  0.6655884870165467  0.01827461895815507  0.9703871129736652  1.0000
  C   C3        1.0  0.6182316335135317  0.006963590121912517  0.8883501063294759  1.0000
  C   C4        1.0  0.5245203218438592  0.006963609503174659  0.8883500199090446  1.0000
  C   C5        1.0  0.4777724230888661  0.018274508633743282  0.9703871250300464  1.0000
  C   C6        1.0  0.3813398484199685  0.018274581151776378  0.9703870927436558  1.0000
  N   N2        1.0  0.3038133572809904  0.01827456323614856  0.9703870995992914  1.0000
  C   C7        1.0  0.52512920960033  0.02958553747197577  0.05242413167039993  1.0000
  C   C8        1.0  0.6188405212700028  0.029585518090713636  0.05242421809083107  1.0000
  H   H1        1.0  0.6536909282693835  0.9981629753456045  0.8245206068311355  1.0000
  H   H2        1.0  0.4885872727253273  0.9981630976728639  0.8245206036431958  1.0000
  H   H3        1.0  0.48966998209533363  0.03838614301272569  0.11625370115937156  1.0000
  H   H4        1.0  0.6547735706426105  0.03838608722432868  0.11625370561032877  1.0000
  C   C9        1.0  0.07172200540446166  0.756306759326397  0.9703775024501349  1.0000
  C   C10       1.0  0.12372339544009342  0.7012187729836828  0.0356324783240608  1.0000
  C   C11       1.0  0.12367872040921646  0.6079935522171537  0.03567111093480424  1.0000
  C   C12       1.0  0.07170855948663024  0.5678038021338175  0.970427199062633  1.0000
  C   C13       1.0  0.019757743128492555  0.6229908918822222  0.9051748848192054  1.0000
  C   C14       1.0  0.019743648048989208  0.7162141292418569  0.9051856756694892  1.0000
  C   C15       1.0  0.07168761854510368  0.4687289892018487  0.9704348638065468  1.0000
  C   C16       1.0  0.07274920149850123  0.43074840510064644  0.8857315133621984  1.0000
  C   C17       1.0  0.07276688419504755  0.33752404684592446  0.8857307346275238  1.0000
  C   C18       1.0  0.07164748271828542  0.28023515255303927  0.9704048173437856  1.0000
  C   C19       1.0  0.0705479929609023  0.3181123305855242  0.05514317243942432  1.0000
  C   C20       1.0  0.07060594504454198  0.4113330566680829  0.055144167042117886  1.0000
  H   H5        1.0  0.16470064986098198  0.7301292649053011  0.08660701168004958  1.0000
  H   H6        1.0  0.1653100276556425  0.5674098978213604  0.08602597163609249  1.0000
  H   H7        1.0  0.9781125685237378  0.5939755452617177  0.8548283764433471  1.0000
  H   H8        1.0  0.9787740229467747  0.7568047845007491  0.8541967167463498  1.0000
  H   H9        1.0  0.07478396394359742  0.47315661753785154  0.819358261697032  1.0000
  H   H10       1.0  0.07388815697958084  0.3104067969741687  0.81929800312268  1.0000
  H   H11       1.0  0.06941218099153895  0.27573083393153713  0.12156960669444405  1.0000
  H   H12       1.0  0.06858688077052566  0.4385230603401592  0.12151501536303316  1.0000
  C   C21       1.0  0.07065829893897019  0.029445376459902972  0.6962666059490836  1.0000
  C   C22       1.0  0.11942150609666798  0.08229134764002463  0.6267262142919732  1.0000
  C   C23       1.0  0.1213947567899874  0.06024095630370185  0.5350803949838572  1.0000
  C   C24       1.0  0.07471176754620013  0.9848509200319012  0.5109687468172308  1.0000
  C   C25       1.0  0.026019843190388633  0.9320179647738275  0.5806015840567156  1.0000
  C   C26       1.0  0.023985310718306355  0.9541084098450373  0.6722350420358763  1.0000
  C   C27       1.0  0.0768351157079395  0.9613788755838626  0.4135858964683505  1.0000
  C   C28       1.0  0.07067009181104766  0.02889017548875628  0.33694978212409943  1.0000
  C   C29       1.0  0.0727111424304816  0.007096527743168057  0.24451573722825615  1.0000
  C   C30       1.0  0.08103352881416039  0.9166423218306758  0.2294024689026821  1.0000
  C   C31       1.0  0.08713712150545931  0.8493542591831197  0.30508419868789405  1.0000
  C   C32       1.0  0.08503975525296653  0.8713553591214216  0.3966061474646654  1.0000
  H   H13       1.0  0.15631036077593663  0.14063529180213774  0.643122795867477  1.0000
  H   H14       1.0  0.16048538748515306  0.10156157033260643  0.4833058307204259  1.0000
  H   H15       1.0  0.9884648320077138  0.8741850889722418  0.563936780636739  1.0000
  H   H16       1.0  0.9856140833379216  0.9122037317295054  0.7241627078400972  1.0000
  H   H17       1.0  0.0630497750182808  0.09831286812996719  0.3493959809333902  1.0000
  H   H18       1.0  0.08284580760622086  0.8977623252483204  0.15911822515195073  1.0000
  H   H19       1.0  0.09377113181610303  0.7798507045858338  0.2927464883381268  1.0000
  H   H20       1.0  0.09103742008634136  0.8180663040382566  0.4541081053491931  1.0000
  Zn  Zn1       1.0  0.9735246161547947  0.01827195374960661  0.9703925209708899  1.0000
  Zn  Zn2       1.0  0.16983626755387296  0.018269554605101997  0.9703893741261838  1.0000
  C   C33       1.0  0.07232163418853338  0.007767079379571662  0.14088471116337276  1.0000
  C   C34       1.0  0.07104139342017507  0.028775550804725873  0.7998972755797715  1.0000
  C   C35       1.0  0.07164300872383716  0.18135317686606622  0.9666797908833089  1.0000
  C   C36       1.0  0.07171995223627955  0.855188379496687  0.9741022455731289  1.0000
  O   O1        1.0  0.14566921260062146  0.02854594885623898  0.8346754805715875  1.0000
  O   O2        1.0  0.14668981516714763  0.007994198401824363  0.10610384903696923  1.0000
  O   O3        1.0  0.14614081587098085  0.14816712786302566  0.9654321434465707  1.0000
  O   O4        1.0  0.14621814464593325  0.8883730286305958  0.9753471161713543  1.0000
  O   O5        1.0  0.9971426720711833  0.14816847972610267  0.9654347789218833  1.0000
  O   O6        1.0  0.9976916710243914  0.007996624088435041  0.1061064347951528  1.0000
  O   O7        1.0  0.9966710643194496  0.028548389206193323  0.8346769440073372  1.0000
  O   O8        1.0  0.9972199966240662  0.8883754597469818  0.9753486495938998  1.0000
