data_image0
_chemical_formula_structural       NC8NC6H8C13OH12C12OCH12Zn2C4O8
_chemical_formula_sum              "N2 C44 H32 O10 Zn2"
_cell_length_a       17.457602349358154
_cell_length_b       10.299150109392551
_cell_length_c       10.299794127170987
_cell_angle_alpha    85.55695120171342
_cell_angle_beta     92.86889786892418
_cell_angle_gamma    91.67070309183428

_space_group_name_H-M_alt    "P 1"
_space_group_IT_number       1

loop_
  _space_group_symop_operation_xyz
  'x, y, z'

loop_
  _atom_site_type_symbol
  _atom_site_label
  _atom_site_symmetry_multiplicity
  _atom_site_fract_x
  _atom_site_fract_y
  _atom_site_fract_z
  _atom_site_occupancy
  N   N1        1.0  0.7222427797275933  0.4525268787066063  0.6260250399686667  1.0000
  C   C1        1.0  0.6611742744215443  0.4065955181029971  0.6154272414819926  1.0000
  C   C2        1.0  0.5852024690565447  0.3494626230611366  0.6022531194791816  1.0000
  C   C3        1.0  0.5266611415302643  0.38964904058722527  0.6771318109067077  1.0000
  C   C4        1.0  0.452126975599033  0.3346347281573114  0.6645712938526445  1.0000
  C   C5        1.0  0.3899940262859289  0.3770657361703298  0.7438707164040537  1.0000
  C   C6        1.0  0.31544764665198943  0.39551905193550607  0.6881030273692559  1.0000
  C   C7        1.0  0.25690634382505334  0.4355215633888365  0.7630897366764435  1.0000
  C   C8        1.0  0.1809218444034023  0.45458012438387596  0.7051064690609896  1.0000
  N   N2        1.0  0.11984322457497723  0.4698968273487635  0.6584880753540734  1.0000
  C   C9        1.0  0.2724191773103892  0.4573140653650687  0.8943525348885184  1.0000
  C   C10       1.0  0.34618075287312167  0.4392498753820122  0.9505076551863422  1.0000
  C   C11       1.0  0.40471038557114825  0.39942756402422325  0.8759785759127948  1.0000
  C   C12       1.0  0.4374230087358583  0.23875611487365742  0.5756994944982106  1.0000
  C   C13       1.0  0.4959525381258326  0.19884851276524307  0.5012206806780994  1.0000
  C   C14       1.0  0.5697018797593046  0.2539753690685935  0.5143310772267173  1.0000
  H   H1        1.0  0.5389864021737645  0.4648678384740207  0.7437306868329912  1.0000
  H   H2        1.0  0.30311240980677895  0.3805179493840438  0.5860893643625908  1.0000
  H   H3        1.0  0.22754835623788905  0.48821608564049623  0.9531737078570361  1.0000
  H   H4        1.0  0.3580020087140073  0.4558086323430689  0.05214748667769708  1.0000
  H   H5        1.0  0.4611957122489889  0.3844482441589372  0.9220883785207843  1.0000
  H   H6        1.0  0.3809476721105272  0.19341445089573425  0.5650653576615683  1.0000
  H   H7        1.0  0.4841409569554132  0.12474589994284321  0.43342312123875204  1.0000
  H   H8        1.0  0.614572874929931  0.2222037427247059  0.45602133274011253  1.0000
  C   C15       1.0  0.9211189673311987  0.07981555271195573  0.6424068793789961  1.0000
  C   C16       1.0  0.919696495273707  0.06798831384879465  0.7790946713341819  1.0000
  C   C17       1.0  0.9189085351592615  0.9448540618741832  0.8481291529922428  1.0000
  C   C18       1.0  0.9195486030846703  0.8327264043329035  0.7787192193897607  1.0000
  C   C19       1.0  0.9209743703919334  0.8425984056512494  0.6421180911623909  1.0000
  C   C20       1.0  0.9217533304920696  0.9666033513691873  0.5747603798523158  1.0000
  C   C21       1.0  0.9173970379558626  0.9333236168702548  0.9926386750626859  1.0000
  C   C22       1.0  0.8702173311994241  0.8384016751362949  0.05680460762864626  1.0000
  C   C23       1.0  0.8687695963582464  0.8276318368025485  0.19278584820219014  1.0000
  C   C24       1.0  0.9149785932022769  0.9106468447739495  0.2671004795926868  1.0000
  C   C25       1.0  0.9614242631472469  0.006490536901788908  0.2035171545284762  1.0000
  C   C26       1.0  0.962889806730715  0.017436950192780465  0.06753707929308084  1.0000
  C   C27       1.0  0.9118097722260718  0.9013576897031377  0.4129207679443197  1.0000
  O   O1        1.0  0.8544655545326968  0.9820394056476094  0.4484774207370067  1.0000
  H   H9        1.0  0.9233055188080531  0.3094110813694413  0.38436157110876956  1.0000
  H   H10       1.0  0.9181345323504752  0.15470726955783087  0.8319730854297215  1.0000
  H   H11       1.0  0.9199827339732146  0.7376365386244502  0.8315855553486954  1.0000
  H   H12       1.0  0.9228508965861558  0.9749340351081265  0.469395664973284  1.0000
  H   H13       1.0  0.9214711328448626  0.5189177997029185  0.5895722903010958  1.0000
  H   H14       1.0  0.833530949316722  0.7737769142345157  0.0017031555479730693  1.0000
  H   H15       1.0  0.8314459008182046  0.754684622903637  0.240111525588508  1.0000
  H   H16       1.0  0.9966974269362029  0.0726067209373289  0.2592493897442206  1.0000
  H   H17       1.0  0.00023915252827522306  0.09083092525752479  0.021020099376651835  1.0000
  H   H18       1.0  0.9682396635183146  0.9316624540618813  0.45769613105413  1.0000
  H   H19       1.0  0.8993394794135486  0.7988013330228337  0.4497133049126658  1.0000
  H   H20       1.0  0.8547431423119403  0.9723991490421934  0.5451219659610804  1.0000
  C   C28       1.0  0.9210725670229744  0.46109464888989926  0.26091319731062934  1.0000
  C   C29       1.0  0.8459043174105452  0.40868426512580225  0.2576003939109486  1.0000
  C   C30       1.0  0.8077948541327493  0.3822291837224004  0.13877314099381577  1.0000
  C   C31       1.0  0.8458521166574869  0.40890846914466117  0.02229115797118197  1.0000
  C   C32       1.0  0.9210207957406958  0.4613193791387864  0.023611734416803646  1.0000
  C   C33       1.0  0.9582108872720153  0.48711614341360193  0.1434082402954555  1.0000
  C   C34       1.0  0.7282733019176052  0.3267749669796183  0.13632326156497787  1.0000
  C   C35       1.0  0.6733417667636975  0.37304607712666765  0.04067225153519671  1.0000
  C   C36       1.0  0.5986038744344354  0.3208471539423585  0.038639134218555915  1.0000
  C   C37       1.0  0.5777110654922218  0.22199284048724555  0.13165556010895552  1.0000
  C   C38       1.0  0.6318859913889577  0.17428396970896037  0.22810788742971225  1.0000
  C   C39       1.0  0.7067280503752824  0.22712703971430415  0.22969790168316062  1.0000
  O   O2        1.0  0.6138464880992901  0.0749152902561252  0.32349246641635965  1.0000
  C   C40       1.0  0.5403187929297582  0.012424899998220834  0.3335478583336009  1.0000
  H   H21       1.0  0.9497251094087714  0.4810073836045401  0.5896339310902428  1.0000
  H   H22       1.0  0.8164334199695431  0.38996657788442546  0.3474775267254002  1.0000
  H   H23       1.0  0.817096910139859  0.38705618629517846  0.9306193229273627  1.0000
  H   H24       1.0  0.01620035526945052  0.5275477251354663  0.14519556419588842  1.0000
  H   H25       1.0  0.9496478274272461  0.4813508036023002  0.6966562723875018  1.0000
  H   H26       1.0  0.6879175677710998  0.4507549825516597  0.9685156324518333  1.0000
  H   H27       1.0  0.5566505847971963  0.35741274233437187  0.9648619383168295  1.0000
  H   H28       1.0  0.5194337860112717  0.18340986373544196  0.1277389153937809  1.0000
  H   H29       1.0  0.7483434877282165  0.18879653505101035  0.30327438215809144  1.0000
  H   H30       1.0  0.5245152031533694  0.9632749567962724  0.2434146035306719  1.0000
  H   H31       1.0  0.5423042898515014  0.9380299869609678  0.4174089080533523  1.0000
  H   H32       1.0  0.49660880519866313  0.0847794959938619  0.35022914489177803  1.0000
  Zn  Zn1       1.0  0.8369816796515365  0.4575359899284289  0.6354006701418777  1.0000
  Zn  Zn2       1.0  0.005104311697671444  0.4648770706709013  0.6491230811926654  1.0000
  C   C41       1.0  0.9210298288596617  0.45610275580441884  0.8794472116110951  1.0000
  C   C42       1.0  0.9210579980641553  0.4663120237346971  0.4050768164111656  1.0000
  C   C43       1.0  0.9209981041693026  0.6984145512435886  0.636997432293976  1.0000
  C   C44       1.0  0.9210896656771105  0.22399866539572444  0.6475266608716659  1.0000
  O   O3        1.0  0.9848547723456433  0.47084325812694994  0.4586670295564193  1.0000
  O   O4        1.0  0.9848342424194105  0.45714225193129926  0.8362716174826039  1.0000
  O   O5        1.0  0.9848077641620979  0.6528120540418758  0.6404916345985647  1.0000
  O   O6        1.0  0.9848811932389413  0.2751734627735656  0.6544469103847572  1.0000
  O   O7        1.0  0.8572047407382632  0.6472395953220265  0.630076836260169  1.0000
  O   O8        1.0  0.857231218700977  0.451571353607513  0.8258567493112101  1.0000
  O   O9        1.0  0.8572517487928486  0.46527231408615916  0.44825060008604295  1.0000
  O   O10       1.0  0.8572781696781581  0.26960250947184394  0.6440305782804652  1.0000
