data_image0
_chemical_formula_structural       NC9NC5H8C7NC2NH8C8NH10Zn2C4O8
_chemical_formula_sum              "N5 C35 H26 Zn2 O8"
_cell_length_a       17.807436237873137
_cell_length_b       9.273995741505848
_cell_length_c       9.275652972338538
_cell_angle_alpha    86.07888925788727
_cell_angle_beta     89.8368236096327
_cell_angle_gamma    88.97465214434487

_space_group_name_H-M_alt    "P 1"
_space_group_IT_number       1

loop_
  _space_group_symop_operation_xyz
  'x, y, z'

loop_
  _atom_site_type_symbol
  _atom_site_label
  _atom_site_symmetry_multiplicity
  _atom_site_fract_x
  _atom_site_fract_y
  _atom_site_fract_z
  _atom_site_occupancy
  N   N1        1.0  0.7092183651371169  0.5303291762293825  0.4023948657187886  1.0000
  C   C1        1.0  0.6483744526667459  0.4911847053498499  0.39006596424865314  1.0000
  C   C2        1.0  0.5726913128451416  0.4424932942687618  0.3747301496236263  1.0000
  C   C3        1.0  0.5537141572636654  0.36246321995502195  0.25800448562619516  1.0000
  C   C4        1.0  0.48022871778630843  0.31506324402696584  0.24302239797786696  1.0000
  C   C5        1.0  0.4246693443359542  0.3472739965170675  0.3447289467048009  1.0000
  C   C6        1.0  0.34657430641709164  0.2970281897735805  0.32889826312162235  1.0000
  C   C7        1.0  0.2849950532538362  0.3879747328611163  0.35790496003847705  1.0000
  C   C8        1.0  0.2113661714356914  0.3403494517537651  0.34293751162223374  1.0000
  C   C9        1.0  0.148754317665118  0.4342863936767172  0.37235529053342664  1.0000
  N   N2        1.0  0.0984273378416194  0.5098052038447451  0.39600636284465884  1.0000
  C   C10       1.0  0.19873136366203656  0.20149105039147377  0.29893454100082706  1.0000
  C   C11       1.0  0.2594531281673433  0.11052906936053454  0.26991849589591155  1.0000
  C   C12       1.0  0.3329593543654887  0.15771490670122645  0.28466010550329224  1.0000
  C   C13       1.0  0.44434179084064435  0.4278544546997255  0.4616992414181209  1.0000
  C   C14       1.0  0.51787828991495  0.4750419545458507  0.476508074366907  1.0000
  H   H1        1.0  0.5956592621551066  0.33698995016008193  0.17835598631813698  1.0000
  H   H2        1.0  0.4666327126774335  0.2548766658180235  0.15085173611923097  1.0000
  H   H3        1.0  0.2941952962654244  0.49638123777174886  0.3902145467417302  1.0000
  H   H4        1.0  0.1420186611025584  0.16363040040596077  0.2870848888272852  1.0000
  H   H5        1.0  0.2495540705366731  0.0030244388661750925  0.23627886784931973  1.0000
  H   H6        1.0  0.3791280329320953  0.0845922649777553  0.2633435688481933  1.0000
  H   H7        1.0  0.4031161105944827  0.45273852867718517  0.5427829552189698  1.0000
  H   H8        1.0  0.5320052398066498  0.5365761388945474  0.5675259906689876  1.0000
  C   C15       1.0  0.901576197762113  0.0966896866670437  0.3981845667937502  1.0000
  C   C16       1.0  0.9142441101941353  0.17839048577588512  0.2676251999366235  1.0000
  C   C17       1.0  0.9336535817490675  0.11142110515608561  0.14236152431040106  1.0000
  C   C18       1.0  0.9412113197228001  0.9605887201975484  0.1440748408610646  1.0000
  C   C19       1.0  0.9269616453955727  0.8776857888210796  0.2734661287929028  1.0000
  C   C20       1.0  0.9060766699351084  0.943433283031397  0.40022900027358166  1.0000
  C   C21       1.0  0.9626913604769787  0.891567342853526  0.009778770916455409  1.0000
  N   N3        1.0  0.9649064602970967  0.9648635105573359  0.8787676863581844  1.0000
  C   C22       1.0  0.9870727567039494  0.8652038913234752  0.7877510196870403  1.0000
  C   C23       1.0  0.998092923245343  0.7342175203012524  0.864088891504152  1.0000
  N   N4        1.0  0.9827916909662815  0.7509506352798125  0.0037041831975230754  1.0000
  H   H9        1.0  0.841497164462373  0.3658399596174047  0.6066161958667184  1.0000
  H   H10       1.0  0.9109578521234473  0.2953767204773228  0.2630302716401509  1.0000
  H   H11       1.0  0.9438637683149937  0.178431055046417  0.04427838865252885  1.0000
  H   H12       1.0  0.9295126307778021  0.7610024592115514  0.27542175040778505  1.0000
  H   H13       1.0  0.9080121747014898  0.6468955257306438  0.6398938792700787  1.0000
  H   H14       1.0  0.9949249160860508  0.887046726713437  0.6727032585898812  1.0000
  H   H15       1.0  0.01636796453268974  0.6338580001228113  0.82105984702772  1.0000
  H   H16       1.0  0.9872082166727617  0.6707376714787308  0.0878856635447289  1.0000
  C   C24       1.0  0.9021395934420042  0.5173397239948956  0.9759567192377324  1.0000
  C   C25       1.0  0.853928348943191  0.6142164405729207  0.04313111665737867  1.0000
  C   C26       1.0  0.8116916942486173  0.7191934428707809  0.9613813214604889  1.0000
  C   C27       1.0  0.8166444488945612  0.7259582599674848  0.8105322232730059  1.0000
  C   C28       1.0  0.8632024639119851  0.6292329174831897  0.74197704502475  1.0000
  C   C29       1.0  0.9055132961435726  0.5227833073316821  0.8224568670102694  1.0000
  C   C30       1.0  0.7595052992506187  0.8206078027309192  0.035028389278356054  1.0000
  C   C31       1.0  0.6819116974336276  0.7542367756655102  0.05691313299455425  1.0000
  N   N5        1.0  0.6314929453830679  0.8543545334626801  0.12619234273991253  1.0000
  H   H17       1.0  0.9560485027028758  0.300231738625671  0.2711432168114647  1.0000
  H   H18       1.0  0.850334692222623  0.6103936190280845  0.16000759837624945  1.0000
  H   H19       1.0  0.7837559601005258  0.8053712075482111  0.7456831298760388  1.0000
  H   H20       1.0  0.8645912804884064  0.6353533852668338  0.6249498661795658  1.0000
  H   H21       1.0  0.7831594197898722  0.8447005777910572  0.14141781099020487  1.0000
  H   H22       1.0  0.7540460990526057  0.925013781901123  0.9690689022167001  1.0000
  H   H23       1.0  0.6583032603989255  0.7313003133492035  0.9501087050872433  1.0000
  H   H24       1.0  0.6866643307367989  0.6506977562101217  0.12476946828337998  1.0000
  H   H25       1.0  0.578190917592578  0.8087364997488113  0.13134894363158955  1.0000
  H   H26       1.0  0.6491174258436485  0.860643355479627  0.23304103728074652  1.0000
  Zn  Zn1       1.0  0.8215356788643675  0.5244026077516688  0.4005596081124012  1.0000
  Zn  Zn2       1.0  0.986109990677446  0.5157200962606758  0.39785344117112864  1.0000
  C   C32       1.0  0.904843371680237  0.5160108663809819  0.6624363802631793  1.0000
  C   C33       1.0  0.9028041052404085  0.5241135628447084  0.1359767853259064  1.0000
  C   C34       1.0  0.9051992280085916  0.7833440311838475  0.3940991467949113  1.0000
  C   C35       1.0  0.9024481838540388  0.25677866932609583  0.40431409237754723  1.0000
  O   O1        1.0  0.9654821816864987  0.5230856673482309  0.18865398986875093  1.0000
  O   O2        1.0  0.9670733824755  0.5104478462466946  0.6077048401011906  1.0000
  O   O3        1.0  0.967359905009422  0.7263228117695757  0.39102064300902484  1.0000
  O   O4        1.0  0.9651956026186294  0.3072107144067069  0.40533807984109327  1.0000
  O   O5        1.0  0.8424500107620269  0.7329119925700736  0.3930749703583418  1.0000
  O   O6        1.0  0.8421634971249624  0.5170387587273748  0.6097590947830394  1.0000
  O   O7        1.0  0.8405722892126171  0.5296765184417447  0.19070651155791696  1.0000
  O   O8        1.0  0.8402857105175375  0.31380155588329917  0.40739070956598744  1.0000
