data_image0
_chemical_formula_structural       NC12NC2H8C6BrH5C6NCOH5Zn2C4O8
_chemical_formula_sum              "N3 C31 H18 Br1 O9 Zn2"
_cell_length_a       19.240039667572717
_cell_length_b       9.276564384272257
_cell_length_c       9.27373355559583
_cell_angle_alpha    86.1252681461469
_cell_angle_beta     90.0110552776814
_cell_angle_gamma    90.58593109150864

_space_group_name_H-M_alt    "P 1"
_space_group_IT_number       1

loop_
  _space_group_symop_operation_xyz
  'x, y, z'

loop_
  _atom_site_type_symbol
  _atom_site_label
  _atom_site_symmetry_multiplicity
  _atom_site_fract_x
  _atom_site_fract_y
  _atom_site_fract_z
  _atom_site_occupancy
  N   N1        1.0  0.6620265075786355  0.5611487150460148  0.4089434620451562  1.0000
  C   C1        1.0  0.6018781392078767  0.5611488073245519  0.4089433710397117  1.0000
  C   C2        1.0  0.5270601026866095  0.561148935925716  0.4089432185598838  1.0000
  C   C3        1.0  0.490250191226885  0.49079676112379333  0.5237627980425885  1.0000
  C   C4        1.0  0.4175788500752725  0.49067466725821335  0.5238589385168702  1.0000
  C   C5        1.0  0.3807278682191999  0.5611490360011664  0.4089429658069601  1.0000
  C   C6        1.0  0.41825256580556774  0.6316236146917578  0.2940272088184386  1.0000
  C   C7        1.0  0.49092265994817735  0.631501260782672  0.2941234854507222  1.0000
  C   C8        1.0  0.3035227773334634  0.5611489475190787  0.40894285999111746  1.0000
  C   C9        1.0  0.265721656925667  0.43588109838425665  0.4555111955067511  1.0000
  C   C10       1.0  0.19305153902276306  0.4359987147424695  0.4554097507305261  1.0000
  C   C11       1.0  0.15719048971292046  0.5611488048088569  0.4089429277029233  1.0000
  C   C12       1.0  0.0823724519754968  0.5611486814670326  0.4089432037562631  1.0000
  N   N2        1.0  0.022224134933636404  0.5611486386167608  0.40894343508584186  1.0000
  C   C13       1.0  0.19427695166627548  0.6862989784456635  0.36247604591140736  1.0000
  C   C14       1.0  0.2669482193252046  0.6864167928771927  0.3623744205335132  1.0000
  H   H1        1.0  0.5177048753622645  0.43633663908233994  0.6134102820114788  1.0000
  H   H2        1.0  0.3902299115128356  0.4371140261948753  0.6147436306425866  1.0000
  H   H3        1.0  0.39141497371975287  0.6851842851892409  0.2031424602393874  1.0000
  H   H4        1.0  0.5188977467716052  0.6859612747739794  0.2044763076355285  1.0000
  H   H5        1.0  0.2923318617573469  0.3372527843943296  0.49017996850400264  1.0000
  H   H6        1.0  0.16485871684494988  0.3383811564578758  0.49122404192562613  1.0000
  H   H7        1.0  0.1670399502643179  0.7839165096574017  0.32666177088578996  1.0000
  H   H8        1.0  0.2945244937369694  0.7850451942529619  0.3277055977796086  1.0000
  C   C15       1.0  0.8400346816569291  0.13767168333040813  0.40931197526386937  1.0000
  C   C16       1.0  0.8311084424306943  0.21975686404202713  0.2775882248617809  1.0000
  C   C17       1.0  0.8286507248317512  0.1533670948069863  0.14709483884539676  1.0000
  C   C18       1.0  0.8351034397562912  0.003946541715416529  0.14584740301078764  1.0000
  C   C19       1.0  0.8428049612246231  0.9201466483824648  0.27557926809148525  1.0000
  C   C20       1.0  0.8442225845712139  0.9846147057338424  0.4085873078587152  1.0000
  Br  Br1       1.0  0.8322521430828692  0.9136664875525372  0.9667876774136669  1.0000
  H   H9        1.0  0.8196880770648006  0.40273948724425157  0.6436206767175495  1.0000
  H   H10       1.0  0.827678145936822  0.3363867692299989  0.27512089180103483  1.0000
  H   H11       1.0  0.8223902666639133  0.2185096041280865  0.046705205281792436  1.0000
  H   H12       1.0  0.8460203242649629  0.8038733079236812  0.27247201449817693  1.0000
  H   H13       1.0  0.8825967698271318  0.6890917784671513  0.6330536620286387  1.0000
  C   C21       1.0  0.8420663947683201  0.556599723669085  0.9857265480337144  1.0000
  C   C22       1.0  0.7781450581157986  0.54832272999966  0.059685108124334356  1.0000
  C   C23       1.0  0.7149135859946255  0.5517323298645045  0.9847327218864357  1.0000
  C   C24       1.0  0.7156081029297713  0.5681064667080187  0.8333709775599555  1.0000
  C   C25       1.0  0.7784737162169978  0.5742315840348964  0.758210266286532  1.0000
  C   C26       1.0  0.8421908656854573  0.5656866742956754  0.8321728059513918  1.0000
  N   N3        1.0  0.6508021736102515  0.5466744724004056  0.06475155114082295  1.0000
  C   C27       1.0  0.5878557581764255  0.4802679644219494  0.018025960155887203  1.0000
  O   O1        1.0  0.5871129182059497  0.4039519403834486  0.9107404229039626  1.0000
  H   H14       1.0  0.00634425447468434  0.6567336450319805  0.08195428167319126  1.0000
  H   H15       1.0  0.6676547858041424  0.5777079328442094  0.7727481620670326  1.0000
  H   H16       1.0  0.9533526942738186  0.6270334152424781  0.547014052462985  1.0000
  H   H17       1.0  0.6507428597946403  0.5850180841765398  0.1681377435249649  1.0000
  H   H18       1.0  0.540410754872453  0.49236203377259763  0.07843646527071987  1.0000
  Zn  Zn1       1.0  0.7659717534925258  0.5611449321774891  0.40895176781949655  1.0000
  Zn  Zn2       1.0  0.9182788513550068  0.5611407846165875  0.40894690147599266  1.0000
  C   C28       1.0  0.8421373815800122  0.5582241409246613  0.6721812350903891  1.0000
  C   C29       1.0  0.8421148954742418  0.5640633968874864  0.14571757405075988  1.0000
  C   C30       1.0  0.8434265572364825  0.8244628140842598  0.40298119175723723  1.0000
  C   C31       1.0  0.8408256592901705  0.2978229919736439  0.41491769570529824  1.0000
  O   O2        1.0  0.8999308915290961  0.5665604085094109  0.19941018254881393  1.0000
  O   O3        1.0  0.8999189432160698  0.5557228890493453  0.6184845192063649  1.0000
  O   O4        1.0  0.9009591899146191  0.7707140007824371  0.40110357832188454  1.0000
  O   O5        1.0  0.8988905928935704  0.35156930593363467  0.4167910153648554  1.0000
  O   O6        1.0  0.7853599599790312  0.7707164108633455  0.4011076539247124  1.0000
  O   O7        1.0  0.7843197218331519  0.5557270308874027  0.6184885164818849  1.0000
  O   O8        1.0  0.7843316696891071  0.5665644814927093  0.19941244710715517  1.0000
  O   O9        1.0  0.7832913710156273  0.3515733697625212  0.4167933879857151  1.0000
