data_image0
_chemical_formula_structural       NC5NC4H6C6ClH5C7NH4Zn2C4O8
_chemical_formula_sum              "N3 C26 H15 Cl1 Zn2 O8"
_cell_length_a       13.854160002989762
_cell_length_b       10.30297070629231
_cell_length_c       9.275157849593905
_cell_angle_alpha    86.11098826397364
_cell_angle_beta     89.74088443434586
_cell_angle_gamma    89.9983107048755

_space_group_name_H-M_alt    "P 1"
_space_group_IT_number       1

loop_
  _space_group_symop_operation_xyz
  'x, y, z'

loop_
  _atom_site_type_symbol
  _atom_site_label
  _atom_site_symmetry_multiplicity
  _atom_site_fract_x
  _atom_site_fract_y
  _atom_site_fract_z
  _atom_site_occupancy
  N   N1        1.0  0.9136907945309032  0.407049202337967  0.4103891858906148  1.0000
  C   C1        1.0  0.8415363448860962  0.42923315477467394  0.35136089522390757  1.0000
  C   C2        1.0  0.7517751981265149  0.4568305875892009  0.27792744145625226  1.0000
  C   C3        1.0  0.6639874644513883  0.4309114561452587  0.34962869675164576  1.0000
  C   C4        1.0  0.5766327858251231  0.45683060028769  0.2779274182908362  1.0000
  C   C5        1.0  0.4864282032472917  0.42923302295221466  0.3513609868160352  1.0000
  N   N2        1.0  0.4139172239345964  0.40704914517743374  0.4103891858029818  1.0000
  C   C6        1.0  0.5770984057424595  0.5092149109674309  0.13454388315104215  1.0000
  C   C7        1.0  0.6648536772409832  0.537068682703938  0.06273925330433161  1.0000
  C   C8        1.0  0.6653214216095521  0.5895704945263407  0.9078701677570078  1.0000
  C   C9        1.0  0.752175495051424  0.509214908991976  0.13454379289985896  1.0000
  H   H1        1.0  0.6636523900735711  0.39026683205015295  0.46060491840954426  1.0000
  H   H2        1.0  0.5093934558636259  0.5283447458838639  0.07891133089964875  1.0000
  H   H3        1.0  0.7302463427371171  0.650722374516791  0.8840917357491556  1.0000
  H   H4        1.0  0.6005378648813965  0.6507223767703931  0.8840918008145078  1.0000
  H   H5        1.0  0.6655398470903292  0.5074605632025789  0.8363360284092192  1.0000
  H   H6        1.0  0.8202164152019809  0.5283448464009481  0.07891124550068285  1.0000
  C   C10       1.0  0.16380859649460544  0.025801775154076216  0.41039541972866744  1.0000
  C   C11       1.0  0.26339320946999223  0.02289944127791022  0.43815323976750054  1.0000
  C   C12       1.0  0.31280443677799696  0.9045025358894271  0.4519258284663694  1.0000
  C   C13       1.0  0.26339320890452766  0.7877914720201781  0.43815317199102993  1.0000
  C   C14       1.0  0.163808606545895  0.7882867176822559  0.410395502225408  1.0000
  C   C15       1.0  0.11450173017631736  0.9078854063184458  0.396651867405935  1.0000
  Cl  Cl1       1.0  0.4372093453178042  0.9023803454594604  0.4866018597900362  1.0000
  H   H7        1.0  0.12629681939061332  0.3541981448194857  0.39993872824813614  1.0000
  H   H8        1.0  0.3030004306153251  0.1122703759962218  0.44919307566694  1.0000
  H   H9        1.0  0.3030003927575775  0.6970691822701182  0.4491929721271706  1.0000
  H   H10       1.0  0.03769905468915736  0.9091954467608233  0.37524415780072773  1.0000
  H   H11       1.0  0.12629681386003108  0.4611701805031205  0.39993900033579993  1.0000
  C   C16       1.0  0.16508938080674374  0.403374487634875  0.9871976647573995  1.0000
  C   C17       1.0  0.24828413564438212  0.44569798825283236  0.05689370469866418  1.0000
  C   C18       1.0  0.3265275393833331  0.49823025633224116  0.9770155473327993  1.0000
  C   C19       1.0  0.3224883318508746  0.509274178318339  0.8263566003702305  1.0000
  C   C20       1.0  0.24127803520547453  0.46589937702693685  0.755319018674931  1.0000
  C   C21       1.0  0.16252786955780602  0.4107139352250171  0.8335932354247539  1.0000
  C   C22       1.0  0.41066832866022795  0.5423617716734805  0.05001917955495582  1.0000
  N   N3        1.0  0.47829597876553587  0.5778316103051362  0.10870178438919065  1.0000
  H   H12       1.0  0.9302387815682376  0.3596007206793095  0.09503525474879915  1.0000
  H   H13       1.0  0.38259306178474217  0.5503404731606403  0.7635338099221549  1.0000
  H   H14       1.0  0.24106450443423605  0.472724977382726  0.6382545791744132  1.0000
  H   H15       1.0  0.0054157957726821415  0.37579065744964874  0.5561867204993063  1.0000
  Zn  Zn1       1.0  0.0580453169107642  0.4070457822220485  0.4103975170407613  1.0000
  Zn  Zn2       1.0  0.26956266690987957  0.40704204397664334  0.4103926902500681  1.0000
  C   C23       1.0  0.16300987342121792  0.4041546188725204  0.6736063239488894  1.0000
  C   C24       1.0  0.16460041973430004  0.4099348466095589  0.14718402473637227  1.0000
  C   C25       1.0  0.16382103313922358  0.6441110050138132  0.4046526556032959  1.0000
  C   C26       1.0  0.16378918760761674  0.16997690133019436  0.41613776991633067  1.0000
  O   O1        1.0  0.24470605192417572  0.4121294804296431  0.2008750768966239  1.0000
  O   O2        1.0  0.24344101695780843  0.4019561648028744  0.6199111935163724  1.0000
  O   O3        1.0  0.24409495207918483  0.5957239942878831  0.40272920346022767  1.0000
  O   O4        1.0  0.24405204495327454  0.2183616592961808  0.418056958899615  1.0000
  O   O5        1.0  0.08355586668690161  0.5957261669051348  0.402733248385281  1.0000
  O   O6        1.0  0.08290193179373558  0.4019598965608197  0.619915161601128  1.0000
  O   O7        1.0  0.08416697206802132  0.41213315192138467  0.20087731232498232  1.0000
  O   O8        1.0  0.0835129647661774  0.21836532243899895  0.4180593023751942  1.0000
