data_image0
_chemical_formula_structural       NC12NC2H8C6SCNH5C7NC2OH7Zn2C4O8
_chemical_formula_sum              "N4 C34 H20 S1 O9 Zn2"
_cell_length_a       17.80743265337812
_cell_length_b       9.27526961838325
_cell_length_c       10.300337369960102
_cell_angle_alpha    85.81838334836996
_cell_angle_beta     91.53453705670806
_cell_angle_gamma    88.87871087483882

_space_group_name_H-M_alt    "P 1"
_space_group_IT_number       1

loop_
  _space_group_symop_operation_xyz
  'x, y, z'

loop_
  _atom_site_type_symbol
  _atom_site_label
  _atom_site_symmetry_multiplicity
  _atom_site_fract_x
  _atom_site_fract_y
  _atom_site_fract_z
  _atom_site_occupancy
  N   N1        1.0  0.6995981382954604  0.5617291089872216  0.6074581466741331  1.0000
  C   C1        1.0  0.6486134707265873  0.5945447383105248  0.5388917166157567  1.0000
  C   C2        1.0  0.5851835414951785  0.635364999286472  0.45360371568785457  1.0000
  C   C3        1.0  0.5966089266455773  0.6953377254882565  0.3272258618525344  1.0000
  C   C4        1.0  0.535094724580169  0.7344886964786306  0.24432721269048008  1.0000
  C   C5        1.0  0.4619993643531087  0.713959433232713  0.2871476988292072  1.0000
  C   C6        1.0  0.4495978707144297  0.6538548198926366  0.4139931460293418  1.0000
  C   C7        1.0  0.5119693706233666  0.6147074610568755  0.4968752988781225  1.0000
  C   C8        1.0  0.3719405209612257  0.6320886818673743  0.45966891407593957  1.0000
  C   C9        1.0  0.35300540322386215  0.6622762095231511  0.5868177818990981  1.0000
  C   C10       1.0  0.2798798667309494  0.6417931042798657  0.6296790046608365  1.0000
  C   C11       1.0  0.22474790232709133  0.5908401920155653  0.5462281674624394  1.0000
  C   C12       1.0  0.14948885041418902  0.569743355482152  0.590487832340534  1.0000
  N   N2        1.0  0.0889859025916726  0.5527829177696857  0.6260695580084925  1.0000
  C   C13       1.0  0.24299247272816094  0.5604651461108359  0.4196214994270828  1.0000
  C   C14       1.0  0.3160650682839385  0.5809646589610067  0.37650447584878854  1.0000
  H   H1        1.0  0.6529917731994122  0.7117947349276792  0.29285522424896837  1.0000
  H   H2        1.0  0.544057578092347  0.781223900201347  0.14673658595214234  1.0000
  H   H3        1.0  0.41519446877309657  0.746860214391404  0.22168926074934195  1.0000
  H   H4        1.0  0.5037125952193483  0.5664342147999278  0.5943355815488423  1.0000
  H   H5        1.0  0.39447621761653584  0.7035565429491505  0.6525435754864363  1.0000
  H   H6        1.0  0.26631658398396535  0.6660501978976545  0.7277722316769153  1.0000
  H   H7        1.0  0.20079774434136383  0.5205918253251223  0.3543140292567624  1.0000
  H   H8        1.0  0.3291084928355536  0.5550027337314867  0.27870800629908543  1.0000
  C   C15       1.0  0.8964123655461051  0.13384145665443126  0.6151520349780851  1.0000
  C   C16       1.0  0.869614234930757  0.21746345258539487  0.5035013496612664  1.0000
  C   C17       1.0  0.8370901346031622  0.15225032367925273  0.3985362990278763  1.0000
  C   C18       1.0  0.8308688728947956  0.002293631019337544  0.40306029339128063  1.0000
  C   C19       1.0  0.8580465178422888  0.9171315687924534  0.5124077538728353  1.0000
  C   C20       1.0  0.8921789311242311  0.9806593561222071  0.6183871167280859  1.0000
  S   S1        1.0  0.7881697008690071  0.9190344250912947  0.26869070733785066  1.0000
  C   C21       1.0  0.8745921861763054  0.9008029314332319  0.19087403245750978  1.0000
  N   N3        1.0  0.9312632771348477  0.8888627347320813  0.13988539359981322  1.0000
  H   H9        1.0  0.977508432973063  0.39846871854341653  0.7814445047193335  1.0000
  H   H10       1.0  0.8721693372301177  0.334322101346779  0.4985838979814805  1.0000
  H   H11       1.0  0.8161701166014612  0.2187090268769025  0.31400382765188534  1.0000
  H   H12       1.0  0.8541941691965491  0.8006293824067074  0.5130867241763779  1.0000
  H   H13       1.0  0.01647117804439424  0.8533611338563367  0.860793384882825  1.0000
  C   C22       1.0  0.8942939928933603  0.5572509229528646  0.2354294035057223  1.0000
  C   C23       1.0  0.9719442544823587  0.5270243559441989  0.23999423299501021  1.0000
  C   C24       1.0  0.011121620154987964  0.5117737144914503  0.1252088568250607  1.0000
  C   C25       1.0  0.9719510896523151  0.5270224144936233  0.004702261059905674  1.0000
  C   C26       1.0  0.8942972842123312  0.557249823046446  0.9981097491485406  1.0000
  C   C27       1.0  0.8559018753628119  0.5721951842361905  0.11401016470562711  1.0000
  C   C28       1.0  0.09285377931832306  0.4799554594556912  0.13175676667856862  1.0000
  N   N4        1.0  0.13476159465826343  0.46363965200714213  0.026189842735685916  1.0000
  C   C29       1.0  0.20440646062976886  0.4365259857276571  0.07732055407637883  1.0000
  C   C30       1.0  0.20242670624252113  0.4372974181675804  0.21064622164842173  1.0000
  O   O1        1.0  0.132927907600481  0.46435446317146734  0.24117056245708038  1.0000
  H   H14       1.0  0.8647138958755867  0.5687786422174879  0.5611170666105764  1.0000
  H   H15       1.0  0.0020880057464609516  0.515289601978541  0.3330360751963015  1.0000
  H   H16       1.0  0.0020309036802515  0.5153135153665862  0.9159438744549245  1.0000
  H   H17       1.0  0.7960071055184684  0.5955100641353333  0.10970565385236043  1.0000
  H   H18       1.0  0.8647004848827348  0.5687787545872358  0.6681683852475162  1.0000
  H   H19       1.0  0.25347809786501263  0.4174214442400157  0.020812730452718586  1.0000
  H   H20       1.0  0.24921096011500454  0.41908403145152995  0.279433681758285  1.0000
  Zn  Zn1       1.0  0.8119670584485625  0.5591435818953912  0.6128364696186277  1.0000
  Zn  Zn2       1.0  0.9766170387884267  0.5553566834687349  0.6207017823849155  1.0000
  C   C31       1.0  0.8943237094573249  0.551506036148562  0.8539248429357338  1.0000
  C   C32       1.0  0.8942621766578907  0.5629960071384381  0.37961362936386994  1.0000
  C   C33       1.0  0.8929752433777727  0.8205928277669099  0.6126006861469322  1.0000
  C   C34       1.0  0.8956105952145131  0.293907484487715  0.6209378460841511  1.0000
  O   O2        1.0  0.956735339744137  0.5634807112716583  0.4309879938740609  1.0000
  O   O3        1.0  0.9568160771440546  0.5481460759968966  0.808519690850813  1.0000
  O   O4        1.0  0.9557263314253421  0.7654370826667025  0.6136486923252458  1.0000
  O   O5        1.0  0.9578250292269785  0.3461897162086591  0.6258588923877995  1.0000
  O   O6        1.0  0.8307590118230455  0.7683105504493187  0.6076793569248737  1.0000
  O   O7        1.0  0.8318487488777221  0.5510212761057396  0.8025502928280921  1.0000
  O   O8        1.0  0.831768011772205  0.566355861136113  0.4250170343786746  1.0000
  O   O9        1.0  0.8328577013039521  0.34906485576015966  0.6198880302133722  1.0000
