data_image0
_chemical_formula_structural       NC5NC3H4C6ClH5C6ClH4Zn2C4O8
_chemical_formula_sum              "N2 C24 H13 Cl2 Zn2 O8"
_cell_length_a       13.859018345313864
_cell_length_b       9.276545438789551
_cell_length_c       9.276548810779735
_cell_angle_alpha    86.11252841497436
_cell_angle_beta     89.72476444669817
_cell_angle_gamma    89.40960550048821

_space_group_name_H-M_alt    "P 1"
_space_group_IT_number       1

loop_
  _space_group_symop_operation_xyz
  'x, y, z'

loop_
  _atom_site_type_symbol
  _atom_site_label
  _atom_site_symmetry_multiplicity
  _atom_site_fract_x
  _atom_site_fract_y
  _atom_site_fract_z
  _atom_site_occupancy
  N   N1        1.0  0.9029138615580018  0.5635564379338744  0.41147099310445645  1.0000
  C   C1        1.0  0.8306641322783536  0.5244870048095469  0.46268402683470017  1.0000
  C   C2        1.0  0.7407897033949252  0.4758898634695148  0.5263862286410543  1.0000
  C   C3        1.0  0.6530474616085321  0.5232663876903669  0.4642843833120329  1.0000
  C   C4        1.0  0.5655594013396014  0.4758895719139209  0.5263861029634715  1.0000
  C   C5        1.0  0.4754242537496217  0.5244868912480818  0.4626839294900198  1.0000
  N   N2        1.0  0.4029649594605533  0.5635564034096163  0.411470924082191  1.0000
  C   C6        1.0  0.565996099318999  0.3811222219265913  0.650608248648537  1.0000
  C   C7        1.0  0.6535553104060962  0.33392807209134934  0.7124711112074491  1.0000
  C   C8        1.0  0.7408614401686536  0.38112251891125526  0.6506084524079445  1.0000
  H   H1        1.0  0.6528506519324123  0.5966189017311334  0.36813310128733123  1.0000
  H   H2        1.0  0.4988006549435078  0.3438320468425695  0.6994882166941379  1.0000
  H   H3        1.0  0.6537516571084433  0.2607244786710232  0.8084273802367594  1.0000
  H   H4        1.0  0.8082569115608449  0.34383258061728883  0.6994886421628279  1.0000
  C   C9        1.0  0.15585689086067367  0.14011908809873308  0.41123343836863274  1.0000
  C   C10       1.0  0.15664888451263503  0.22255636544949572  0.2782322680520133  1.0000
  C   C11       1.0  0.14865313970500837  0.15628921120854944  0.14812589237815055  1.0000
  C   C12       1.0  0.13967260058768982  0.006706223633486049  0.14901903236046055  1.0000
  C   C13       1.0  0.1403770934469386  0.922708244247021  0.2795789644358855  1.0000
  C   C14       1.0  0.15003120410106893  0.9869827675198997  0.4117209833154756  1.0000
  Cl  Cl1       1.0  0.14843339403456057  0.2614088020800913  0.9836184257761987  1.0000
  H   H5        1.0  0.20447838494737813  0.4051463034056657  0.6377820751814933  1.0000
  H   H6        1.0  0.16117924426981164  0.3392508855152594  0.27537934148891696  1.0000
  H   H7        1.0  0.133064635741865  0.9550657004805074  0.04836097131259609  1.0000
  H   H8        1.0  0.1356683538501089  0.8064235897732129  0.27692925596746987  1.0000
  H   H9        1.0  0.11693813361540006  0.6903743788733473  0.6447293136970476  1.0000
  C   C15       1.0  0.1543306326912306  0.5596878339858937  0.9883256267621966  1.0000
  C   C16       1.0  0.23489257785680354  0.6145008074579092  0.05746364846819408  1.0000
  C   C17       1.0  0.30996886653602274  0.680060894574972  0.9772689135911238  1.0000
  C   C18       1.0  0.3056084207531291  0.691911516854782  0.8268362101567939  1.0000
  C   C19       1.0  0.22715584496789454  0.636087090212015  0.7560484997002135  1.0000
  C   C20       1.0  0.1515574148975851  0.567413923088077  0.8346288120504517  1.0000
  Cl  Cl2       1.0  0.4091046077683996  0.7494913035839577  0.06581334337941769  1.0000
  H   H10       1.0  0.038369633310594065  0.3982925969905968  0.28123486217647686  1.0000
  H   H11       1.0  0.36351237923574686  0.7432071460303522  0.7643764811875169  1.0000
  H   H12       1.0  0.22675032025531397  0.6436109662032652  0.6390045400049349  1.0000
  H   H13       1.0  0.996926483210205  0.5145488618358893  0.5580022907011375  1.0000
  Zn  Zn1       1.0  0.04721780446422863  0.563552633572018  0.4114793015016218  1.0000
  Zn  Zn2       1.0  0.25866103565065246  0.5635484817569791  0.4114744441395559  1.0000
  C   C21       1.0  0.15211899458964373  0.5602091914041307  0.674656056643552  1.0000
  C   C22       1.0  0.15376214149953427  0.5668937445448683  0.14829783142361763  1.0000
  C   C23       1.0  0.15114621370063583  0.8268550504814003  0.40588665433291055  1.0000
  C   C24       1.0  0.15473486190358576  0.3002461537522769  0.41706730956297244  1.0000
  O   O1        1.0  0.23381299822685034  0.5693042476390686  0.2019841177070245  1.0000
  O   O2        1.0  0.23254866671184724  0.557794445596741  0.6209656683040021  1.0000
  O   O3        1.0  0.23176204723650287  0.7731143626986889  0.4039324752380369  1.0000
  O   O4        1.0  0.23459954583402262  0.35398433986719957  0.4190172027375785  1.0000
  O   O5        1.0  0.07127922212567485  0.7731167754647148  0.40393654289767844  1.0000
  O   O6        1.0  0.07206582993079189  0.5577985900810059  0.6209696601290098  1.0000
  O   O7        1.0  0.0733301675326381  0.5693083260590281  0.20198637703583103  1.0000
  O   O8        1.0  0.0741167148527988  0.3539884089599974  0.4190195700958754  1.0000
