data_image0
_chemical_formula_structural       NC8NH4C6BrH5C9H10Zn2C4O8
_chemical_formula_sum              "N2 C27 H19 Br1 Zn2 O8"
_cell_length_a       13.859017124695912
_cell_length_b       9.276564384272257
_cell_length_c       10.297187173949778
_cell_angle_alpha    85.51933545767109
_cell_angle_beta     89.97407186165773
_cell_angle_gamma    90.58596084768166

_space_group_name_H-M_alt    "P 1"
_space_group_IT_number       1

loop_
  _space_group_symop_operation_xyz
  'x, y, z'

loop_
  _atom_site_type_symbol
  _atom_site_label
  _atom_site_symmetry_multiplicity
  _atom_site_fract_x
  _atom_site_fract_y
  _atom_site_fract_z
  _atom_site_occupancy
  N   N1        1.0  0.9198737032302413  0.5780341673088225  0.5659725664136386  1.0000
  C   C1        1.0  0.8473796872283664  0.5551689387181193  0.5153751758463617  1.0000
  C   C2        1.0  0.7572014479557031  0.5267279402419438  0.45243852448272004  1.0000
  C   C3        1.0  0.6697554276198856  0.5544550365865362  0.5137938406476165  1.0000
  C   C4        1.0  0.5819711366619053  0.5267291659516617  0.45243800147984586  1.0000
  C   C5        1.0  0.5818152299592949  0.47126869686837725  0.32970801191402294  1.0000
  C   C6        1.0  0.66907934012423  0.44364816819758296  0.2685888689061519  1.0000
  C   C7        1.0  0.7566805723955907  0.47126634763715125  0.3297090756422172  1.0000
  C   C8        1.0  0.4921398550030381  0.5551698651780913  0.5153747263238844  1.0000
  N   N2        1.0  0.41992483109210577  0.578034489881051  0.5659723714984899  1.0000
  H   H1        1.0  0.6700173119254657  0.5973836061649567  0.6087897922926618  1.0000
  H   H2        1.0  0.5143866655801264  0.44944645065587374  0.2814146600414986  1.0000
  H   H3        1.0  0.6688180573481031  0.40080728710181224  0.17378529953594032  1.0000
  H   H4        1.0  0.8238428510804203  0.4494420008925766  0.281416625882146  1.0000
  C   C9        1.0  0.16699669477291024  0.15455342163232277  0.5663046509916463  1.0000
  C   C10       1.0  0.15467115830954437  0.23803648037900782  0.4475813787172422  1.0000
  C   C11       1.0  0.1513250470216514  0.17303153937232496  0.32996703790269  1.0000
  C   C12       1.0  0.16028377881360334  0.023624231539614904  0.32884271563378165  1.0000
  C   C13       1.0  0.17091008326144608  0.9384475972408969  0.44577069210410103  1.0000
  C   C14       1.0  0.1728109950796639  0.0015041390313870243  0.5656515032642484  1.0000
  Br  Br1       1.0  0.15641578586592897  0.9352444042412588  0.1674552901274755  1.0000
  H   H5        1.0  0.13863188270506255  0.4171346560280858  0.777488262412622  1.0000
  H   H6        1.0  0.14991023031824136  0.35469256577727326  0.44535756020870176  1.0000
  H   H7        1.0  0.1426845163789412  0.23923940359163076  0.23948536101381807  1.0000
  H   H8        1.0  0.17537543940750644  0.8222072353486314  0.44297010784440705  1.0000
  H   H9        1.0  0.22597138548378218  0.7035991568058537  0.7679641386327907  1.0000
  C   C15       1.0  0.1700310457441279  0.5779766668141646  0.18452498574988874  1.0000
  C   C16       1.0  0.07251975573510938  0.6175864276504  0.18101256663282414  1.0000
  C   C17       1.0  0.022561846140557448  0.6378794337504974  0.0625966472080739  1.0000
  C   C18       1.0  0.072141750259469  0.6177394213595686  0.9457897237080213  1.0000
  C   C19       1.0  0.1697766494314652  0.5780809501334563  0.9474312151161239  1.0000
  C   C20       1.0  0.21808369543846154  0.5584571365202127  0.06718762244317755  1.0000
  C   C21       1.0  0.9170963557119366  0.6807199260134391  0.06822988511430615  1.0000
  C   C22       1.0  0.8491467624491693  0.6227163593325398  0.9680027923689857  1.0000
  C   C23       1.0  0.8789311385443473  0.7818120037798181  0.9567805993946952  1.0000
  H   H10       1.0  0.20760796037304075  0.5627268426997442  0.513415833818597  1.0000
  H   H11       1.0  0.03487512450356811  0.6328783298369098  0.2710789380753502  1.0000
  H   H12       1.0  0.03554168521760493  0.6326032922106251  0.8531711747240105  1.0000
  H   H13       1.0  0.29331550960537545  0.5278966566115983  0.06917018088542837  1.0000
  H   H14       1.0  0.35417769547425415  0.503158811907285  0.7433163958269153  1.0000
  H   H15       1.0  0.8831981782295291  0.6944908039941018  0.16429656047479965  1.0000
  H   H16       1.0  0.8813767342945266  0.5576268966878771  0.8935279905988807  1.0000
  H   H17       1.0  0.7740205080853663  0.6032035839898178  0.0031364446331827427  1.0000
  H   H18       1.0  0.9292539622334088  0.8133642653486277  0.8754898575623908  1.0000
  H   H19       1.0  0.8212116829351944  0.855284062090522  0.985352956551246  1.0000
  Zn  Zn1       1.0  0.06417763110681429  0.5780304112159891  0.5659800184473269  1.0000
  Zn  Zn2       1.0  0.27562081126932125  0.5780264836842803  0.5659755825653153  1.0000
  C   C24       1.0  0.16978313487972962  0.5723162421928875  0.8032300292066247  1.0000
  C   C25       1.0  0.17001762889808658  0.5837424722432223  0.3287256978490629  1.0000
  C   C26       1.0  0.17170872469692866  0.8414117401151606  0.5605986830374075  1.0000
  C   C27       1.0  0.16809195501278418  0.3146452417354699  0.5713571146097574  1.0000
  O   O1        1.0  0.25025466781815986  0.5856697473676042  0.3771190955766416  1.0000
  O   O2        1.0  0.2500265698970865  0.5703848982050578  0.7548328916575775  1.0000
  O   O3        1.0  0.2515804258815255  0.7876829161590146  0.558906361835324  1.0000
  O   O4        1.0  0.24870073978578455  0.36837173971775644  0.5730455279962875  1.0000
  O   O5        1.0  0.09109763043518404  0.787685155185422  0.5589100730110346  1.0000
  O   O6        1.0  0.08954378636368122  0.5703888698198527  0.7548365322364909  1.0000
  O   O7        1.0  0.08977188452473484  0.5856736685157011  0.3771211744488947  1.0000
  O   O8        1.0  0.08821795638512886  0.3683756505646534  0.573047704265828  1.0000
