data_image0
_chemical_formula_structural       NC10NC3NH7C12SCH12C13NH12Zn2C4O8
_chemical_formula_sum              "N4 C43 H31 S1 Zn2 O8"
_cell_length_a       19.210446455230148
_cell_length_b       10.299776766347529
_cell_length_c       10.299780419254978
_cell_angle_alpha    85.57449051580878
_cell_angle_beta     89.97732542180437
_cell_angle_gamma    89.9285037425463

_space_group_name_H-M_alt    "P 1"
_space_group_IT_number       1

loop_
  _space_group_symop_operation_xyz
  'x, y, z'

loop_
  _atom_site_type_symbol
  _atom_site_label
  _atom_site_symmetry_multiplicity
  _atom_site_fract_x
  _atom_site_fract_y
  _atom_site_fract_z
  _atom_site_occupancy
  N   N1        1.0  0.6553985894847896  0.41986515578523576  0.5674747734420131  1.0000
  C   C1        1.0  0.595169452294842  0.4220726600623665  0.5677060582303495  1.0000
  C   C2        1.0  0.5203642839274709  0.42480956108595075  0.5679925913618666  1.0000
  C   C3        1.0  0.48472207602995027  0.5410400587742912  0.5831114387612768  1.0000
  C   C4        1.0  0.4120565629672585  0.5411915816491495  0.5830588537345005  1.0000
  C   C5        1.0  0.37519733866543664  0.42551852674403223  0.5680791178443592  1.0000
  C   C6        1.0  0.297875574348298  0.4241620561430133  0.5679284423086715  1.0000
  C   C7        1.0  0.2601012776760855  0.5277174379253029  0.5045762987876135  1.0000
  C   C8        1.0  0.1873232947202979  0.5263152215598667  0.5044671361555522  1.0000
  C   C9        1.0  0.1513181363770615  0.42161511648031746  0.5676591395497748  1.0000
  C   C10       1.0  0.0763889658808384  0.420313041231239  0.5675222303153213  1.0000
  N   N2        1.0  0.016151394615682005  0.41926612853023615  0.5674121901622577  1.0000
  C   C11       1.0  0.1883687457749575  0.3181854190379136  0.6309862840430336  1.0000
  C   C12       1.0  0.26114864310232755  0.31931338436491513  0.6311456721279647  1.0000
  C   C13       1.0  0.4134489098718916  0.3111082948690267  0.5532485433049024  1.0000
  N   N3        1.0  0.4842182097859438  0.31355323915260036  0.5534142611492041  1.0000
  H   H1        1.0  0.5127987358400182  0.6304737250477226  0.5951652752142755  1.0000
  H   H2        1.0  0.384763112664381  0.6312073713901418  0.5965073911602832  1.0000
  H   H3        1.0  0.2868126337098486  0.6089586987466539  0.4535932936378273  1.0000
  H   H4        1.0  0.1591610384872235  0.6067290594449299  0.4548144112959247  1.0000
  H   H5        1.0  0.1610179292707923  0.23680818969826056  0.6805394646729621  1.0000
  H   H6        1.0  0.2886658514995621  0.23901901087256383  0.6822360682355331  1.0000
  H   H7        1.0  0.3872083939717266  0.22022959756024438  0.5397537036152498  1.0000
  C   C14       1.0  0.8358439513075541  0.03820040659528878  0.5674418769270333  1.0000
  C   C15       1.0  0.8400098869251147  0.02666132678426081  0.7039489587940264  1.0000
  C   C16       1.0  0.8420537797032955  0.9036758746344972  0.7731235536930299  1.0000
  C   C17       1.0  0.8398767815093435  0.7913737747015567  0.7039641715360869  1.0000
  C   C18       1.0  0.8357127050915495  0.8009209037523884  0.5674563399979022  1.0000
  C   C19       1.0  0.8337192078470786  0.9247731956727958  0.4999593254593439  1.0000
  C   C20       1.0  0.8464531983467725  0.8925327490484238  0.9175326454213955  1.0000
  C   C21       1.0  0.8066050126536599  0.7991545414348191  0.9915789444619361  1.0000
  C   C22       1.0  0.8107662867739304  0.7889019766454195  0.1274814650586178  1.0000
  C   C23       1.0  0.854601965918942  0.8717497314613502  0.19114430846980168  1.0000
  C   C24       1.0  0.8946160966061439  0.9645541745161245  0.11847098422003255  1.0000
  C   C25       1.0  0.8905568947076454  0.9751564563297763  0.9825580313779659  1.0000
  S   S1        1.0  0.8600182146756057  0.8581336151569883  0.3655259267122317  1.0000
  C   C26       1.0  0.7900671121324061  0.9743158189568806  0.38506590481122605  1.0000
  H   H8        1.0  0.83428392629468  0.3700507562948471  0.5154264774166457  1.0000
  H   H9        1.0  0.8407148054257733  0.11350272056018193  0.7569048053815457  1.0000
  H   H10       1.0  0.8423967286059014  0.6963673046232023  0.7567235756433324  1.0000
  H   H11       1.0  0.830505841583674  0.9329066160328867  0.3946499159761867  1.0000
  H   H12       1.0  0.8340912496618551  0.4771050823087982  0.5154456166998151  1.0000
  H   H13       1.0  0.7715696146492531  0.735238418441612  0.9444729956935851  1.0000
  H   H14       1.0  0.7796375320174249  0.7169034734427545  0.18320587609066885  1.0000
  H   H15       1.0  0.928910444893809  0.028527748385874567  0.1671659251738784  1.0000
  H   H16       1.0  0.9225640298313526  0.046784857005191215  0.9282464476426368  1.0000
  H   H17       1.0  0.8040081211675053  0.07061176885384078  0.3361880092821876  1.0000
  H   H18       1.0  0.7819880535060476  0.9850314760973528  0.49034188667354844  1.0000
  H   H19       1.0  0.7410903523648193  0.9388554941018843  0.342954191869429  1.0000
  C   C27       1.0  0.8358257310409454  0.4194757066172541  0.18609493326287785  1.0000
  C   C28       1.0  0.8862068891303424  0.5184202204757471  0.17742649609812156  1.0000
  C   C29       1.0  0.9116817318140641  0.5686515624642985  0.055890221341817765  1.0000
  C   C30       1.0  0.8861112558284375  0.5185926101971267  0.9421263400778265  1.0000
  C   C31       1.0  0.8357309251267108  0.4196455756444426  0.9488032236990143  1.0000
  C   C32       1.0  0.8108683634309243  0.3706446283731503  0.07124183771114012  1.0000
  C   C33       1.0  0.9649830186172269  0.673323783062524  0.047811335207954775  1.0000
  C   C34       1.0  0.9602594254123474  0.7779082409133438  0.9519878345095499  1.0000
  C   C35       1.0  0.010450391454661643  0.8763405337730321  0.9444694721052578  1.0000
  C   C36       1.0  0.0659389611850727  0.8725453423126838  0.03313424820116606  1.0000
  C   C37       1.0  0.07132990340931822  0.7676809417867443  0.1279008553411607  1.0000
  C   C38       1.0  0.021153334368904764  0.6692239262890727  0.13559198545178064  1.0000
  C   C39       1.0  0.1208892935986239  0.9766708260208594  0.022671247065835894  1.0000
  N   N4        1.0  0.17425720022406435  0.9439306148187403  0.9297834923694159  1.0000
  H   H20       1.0  0.9050691481759422  0.5578943647577628  0.26529385084211543  1.0000
  H   H21       1.0  0.9062841499519646  0.555713732548444  0.848316045188457  1.0000
  H   H22       1.0  0.7720018261426422  0.294312394469755  0.07716057813891619  1.0000
  H   H23       1.0  0.8165204975838793  0.38196523615011535  0.6238921156596291  1.0000
  H   H24       1.0  0.9173280890179799  0.7843258739087517  0.8836936978380749  1.0000
  H   H25       1.0  0.00595338525973443  0.9557472943376852  0.8696324922051634  1.0000
  H   H26       1.0  0.11451960763421988  0.761915132460056  0.19566843513812102  1.0000
  H   H27       1.0  0.026863731313718553  0.5887980033514436  0.2089628480632029  1.0000
  H   H28       1.0  0.0968207082350303  0.07173632678820409  0.9893966847319956  1.0000
  H   H29       1.0  0.14489274216910708  0.9879411952680751  0.11952398091195104  1.0000
  H   H30       1.0  0.20937054437752844  0.021562989872645474  0.9198393564679078  1.0000
  H   H31       1.0  0.2021975482168086  0.8635816728280824  0.9705495970841609  1.0000
  Zn  Zn1       1.0  0.7595040551803318  0.41968882710947625  0.5674642119709274  1.0000
  Zn  Zn2       1.0  0.9120459134791452  0.4194318771295246  0.5674333867988337  1.0000
  C   C40       1.0  0.8357481635494607  0.4144398693932674  0.8046349578813119  1.0000
  C   C41       1.0  0.835803470564504  0.42468247067205156  0.33026276804438415  1.0000
  C   C42       1.0  0.8357345552656962  0.6567493534462527  0.5622786172163909  1.0000
  C   C43       1.0  0.8358170270563219  0.1823714264346088  0.5726191779262344  1.0000
  O   O1        1.0  0.8936848409661833  0.42632673138805477  0.37863511228705926  1.0000
  O   O2        1.0  0.8936425342333355  0.4125996097915505  0.7562388441961394  1.0000
  O   O3        1.0  0.8936307648349513  0.6082675842013116  0.5605343845811599  1.0000
  O   O4        1.0  0.8936965583228718  0.2306587663344153  0.574339474541832  1.0000
  O   O5        1.0  0.7778533582815562  0.6084619379936824  0.5605581242316178  1.0000
  O   O6        1.0  0.777865127416838  0.4127955238574754  0.7562625146333564  1.0000
  O   O7        1.0  0.7779074343978951  0.42652259985055974  0.37865722138311697  1.0000
  O   O8        1.0  0.7779191517412304  0.23085462552989555  0.5743616810017851  1.0000
