data_image0
_chemical_formula_structural       NC5N2C2NH4C10H6C9H8Zn2C4O8
_chemical_formula_sum              "N4 C30 H18 Zn2 O8"
_cell_length_a       13.87973921873968
_cell_length_b       9.275150299802176
_cell_length_c       9.273585224739813
_cell_angle_alpha    85.81607574140205
_cell_angle_beta     90.10207289864502
_cell_angle_gamma    89.48389152441209

_space_group_name_H-M_alt    "P 1"
_space_group_IT_number       1

loop_
  _space_group_symop_operation_xyz
  'x, y, z'

loop_
  _atom_site_type_symbol
  _atom_site_label
  _atom_site_symmetry_multiplicity
  _atom_site_fract_x
  _atom_site_fract_y
  _atom_site_fract_z
  _atom_site_occupancy
  N   N1        1.0  0.8959233265627919  0.5628587430316212  0.4013098394647605  1.0000
  C   C1        1.0  0.8226023085012343  0.5868313835381755  0.3445427558724612  1.0000
  C   C2        1.0  0.7315402557665035  0.6166077409470556  0.274031905046896  1.0000
  C   C3        1.0  0.6453682591791225  0.5866397103286729  0.3473906695776307  1.0000
  C   C4        1.0  0.5586608550483361  0.6166076766945214  0.27403194530902475  1.0000
  C   C5        1.0  0.4681251875203242  0.5868312377273777  0.3445426534856355  1.0000
  N   N2        1.0  0.395227895551625  0.5628587182861067  0.40130982861308007  1.0000
  N   N3        1.0  0.5597889253772043  0.6738682589537974  0.13496888022782128  1.0000
  C   C6        1.0  0.6443276471520933  0.7038030325548603  0.06565307220466732  1.0000
  C   C7        1.0  0.6437893221359634  0.762787973837348  0.9115890430318228  1.0000
  N   N4        1.0  0.7293918243321613  0.6738682123785111  0.1349688912414413  1.0000
  H   H1        1.0  0.6457761933287509  0.5408206457192843  0.4583662212726598  1.0000
  H   H2        1.0  0.7083567658256248  0.8304628139930166  0.8888122613882955  1.0000
  H   H3        1.0  0.6442508943581343  0.6720735070616956  0.8398919707202985  1.0000
  H   H4        1.0  0.5783519570787685  0.8304607415925149  0.8888115072197413  1.0000
  C   C8        1.0  0.1481250378620173  0.13917763237416736  0.40372265983677336  1.0000
  C   C9        1.0  0.19866832413771182  0.22012500229814336  0.29468467472958637  1.0000
  C   C10       1.0  0.24094273680856593  0.1528146119036331  0.1801055214342406  1.0000
  C   C11       1.0  0.23310247959272565  0.0035760085974827463  0.17308852158294163  1.0000
  C   C12       1.0  0.18466186156379671  0.9211782354001838  0.28147876563457386  1.0000
  C   C13       1.0  0.14303544570490945  0.9865288037741285  0.3989095538308773  1.0000
  C   C14       1.0  0.2914949063208512  0.23747886142747676  0.06857449377148384  1.0000
  C   C15       1.0  0.33381985343674825  0.30838782818076327  0.9751997774366443  1.0000
  C   C16       1.0  0.38338040213647506  0.3914272112288206  0.8658620568808333  1.0000
  C   C17       1.0  0.4256971883374001  0.4623308771749493  0.7725052398227867  1.0000
  H   H5        1.0  0.10269834632644079  0.40382012247614485  0.6325892117862912  1.0000
  H   H6        1.0  0.20329994044021005  0.33659592360143087  0.29691119108517894  1.0000
  H   H7        1.0  0.26529864031246175  0.9505326201316204  0.084428330725405  1.0000
  H   H8        1.0  0.18170837253939487  0.8051151351138894  0.27525637776613493  1.0000
  H   H9        1.0  0.08081843521415188  0.8595272472475814  0.741343299041286  1.0000
  H   H10       1.0  0.46285485670466486  0.5245903171789283  0.6905302436641114  1.0000
  C   C18       1.0  0.14510168884156016  0.5585625215591441  0.9780889536829535  1.0000
  C   C19       1.0  0.23127558477645982  0.5264288459286508  0.054228255457598344  1.0000
  C   C20       1.0  0.31867537284149217  0.507280708154872  0.9820766500106788  1.0000
  C   C21       1.0  0.3191129033866633  0.5210774200190964  0.8299390563760474  1.0000
  C   C22       1.0  0.23398493614701585  0.5504984408741771  0.7528114436156104  1.0000
  C   C23       1.0  0.1460588289957736  0.5671439351961594  0.8245432503499427  1.0000
  C   C24       1.0  0.4081737448135593  0.4741941923542412  0.07377979686555113  1.0000
  C   C25       1.0  0.4841050759601786  0.37520114243574  0.014104156295338122  1.0000
  C   C26       1.0  0.5031110851023521  0.5365198623693026  0.017091719256592246  1.0000
  H   H11       1.0  0.2308584920313936  0.519465999025684  0.17143731439983512  1.0000
  H   H12       1.0  0.38453674816750905  0.5080412394708371  0.7690787797927214  1.0000
  H   H13       1.0  0.002126076576671742  0.6696578197523293  0.5352908288987455  1.0000
  H   H14       1.0  0.4018973158720342  0.4648892367384401  0.19359449951751  1.0000
  H   H15       1.0  0.4713694623027951  0.3380745956993132  0.9047372054678027  1.0000
  H   H16       1.0  0.5244961919800917  0.3076501654291688  0.09800915455574287  1.0000
  H   H17       1.0  0.5018774562578858  0.5972080068010118  0.9095278499654995  1.0000
  H   H18       1.0  0.5546012412700616  0.5632787195850819  0.10274721662361097  1.0000
  Zn  Zn1       1.0  0.04001187329460021  0.562854954056959  0.40131818375210215  1.0000
  Zn  Zn2       1.0  0.2511394187961902  0.5628508084839521  0.40131336605933443  1.0000
  C   C27       1.0  0.14591027784438393  0.5597741799968312  0.6645779147466864  1.0000
  C   C28       1.0  0.14524330897834314  0.5659334043545378  0.13805376612870623  1.0000
  C   C29       1.0  0.14398605797123243  0.8263031922962609  0.394076141644069  1.0000
  C   C30       1.0  0.1471674673069583  0.2994026594200281  0.4085556259172012  1.0000
  O   O1        1.0  0.2254126790139621  0.5683992723854183  0.19173762594585625  1.0000
  O   O2        1.0  0.22598183575401243  0.5573040729448488  0.6108899897160565  1.0000
  O   O3        1.0  0.22442692548567988  0.7725296363101382  0.39245788559414363  1.0000
  O   O4        1.0  0.22696751705458018  0.35317371824695565  0.41016962194848494  1.0000
  O   O5        1.0  0.06418370298872289  0.7725320442968635  0.39246192785700584  1.0000
  O   O6        1.0  0.0657386027541047  0.5573082135695622  0.6108939452870954  1.0000
  O   O7        1.0  0.06516944442076533  0.5684033451660668  0.19173984902579327  1.0000
  O   O8        1.0  0.06672428264161034  0.35317778180368586  0.4101719531417607  1.0000
