data_image0
_chemical_formula_structural       NC8NH4C7NH5C6BrH3Zn2C4O8
_chemical_formula_sum              "N3 C25 H12 Br1 Zn2 O8"
_cell_length_a       13.859017981522156
_cell_length_b       9.275154477615127
_cell_length_c       9.275428193871797
_cell_angle_alpha    86.39200360318996
_cell_angle_beta     89.94092098538006
_cell_angle_gamma    89.43373755438122

_space_group_name_H-M_alt    "P 1"
_space_group_IT_number       1

loop_
  _space_group_symop_operation_xyz
  'x, y, z'

loop_
  _atom_site_type_symbol
  _atom_site_label
  _atom_site_symmetry_multiplicity
  _atom_site_fract_x
  _atom_site_fract_y
  _atom_site_fract_z
  _atom_site_occupancy
  N   N1        1.0  0.8993566644885732  0.5611045475226948  0.41672564040836013  1.0000
  C   C1        1.0  0.827095192868297  0.553425497138319  0.35540206082010783  1.0000
  C   C2        1.0  0.7372061823475401  0.5438741351221021  0.27912350880333614  1.0000
  C   C3        1.0  0.7372495670292842  0.5252480737263769  0.1303765885472632  1.0000
  C   C4        1.0  0.6499293933669291  0.5159733219842353  0.056300314749649694  1.0000
  C   C5        1.0  0.5623842798707077  0.5252497931502249  0.13037634714848223  1.0000
  C   C6        1.0  0.5619759391579876  0.5438751062739899  0.27912332892545333  1.0000
  C   C7        1.0  0.6494782189007667  0.5531860741724262  0.3534856377341318  1.0000
  C   C8        1.0  0.4718553703042151  0.5534263981898717  0.35540182404827925  1.0000
  N   N2        1.0  0.39940774681994595  0.5611048599599457  0.41672554807467166  1.0000
  H   H1        1.0  0.8046339164068536  0.5179185934843418  0.07184624323874256  1.0000
  H   H2        1.0  0.6501038122205385  0.5015857498564695  0.9413997202391463  1.0000
  H   H3        1.0  0.4951776265028616  0.5179216862367886  0.07184583568716874  1.0000
  H   H4        1.0  0.649303439007758  0.5676026718989404  0.4686198318754866  1.0000
  C   C9        1.0  0.1521802520247344  0.13769774612077645  0.41505805272795726  1.0000
  C   C10       1.0  0.12579165154065608  0.21952992552656478  0.28800263136027127  1.0000
  C   C11       1.0  0.09154962292950564  0.1522159364822817  0.16767752690208781  1.0000
  C   C12       1.0  0.08313195628222883  0.0021517302792983858  0.17299075483097393  1.0000
  C   C13       1.0  0.11041704004865238  0.9190811752324555  0.2971500487562637  1.0000
  C   C14       1.0  0.14659346932376272  0.9845007468750534  0.41840558892385515  1.0000
  C   C15       1.0  0.06387848688601139  0.2376136938192137  0.03909075657643069  1.0000
  N   N3        1.0  0.04163857107087732  0.30625793384335753  0.9357399304395062  1.0000
  H   H5        1.0  0.1706207445753014  0.21811852997495615  0.7687784061850857  1.0000
  H   H6        1.0  0.1297354260725836  0.3364440026191866  0.2837269167965102  1.0000
  H   H7        1.0  0.056300674433454  0.9490448030859963  0.08051335513885194  1.0000
  H   H8        1.0  0.10535042728513047  0.8026122313332503  0.2970232313186467  1.0000
  H   H9        1.0  0.16310541176766846  0.6882429276370061  0.6554082863839741  1.0000
  C   C16       1.0  0.1497078991103722  0.5566132939583126  0.993560373947044  1.0000
  C   C17       1.0  0.238573562877287  0.5592976305032238  0.06661628898538918  1.0000
  C   C18       1.0  0.32504687865718573  0.5751398235904237  0.9901421581905394  1.0000
  C   C19       1.0  0.3240161254178078  0.5887178305447338  0.8396385904713748  1.0000
  C   C20       1.0  0.23685039972377347  0.5839533775933266  0.7650673054866033  1.0000
  C   C21       1.0  0.14906584274891874  0.5655851875596873  0.8399032299046207  1.0000
  Br  Br1       1.0  0.444645345778653  0.5806520540965863  0.09172785233443759  1.0000
  H   H10       1.0  0.9171098959577206  0.6280580973109489  0.09240820824825491  1.0000
  H   H11       1.0  0.3909239167519525  0.6016027398019341  0.780109641715768  1.0000
  H   H12       1.0  0.9921820273251537  0.6075882127205872  0.556333203211349  1.0000
  Zn  Zn1       1.0  0.04366063023543411  0.5611008756349678  0.4167339164132535  1.0000
  Zn  Zn2       1.0  0.2551038524449627  0.5610968927452993  0.4167290161184425  1.0000
  C   C22       1.0  0.1492229262373555  0.5581453264844067  0.6799035960655742  1.0000
  C   C23       1.0  0.14954385328667752  0.5640542625955658  0.1535594850425248  1.0000
  C   C24       1.0  0.1476488760234476  0.8243760605620714  0.41203036648582914  1.0000
  C   C25       1.0  0.15111784272032702  0.297821797039701  0.42143278460401623  1.0000
  O   O1        1.0  0.2297304403926883  0.5665437178850299  0.207254763833709  1.0000
  O   O2        1.0  0.22951685981617653  0.5556517561595407  0.6262041789402171  1.0000
  O   O3        1.0  0.228244711529936  0.770636456778967  0.4098946567585988  1.0000
  O   O4        1.0  0.23100251654160298  0.3515590264358499  0.4235641780096977  1.0000
  O   O5        1.0  0.06776189398359492  0.770638741947266  0.40989875451609725  1.0000
  O   O6        1.0  0.06903403089489474  0.5556557728088882  0.6262082067100672  1.0000
  O   O7        1.0  0.06924761318147477  0.5665476659235289  0.2072570588564051  1.0000
  O   O8        1.0  0.07051968931251618  0.35156296530695164  0.4235665810321221  1.0000
