data_image0
_chemical_formula_structural       NC12NC2H8C7OC3NC3H11C7OC6H10Zn2C4O8
_chemical_formula_sum              "N3 C44 H29 O10 Zn2"
_cell_length_a       17.80743265337812
_cell_length_b       10.298746005989749
_cell_length_c       10.299382801718286
_cell_angle_alpha    85.57508548997963
_cell_angle_beta     91.51478421497153
_cell_angle_gamma    89.44452832379845

_space_group_name_H-M_alt    "P 1"
_space_group_IT_number       1

loop_
  _space_group_symop_operation_xyz
  'x, y, z'

loop_
  _atom_site_type_symbol
  _atom_site_label
  _atom_site_symmetry_multiplicity
  _atom_site_fract_x
  _atom_site_fract_y
  _atom_site_fract_z
  _atom_site_occupancy
  N   N1        1.0  0.7078188416882906  0.40649114122889274  0.6014868240327012  1.0000
  C   C1        1.0  0.6570148041638433  0.4360370963009408  0.5327922416777662  1.0000
  C   C2        1.0  0.5938095648615174  0.4727901205581291  0.44734482884449545  1.0000
  C   C3        1.0  0.6055652778449832  0.5267870906910603  0.3207326953877856  1.0000
  C   C4        1.0  0.5442667978978594  0.5620369324114932  0.2376810783470491  1.0000
  C   C5        1.0  0.47105845149987935  0.5435531433458982  0.2805817307381433  1.0000
  C   C6        1.0  0.4583258655069042  0.4894374649015958  0.40766198570407736  1.0000
  C   C7        1.0  0.5204816649774314  0.454190873662955  0.49069709171496023  1.0000
  C   C8        1.0  0.3805486669371289  0.4698400938908711  0.45342276874829707  1.0000
  C   C9        1.0  0.3617415114372766  0.4970573445219175  0.5804667208752325  1.0000
  C   C10       1.0  0.2885032152957324  0.4786151414527533  0.6234079389878802  1.0000
  C   C11       1.0  0.23312892562591783  0.43270158280127813  0.5401431320454828  1.0000
  C   C12       1.0  0.1577537125348832  0.41370682213243204  0.5844851969480129  1.0000
  N   N2        1.0  0.0971573789512295  0.3984363120272333  0.6201331666891785  1.0000
  C   C13       1.0  0.25124447141355555  0.40531552748915045  0.41364212226327896  1.0000
  C   C14       1.0  0.3244299614181662  0.42377245963396715  0.3704450241512047  1.0000
  H   H1        1.0  0.6620387071221975  0.541604364382303  0.28629779056748506  1.0000
  H   H2        1.0  0.5534868881849009  0.6041155591624112  0.1399079443834541  1.0000
  H   H3        1.0  0.4244339947805287  0.5731764143676151  0.21499503192420333  1.0000
  H   H4        1.0  0.5119598583694536  0.4107267915069029  0.5883456599467569  1.0000
  H   H5        1.0  0.4034090278051307  0.5342545917288064  0.6460416705760044  1.0000
  H   H6        1.0  0.27504357493776094  0.500484673705555  0.7214165832825974  1.0000
  H   H7        1.0  0.2088601113892974  0.3693857641145908  0.3484802303128632  1.0000
  H   H8        1.0  0.3373610152935826  0.4003673168928161  0.2727395723678163  1.0000
  C   C15       1.0  0.9024558099324578  0.021062321160419718  0.6107912590110088  1.0000
  C   C16       1.0  0.9376231984755223  0.028819297297289822  0.48997195102569435  1.0000
  C   C17       1.0  0.9546156834332395  0.9156344475615035  0.42815304097021634  1.0000
  C   C18       1.0  0.9376237713953579  0.793582676301043  0.48992284165054056  1.0000
  C   C19       1.0  0.902527587571373  0.7838550365417197  0.6108402509486901  1.0000
  C   C20       1.0  0.8849855002577318  0.8981595560871471  0.6703440706406403  1.0000
  C   C21       1.0  0.9923905537268022  0.923621129031969  0.3011473851362192  1.0000
  O   O1        1.0  0.038264924441886006  0.8346896295945707  0.2781323038179808  1.0000
  C   C22       1.0  0.9781254357774963  0.03243618384346281  0.2002590817443346  1.0000
  C   C23       1.0  0.9069918559127679  0.09329777492048286  0.18474495627582588  1.0000
  C   C24       1.0  0.8938463720406646  0.195223797941994  0.0882091481187357  1.0000
  N   N3        1.0  0.8215100200929198  0.25695262699994986  0.07354079009655301  1.0000
  C   C25       1.0  0.951881198093611  0.23589459516138778  0.005854903411779851  1.0000
  C   C26       1.0  0.02232939953938362  0.1748820907505362  0.019480144149584662  1.0000
  C   C27       1.0  0.03541650808686958  0.07338169566644259  0.11570895047958764  1.0000
  H   H9        1.0  0.8370483996683701  0.21367923394617505  0.8399929505347681  1.0000
  H   H10       1.0  0.9525719358150585  0.12301864586712519  0.44446636160131986  1.0000
  H   H11       1.0  0.9511821272174772  0.7061021513565822  0.4428745904888905  1.0000
  H   H12       1.0  0.8578814959649751  0.8914281750410828  0.7634759491752348  1.0000
  H   H13       1.0  0.8364959622652334  0.5581508002137887  0.8395235246427651  1.0000
  H   H14       1.0  0.8614844467354649  0.060846481337669234  0.24652773100744654  1.0000
  H   H15       1.0  0.7778481113129181  0.22741301938579994  0.13440049458175918  1.0000
  H   H16       1.0  0.8111020531210746  0.3327706973538267  0.0018043759163384175  1.0000
  H   H17       1.0  0.9424282669149641  0.3144285245598386  0.9309155049686787  1.0000
  H   H18       1.0  0.06691679701498443  0.20631639807414495  0.9553210125335729  1.0000
  H   H19       1.0  0.09051318236604833  0.02760105551737735  0.12487516794175126  1.0000
  C   C28       1.0  0.9025666383135913  0.4023838880039737  0.2294495586637586  1.0000
  C   C29       1.0  0.9814912169773533  0.40161460085916234  0.23192583348623175  1.0000
  C   C30       1.0  0.021298396273863762  0.399738391944279  0.1161165851219208  1.0000
  C   C31       1.0  0.9813081515539924  0.40164642734603123  0.9966714990530107  1.0000
  C   C32       1.0  0.9024167404820282  0.40253345727423007  0.9921819226225348  1.0000
  C   C33       1.0  0.8635035772170532  0.4025522915604716  0.10915867114628597  1.0000
  C   C34       1.0  0.10463262263646156  0.40031019372284066  0.1184792968398767  1.0000
  O   O2        1.0  0.13773913185545594  0.460339362019631  0.02554161632981899  1.0000
  C   C35       1.0  0.15040935542861966  0.332774229096684  0.22617383394041157  1.0000
  C   C36       1.0  0.22102634803943255  0.3817773998052092  0.2606602764699091  1.0000
  C   C37       1.0  0.26497118866016045  0.3179289628768122  0.36101554337686137  1.0000
  C   C38       1.0  0.23921896350047003  0.20414834188161549  0.42713931783043324  1.0000
  C   C39       1.0  0.16959802624303966  0.15367747709688295  0.39267747324820923  1.0000
  C   C40       1.0  0.1254391389953946  0.21715159742452106  0.2924139932345349  1.0000
  H   H20       1.0  0.7536243332073896  0.4058475110895765  0.43194113017374575  1.0000
  H   H21       1.0  0.012096841915051563  0.40393214600061916  0.3239906275125617  1.0000
  H   H22       1.0  0.011921226970808668  0.40118445499372407  0.9071861568329279  1.0000
  H   H23       1.0  0.8026586737278678  0.40314615276259724  0.1064454145851117  1.0000
  H   H24       1.0  0.8721102439362489  0.4039792855754044  0.6629154856475293  1.0000
  H   H25       1.0  0.24189176453819547  0.47002638802075963  0.21072939069261531  1.0000
  H   H26       1.0  0.3190522245830443  0.35669728298348313  0.3874806835389286  1.0000
  H   H27       1.0  0.2733418113833572  0.15481095190880656  0.5047140271879031  1.0000
  H   H28       1.0  0.14995540397443863  0.06494724330772031  0.4432956561794432  1.0000
  H   H29       1.0  0.07225987217517149  0.17508217019714192  0.26580562348729453  1.0000
  Zn  Zn1       1.0  0.820173534908324  0.4041632254083678  0.6068752423965698  1.0000
  Zn  Zn2       1.0  0.9848026801588124  0.40075363556504745  0.6147553406203976  1.0000
  C   C41       1.0  0.9024429341568505  0.39733109488201707  0.8480087959000334  1.0000
  C   C42       1.0  0.9025350787846148  0.4075873676426774  0.37362200073818985  1.0000
  C   C43       1.0  0.902511178660961  0.639670024565959  0.605655682217918  1.0000
  C   C44       1.0  0.9024667779436228  0.1652468787005288  0.6159751808692646  1.0000
  O   O3        1.0  0.9650003892356873  0.4080341151443627  0.4249980451743234  1.0000
  O   O4        1.0  0.9649273356730219  0.39429556770268537  0.8026131897763976  1.0000
  O   O5        1.0  0.9649816015027766  0.5899873359240022  0.6069112955630003  1.0000
  O   O6        1.0  0.9649460672491645  0.21234235735842671  0.6206998393253984  1.0000
  O   O7        1.0  0.8400300916381255  0.5925745047799271  0.6009307409956466  1.0000
  O   O8        1.0  0.8399758259654064  0.396884296981755  0.7966325660641631  1.0000
  O   O9        1.0  0.8400488798805733  0.41062279885641817  0.4190158600719878  1.0000
  O   O10       1.0  0.8399945578709725  0.21493103180003992  0.6147177515894635  1.0000
