data_image0
_chemical_formula_structural       NC6NC3H6C9H4C9H6Zn2C4O8
_chemical_formula_sum              "N2 C31 H16 Zn2 O8"
_cell_length_a       14.934028789175542
_cell_length_b       9.275152443626249
_cell_length_c       9.275155815604963
_cell_angle_alpha    85.85171904572837
_cell_angle_beta     90.33293635745233
_cell_angle_gamma    90.53595971611534

_space_group_name_H-M_alt    "P 1"
_space_group_IT_number       1

loop_
  _space_group_symop_operation_xyz
  'x, y, z'

loop_
  _atom_site_type_symbol
  _atom_site_label
  _atom_site_symmetry_multiplicity
  _atom_site_fract_x
  _atom_site_fract_y
  _atom_site_fract_z
  _atom_site_occupancy
  N   N1        1.0  0.8467274159152659  0.5641934745675243  0.404327763982097  1.0000
  C   C1        1.0  0.7692318627562142  0.5630891543729424  0.40365285768857667  1.0000
  C   C2        1.0  0.6728234463702534  0.5617103042250955  0.40281036379764834  1.0000
  C   C3        1.0  0.6259856312025615  0.6690951538242642  0.4683173676288839  1.0000
  C   C4        1.0  0.5324643716053936  0.6679880419569184  0.46764187718876143  1.0000
  C   C5        1.0  0.4848688508425022  0.559550883675481  0.40149301344377286  1.0000
  C   C6        1.0  0.38824312429143204  0.5618775235463478  0.4029135983818428  1.0000
  N   N2        1.0  0.31077891130481405  0.5637240084442554  0.40404133991108804  1.0000
  C   C7        1.0  0.5316882994229288  0.4506803833943487  0.3350791797450883  1.0000
  C   C8        1.0  0.48235681286897203  0.33278666247033706  0.26316284528574796  1.0000
  C   C9        1.0  0.6258503552959368  0.4529171959302274  0.3364437342742528  1.0000
  H   H1        1.0  0.6617585247651879  0.7537044593909987  0.5199313995087504  1.0000
  H   H2        1.0  0.4971517080110649  0.7519457319461653  0.5188582665179744  1.0000
  H   H3        1.0  0.4395635796467314  0.38110844070598593  0.1744046699567794  1.0000
  H   H4        1.0  0.4395368459692488  0.2706121206231267  0.3434771774022618  1.0000
  H   H5        1.0  0.5291580364671187  0.2564251384501246  0.2165742963575381  1.0000
  H   H6        1.0  0.6626656980722531  0.3700763959462105  0.2859089608524459  1.0000
  C   C10       1.0  0.07612178566348121  0.14034177704174167  0.4056575478364519  1.0000
  C   C11       1.0  0.043338802406238226  0.2220594406721348  0.2832385776734503  1.0000
  C   C12       1.0  0.018870189924778954  0.15556819633095387  0.15852210797358945  1.0000
  C   C13       1.0  0.026798348775003415  0.006177207902839037  0.15375519849294128  1.0000
  C   C14       1.0  0.05782627434340523  0.9227642577570682  0.2751404820729859  1.0000
  C   C15       1.0  0.08139313185772123  0.9875647159853936  0.40272399850919705  1.0000
  C   C16       1.0  0.002031022064199026  0.9379398848641718  0.024603097762261328  1.0000
  C   C17       1.0  0.9812941344579289  0.8807736549534306  0.9164584618624434  1.0000
  C   C18       1.0  0.9561340108275834  0.8114005448676271  0.7852439123494496  1.0000
  H   H7        1.0  0.20591794811586098  0.22434177089192245  0.693407030998376  1.0000
  H   H8        1.0  0.9945628490462508  0.22102835115736477  0.06519602266606417  1.0000
  H   H9        1.0  0.16592264798069323  0.6938759395050063  0.599537605378254  1.0000
  H   H10       1.0  0.9935818489048995  0.8629074436355081  0.6919323341215273  1.0000
  C   C19       1.0  0.07709413869909376  0.5603085845093712  0.980973194628648  1.0000
  C   C20       1.0  0.007482995801547873  0.6306698010653424  0.04858792252750787  1.0000
  C   C21       1.0  0.9439291031537689  0.7106121935361676  0.9670661121660663  1.0000
  C   C22       1.0  0.9488089366895949  0.7218672205423473  0.8164423583254692  1.0000
  C   C23       1.0  0.016613348607230845  0.650732770339298  0.7471230615267537  1.0000
  C   C24       1.0  0.08042075315347641  0.5675978302045308  0.8274083442141231  1.0000
  C   C25       1.0  0.8834660081612558  0.8051816543358878  0.7325973774336201  1.0000
  C   C26       1.0  0.8287530994715531  0.8749461120441732  0.6623620046283394  1.0000
  C   C27       1.0  0.7623688278101588  0.9595934850501866  0.5771317782365899  1.0000
  H   H11       1.0  0.28420722164623435  0.44371091710651417  0.09420574568707551  1.0000
  H   H12       1.0  0.8914257673003659  0.7648854795680688  0.021724022065264578  1.0000
  H   H13       1.0  0.21857810842466222  0.48391821086541537  0.5540296128574833  1.0000
  H   H14       1.0  0.7805904044649907  0.9637197979551982  0.461107207676152  1.0000
  H   H15       1.0  0.6953595437372583  0.90829183795409  0.592377090055336  1.0000
  H   H16       1.0  0.7607957421516095  0.07098428664086144  0.6132522202861681  1.0000
  Zn  Zn1       1.0  0.9806426755665186  0.5640542027855481  0.40425343774122496  1.0000
  Zn  Zn2       1.0  0.1768636545055804  0.5638515650730154  0.40412748989341774  1.0000
  C   C28       1.0  0.07975421183011061  0.5604732251384521  0.6674339113309729  1.0000
  C   C29       1.0  0.07775427284968647  0.5674343618714819  0.14094715007976186  1.0000
  C   C30       1.0  0.08036954937453045  0.8273720651766667  0.3975354761486618  1.0000
  C   C31       1.0  0.07713885786723002  0.3005337894110731  0.4108456681424797  1.0000
  O   O1        1.0  0.15244061963729  0.5697426445003868  0.19458809614832706  1.0000
  O   O2        1.0  0.15399503941132964  0.5580100533454551  0.6136969626590394  1.0000
  O   O3        1.0  0.15449093432840855  0.7735342560147258  0.39575206212386876  1.0000
  O   O4        1.0  0.15194465740279545  0.3542184512890718  0.41253288863088056  1.0000
  O   O5        1.0  0.0055616057086931275  0.7736873166401463  0.3958480390391559  1.0000
  O   O6        1.0  0.005065721269040591  0.5581648464637257  0.6137928567293138  1.0000
  O   O7        1.0  0.0035112944318322907  0.5698973724272653  0.1946822576550535  1.0000
  O   O8        1.0  0.003015332554143323  0.35437316982864986  0.4126271582256182  1.0000
