data_image0
_chemical_formula_structural       NC6NC3H6C6NH7C7ONH5Zn2C4O8
_chemical_formula_sum              "N4 C26 H18 O9 Zn2"
_cell_length_a       14.934028789175542
_cell_length_b       9.274771166103582
_cell_length_c       9.273042158839658
_cell_angle_alpha    86.05644510922068
_cell_angle_beta     90.06873718233021
_cell_angle_gamma    90.55950156128424

_space_group_name_H-M_alt    "P 1"
_space_group_IT_number       1

loop_
  _space_group_symop_operation_xyz
  'x, y, z'

loop_
  _atom_site_type_symbol
  _atom_site_label
  _atom_site_symmetry_multiplicity
  _atom_site_fract_x
  _atom_site_fract_y
  _atom_site_fract_z
  _atom_site_occupancy
  N   N1        1.0  0.8516787667023752  0.5610219314168146  0.40673593096117777  1.0000
  C   C1        1.0  0.774184856182573  0.5599163891183758  0.4060591843656518  1.0000
  C   C2        1.0  0.6777784902433597  0.558536013424328  0.40521439269529025  1.0000
  C   C3        1.0  0.6307812898267421  0.6660394680910928  0.4709003393103428  1.0000
  C   C4        1.0  0.5372616738210906  0.6649311331861916  0.4702230040032926  1.0000
  C   C5        1.0  0.48982709998852114  0.5563742077121456  0.40389344394540205  1.0000
  C   C6        1.0  0.3931979164697307  0.5587034197950591  0.40531790602404993  1.0000
  N   N2        1.0  0.3157309590077557  0.560551946698068  0.40644872458327175  1.0000
  C   C7        1.0  0.5368081404591618  0.4473834604226128  0.33729819177773646  1.0000
  C   C8        1.0  0.48765163316669713  0.3293595300282752  0.2651854029784173  1.0000
  C   C9        1.0  0.6309668762094119  0.4496227435868343  0.33866647366600966  1.0000
  H   H1        1.0  0.6664286009182574  0.7507422245811735  0.5226553615592242  1.0000
  H   H2        1.0  0.5018243953208235  0.7489815541229112  0.5215792978583691  1.0000
  H   H3        1.0  0.44512392264566053  0.3775075075595622  0.17649855190056107  1.0000
  H   H4        1.0  0.44458668552075825  0.26734350144426333  0.34540532754398456  1.0000
  H   H5        1.0  0.534566214167866  0.25291365343082495  0.21846960707462348  1.0000
  H   H6        1.0  0.667905175328938  0.3666904468012826  0.28799365689174605  1.0000
  C   C10       1.0  0.08096095436983258  0.13720143113518324  0.40737963846432335  1.0000
  C   C11       1.0  0.06021689372768257  0.21917361293199725  0.2785000023036661  1.0000
  C   C12       1.0  0.047832217433477764  0.15277057775312608  0.14879742521952188  1.0000
  C   C13       1.0  0.05623753045877385  0.0030079457933536134  0.14703495246347065  1.0000
  C   C14       1.0  0.07532388160301971  0.919699365698859  0.27414500889692306  1.0000
  C   C15       1.0  0.08645732972128718  0.9843614855206738  0.4058175094168488  1.0000
  N   N3        1.0  0.027636772349963316  0.23782678129033627  0.018500846499609695  1.0000
  H   H7        1.0  0.18207437254467784  0.22008175194348523  0.7227565963365505  1.0000
  H   H8        1.0  0.05570143953328774  0.33576506290085195  0.27794914090892275  1.0000
  H   H9        1.0  0.0471325734007235  0.950478797166623  0.04724164281123233  1.0000
  H   H10       1.0  0.07926557714217397  0.8034878803327585  0.27001466345438985  1.0000
  H   H11       1.0  0.15093435937837538  0.6894902879517778  0.620388176868655  1.0000
  H   H12       1.0  0.02146733649942822  0.3499064379878958  0.018457850889187277  1.0000
  H   H13       1.0  0.018618671824332418  0.18933971843081057  0.92107782677785  1.0000
  C   C16       1.0  0.08325203365351386  0.5563238926115339  0.9833421391034184  1.0000
  C   C17       1.0  0.0010687719091924163  0.5655925218958184  0.05605691404833846  1.0000
  C   C18       1.0  0.9205930148200261  0.5888118313359496  0.9798079910305865  1.0000
  C   C19       1.0  0.9227856428008456  0.6010197387453848  0.8282854672144966  1.0000
  C   C20       1.0  0.003489286494407607  0.589634789966065  0.7545660741695044  1.0000
  C   C21       1.0  0.08416626379917641  0.5652389483375551  0.8298550067841175  1.0000
  C   C22       1.0  0.8350920908701751  0.598856318330087  0.05970261106884478  1.0000
  O   O1        1.0  0.8287478247122068  0.5430426395852928  0.18717986710703682  1.0000
  N   N4        1.0  0.7594010374950254  0.6721124631966389  0.9960783506753418  1.0000
  H   H14       1.0  0.3008578139144213  0.6112009821821345  0.08306612747920639  1.0000
  H   H15       1.0  0.8619866585345756  0.6153433143934899  0.7656737250180088  1.0000
  H   H16       1.0  0.2307960028478756  0.5955086633682107  0.5467864961461899  1.0000
  H   H17       1.0  0.7641174218521195  0.7343967139427652  0.8982949931524815  1.0000
  H   H18       1.0  0.6988785515193446  0.6720114049238071  0.052358571949267414  1.0000
  Zn  Zn1       1.0  0.9855942027397977  0.560882526239747  0.4066613734692368  1.0000
  Zn  Zn2       1.0  0.18181548910155165  0.5606796602311004  0.40653508777061664  1.0000
  C   C23       1.0  0.08395415148892083  0.5578074517447338  0.6698565228476419  1.0000
  C   C24       1.0  0.08345769504375772  0.5637565540115832  0.14334007512376146  1.0000
  C   C25       1.0  0.08540757498778137  0.8241696870835207  0.40036917847033027  1.0000
  C   C26       1.0  0.0820041934274382  0.29739258652691536  0.41282749958328324  1.0000
  O   O2        1.0  0.15799163161511087  0.5661677435570069  0.19698893089102976  1.0000
  O   O3        1.0  0.15834762350647974  0.5552411990476633  0.616111406256497  1.0000
  O   O4        1.0  0.15952027915818068  0.7703320895154075  0.3984984668845113  1.0000
  O   O5        1.0  0.15681890895661277  0.35107686233897306  0.4146017622173046  1.0000
  O   O6        1.0  0.010590715924044373  0.7704853242025933  0.39859469905805955  1.0000
  O   O7        1.0  0.009418071429109446  0.5553961659514497  0.616207558383346  1.0000
  O   O8        1.0  0.009062077399705652  0.5663226419449494  0.19708335021401435  1.0000
  O   O9        1.0  0.007889354787311786  0.351231751547924  0.41469628962151095  1.0000
