data_image0
_chemical_formula_structural       NC11NC3H8C7OC4NC3H8C7OC4NC3H9Zn2C4O8
_chemical_formula_sum              "N4 C46 H25 O10 Zn2"
_cell_length_a       17.807433833752565
_cell_length_b       10.299371701877257
_cell_length_c       10.299375074045736
_cell_angle_alpha    85.55924318392921
_cell_angle_beta     88.51814048155188
_cell_angle_gamma    90.69533246875125

_space_group_name_H-M_alt    "P 1"
_space_group_IT_number       1

loop_
  _space_group_symop_operation_xyz
  'x, y, z'

loop_
  _atom_site_type_symbol
  _atom_site_label
  _atom_site_symmetry_multiplicity
  _atom_site_fract_x
  _atom_site_fract_y
  _atom_site_fract_z
  _atom_site_occupancy
  N   N1        1.0  0.7076574982589808  0.4390347377675942  0.5351044443827988  1.0000
  C   C1        1.0  0.6568300736944138  0.4042827711750711  0.6016572754192759  1.0000
  C   C2        1.0  0.5935956327639196  0.36105419042115017  0.6844405035962611  1.0000
  C   C3        1.0  0.6053081458334271  0.29745744260904994  0.8071415429427413  1.0000
  C   C4        1.0  0.5439814212338951  0.25590950478514296  0.8876413428170825  1.0000
  C   C5        1.0  0.47078776158284047  0.2776448032990724  0.8460808148687446  1.0000
  C   C6        1.0  0.45809850133226626  0.3413962767375285  0.722919613764128  1.0000
  C   C7        1.0  0.3803369422822577  0.364462748553227  0.6785787898868103  1.0000
  C   C8        1.0  0.36156012930907644  0.34763933006793946  0.5489868354740135  1.0000
  C   C9        1.0  0.2883365260309463  0.3693359170782478  0.5073822202927118  1.0000
  C   C10       1.0  0.2329467486753245  0.4081747605872474  0.5945493637560382  1.0000
  C   C11       1.0  0.1575865813661141  0.4305303284063544  0.551583630618129  1.0000
  N   N2        1.0  0.09700237991506672  0.4485025441220088  0.517042308200746  1.0000
  C   C12       1.0  0.2510320547793007  0.4252089570941049  0.7236102363786467  1.0000
  C   C13       1.0  0.3242028759588317  0.4034773436411272  0.7654702794009502  1.0000
  C   C14       1.0  0.5202825362677195  0.3829396434236816  0.6424362287954815  1.0000
  H   H1        1.0  0.66176994661871  0.28003032680254836  0.8405023058213901  1.0000
  H   H2        1.0  0.5531681886784967  0.20642134344224417  0.9823639170156461  1.0000
  H   H3        1.0  0.424140763140327  0.24306474248445675  0.9095102886031228  1.0000
  H   H4        1.0  0.403239725156412  0.31602333318576026  0.48025608093397415  1.0000
  H   H5        1.0  0.2749001784851439  0.35549288126366285  0.4073384449383471  1.0000
  H   H6        1.0  0.2086355829592381  0.45560211862541844  0.791825764023  1.0000
  H   H7        1.0  0.33711096265189283  0.418865861048068  0.8653318438183925  1.0000
  H   H8        1.0  0.5117943715807582  0.43379007201847  0.547948466683402  1.0000
  C   C15       1.0  0.9022942418080483  0.06239738521400695  0.5259480104086358  1.0000
  C   C16       1.0  0.9059536940662651  0.07187936536822925  0.3891098674072109  1.0000
  C   C17       1.0  0.9069463748491496  0.9594721810854918  0.3200696749307608  1.0000
  C   C18       1.0  0.9059629658636296  0.8366111540793582  0.38942684123962223  1.0000
  C   C19       1.0  0.902372815414847  0.8251300527802611  0.5262095840943775  1.0000
  C   C20       1.0  0.9003615673659597  0.938620777359439  0.5936720834696645  1.0000
  C   C21       1.0  0.9115994974946758  0.9693599040684058  0.17560014740166952  1.0000
  O   O1        1.0  0.9477614219239653  0.8845133888960667  0.11897528281525882  1.0000
  C   C22       1.0  0.8752165229648622  0.0754196747236966  0.09537372578474623  1.0000
  C   C23       1.0  0.9074001329523418  0.12089231778775097  0.9739073600115709  1.0000
  C   C24       1.0  0.8729983222997459  0.21998901492581718  0.8967105130270592  1.0000
  C   C25       1.0  0.9066395389938745  0.2666819875619209  0.7729903222422458  1.0000
  N   N3        1.0  0.9336855785252505  0.3042134649112751  0.6735370731640544  1.0000
  C   C26       1.0  0.8058520845869152  0.2735193168973047  0.9399983740615571  1.0000
  C   C27       1.0  0.7730344010760523  0.22782129122088346  0.05975456111653288  1.0000
  C   C28       1.0  0.8072205083118575  0.1290168275478183  0.13695001694390085  1.0000
  H   H9        1.0  0.9088776838673919  0.16689436340511987  0.33608624761215267  1.0000
  H   H10       1.0  0.9072850465498136  0.7498259895006646  0.33635189645367003  1.0000
  H   H11       1.0  0.8975408080874149  0.9305069817478456  0.6991645189136955  1.0000
  H   H12       1.0  0.9016259623195777  0.4932744826474577  0.5787708405665151  1.0000
  H   H13       1.0  0.9595020073794684  0.08008018266901917  0.9399125952326206  1.0000
  H   H14       1.0  0.7787735030044132  0.3501000352605188  0.8810135580120955  1.0000
  H   H15       1.0  0.7208043254274596  0.2686469336953474  0.09260223774084242  1.0000
  H   H16       1.0  0.7800727768930588  0.09361241259233366  0.22836806464125473  1.0000
  C   C29       1.0  0.9023590796986785  0.4439067057026149  0.14469090273809337  1.0000
  C   C30       1.0  0.960196532989605  0.5384242360662781  0.13359662609787537  1.0000
  C   C31       1.0  0.9887846090595602  0.5871623006508586  0.010770995297329167  1.0000
  C   C32       1.0  0.960074872570678  0.5381835415771417  0.8983768711970277  1.0000
  C   C33       1.0  0.9023079507493287  0.4436207775825176  0.9074667317473804  1.0000
  C   C34       1.0  0.8736496396899837  0.39727756698989425  0.03109272823828957  1.0000
  C   C35       1.0  0.05039630751691425  0.6859795451303095  0.9989690452657799  1.0000
  O   O2        1.0  0.09840503960507818  0.6824619600180157  0.9071052964049389  1.0000
  C   C36       1.0  0.0575339398685799  0.7887987755795877  0.09130011387367509  1.0000
  C   C37       1.0  0.12897999732004517  0.8370972425505524  0.1197583919667804  1.0000
  C   C38       1.0  0.13627005258364933  0.9352864879129716  0.20567101224423134  1.0000
  C   C39       1.0  0.2096397289257308  0.9834224034516553  0.23507108749637773  1.0000
  N   N4        1.0  0.26862068237656533  0.022112639476262075  0.2587016725162963  1.0000
  C   C40       1.0  0.07212112618836919  0.9865777205875544  0.2628587676256613  1.0000
  C   C41       1.0  0.0009255473305613845  0.9402969980592285  0.23388861577295494  1.0000
  C   C42       1.0  0.9934861070188062  0.8423741050357533  0.14825857831220746  1.0000
  H   H17       1.0  0.7940029353349534  0.26409662251326615  0.3730248363543007  1.0000
  H   H18       1.0  0.9836544921924266  0.5731960357558907  0.22070352552954065  1.0000
  H   H19       1.0  0.9824404935864861  0.5749633293557137  0.8036067423291668  1.0000
  H   H20       1.0  0.8290614388621772  0.3244107940672314  0.038841774270894636  1.0000
  H   H21       1.0  0.8805496473507645  0.4065048681051478  0.5835432901930351  1.0000
  H   H22       1.0  0.17892007422257739  0.7975914624472882  0.07604678821179545  1.0000
  H   H23       1.0  0.07714053579588254  0.06257789611371267  0.32933148893492703  1.0000
  H   H24       1.0  0.9513598586553703  0.9807905817688576  0.27743437284673145  1.0000
  H   H25       1.0  0.9376814185225342  0.8096234952928845  0.12553319436607802  1.0000
  Zn  Zn1       1.0  0.8200140197319565  0.4417634646987558  0.529899585744023  1.0000
  Zn  Zn2       1.0  0.98464584187827  0.4457631935628221  0.5222577497379806  1.0000
  C   C43       1.0  0.9023154249718687  0.43850105099206194  0.7632840415766  1.0000
  C   C44       1.0  0.9023462345729963  0.4490272895286248  0.2888733384915534  1.0000
  C   C45       1.0  0.9023544412226204  0.6809592047666764  0.5209848949331821  1.0000
  C   C46       1.0  0.9023071619795391  0.206567574050744  0.5311725564495646  1.0000
  O   O3        1.0  0.9648188415664015  0.4522580147195234  0.3343622421716288  1.0000
  O   O4        1.0  0.9647945615905785  0.4383050478730006  0.711994786987348  1.0000
  O   O5        1.0  0.9648252253972656  0.6340930523798973  0.5163365513236833  1.0000
  O   O6        1.0  0.9647881215895069  0.25647001817457804  0.5300203830666059  1.0000
  O   O7        1.0  0.8398716838399592  0.6310566387235053  0.5221369550163497  1.0000
  O   O8        1.0  0.839841020195217  0.43527019455638105  0.7177951219663739  1.0000
  O   O9        1.0  0.8398653003209602  0.44922311673324145  0.3401610156544128  1.0000
  O   O10       1.0  0.8398345803335127  0.25343511086284987  0.5358192539190303  1.0000
