data_image0
_chemical_formula_structural       NC10NC5H10C6SCOC6H10C7OC4NC3H9Zn2C4O8
_chemical_formula_sum              "N3 C46 H29 S1 O10 Zn2"
_cell_length_a       19.4436361288709
_cell_length_b       10.302038109246572
_cell_length_c       10.299375074045738
_cell_angle_alpha    85.54623755187913
_cell_angle_beta     89.69773134605877
_cell_angle_gamma    89.43651638143119

_space_group_name_H-M_alt    "P 1"
_space_group_IT_number       1

loop_
  _space_group_symop_operation_xyz
  'x, y, z'

loop_
  _atom_site_type_symbol
  _atom_site_label
  _atom_site_symmetry_multiplicity
  _atom_site_fract_x
  _atom_site_fract_y
  _atom_site_fract_z
  _atom_site_occupancy
  N   N1        1.0  0.6479721436814643  0.40951578345274525  0.5622302350508781  1.0000
  C   C1        1.0  0.5891378421666122  0.4194072132081048  0.5766163750026736  1.0000
  C   C2        1.0  0.5158105957810131  0.43174312212421184  0.5946113950234613  1.0000
  C   C3        1.0  0.4736216568255021  0.3998069948018726  0.49992828541894146  1.0000
  C   C4        1.0  0.3977187109597651  0.410239744615394  0.5052581623434897  1.0000
  C   C5        1.0  0.3579748971076625  0.38543803712094316  0.6123322285398329  1.0000
  C   C6        1.0  0.2818550535042141  0.3893609429358318  0.5993727872967294  1.0000
  C   C7        1.0  0.24130135169720224  0.4469556821123881  0.6931565791910188  1.0000
  C   C8        1.0  0.16963860210051604  0.4505984399786657  0.682612694313947  1.0000
  C   C9        1.0  0.1375347315307653  0.39625038412656144  0.5785714999769498  1.0000
  C   C10       1.0  0.06374274809598458  0.3999544570782072  0.5678723344640908  1.0000
  N   N2        1.0  0.0044189984476137  0.4029323372824571  0.5592709147413808  1.0000
  C   C11       1.0  0.1773634230583382  0.337948513528066  0.48517085774434027  1.0000
  C   C12       1.0  0.2490425937797355  0.33425168581410714  0.49546294478927844  1.0000
  C   C13       1.0  0.3861003780164096  0.34491386230966636  0.7434273612988225  1.0000
  C   C14       1.0  0.44477091999968804  0.3879987224160588  0.7906785435106568  1.0000
  C   C15       1.0  0.48899495417409994  0.48587449665008897  0.7163218706801853  1.0000
  H   H1        1.0  0.4957162596509432  0.3707475732004708  0.4096127230463471  1.0000
  H   H2        1.0  0.3730244674612851  0.4327810058449239  0.41209853420070247  1.0000
  H   H3        1.0  0.2651786154881302  0.4901907032454769  0.774015273205868  1.0000
  H   H4        1.0  0.13930097381555692  0.49586112612001076  0.755543830325242  1.0000
  H   H5        1.0  0.1530143076731121  0.29490891468022906  0.40464669203107984  1.0000
  H   H6        1.0  0.2787142293205309  0.28674577178399563  0.4232278453695322  1.0000
  H   H7        1.0  0.3551239206248786  0.2806766187915311  0.807667970344597  1.0000
  H   H8        1.0  0.4599147170314832  0.3538850643033864  0.888612786783164  1.0000
  H   H9        1.0  0.458901162100236  0.5765806043636055  0.691082091278689  1.0000
  H   H10       1.0  0.532283999579086  0.5114189039022765  0.7794137332156439  1.0000
  C   C16       1.0  0.8261337207648997  0.024946784357823493  0.5607109516940922  1.0000
  C   C17       1.0  0.7673412521609626  0.030832251508170046  0.48167613441595475  1.0000
  C   C18       1.0  0.7384121121540399  0.9167963119966313  0.4418650651931293  1.0000
  C   C19       1.0  0.7675624763213237  0.7956955876340635  0.4816202893534427  1.0000
  C   C20       1.0  0.826264019601464  0.7874912407405119  0.5608014481764232  1.0000
  C   C21       1.0  0.8552823153100687  0.9027751429615939  0.5998508547494643  1.0000
  S   S1        1.0  0.6637854468441762  0.925748326309855  0.33987121916466134  1.0000
  C   C22       1.0  0.7143603534552028  0.9333639889412513  0.19302319682991054  1.0000
  O   O1        1.0  0.7309470447843626  0.8278074025568518  0.1465334921403576  1.0000
  C   C23       1.0  0.7370475270941892  0.059135871658730466  0.12733453123956484  1.0000
  C   C24       1.0  0.7856813177486491  0.06061520904180684  0.025419956747950508  1.0000
  C   C25       1.0  0.8077898541731676  0.1785663507411792  0.9635107128875693  1.0000
  C   C26       1.0  0.7816367381934551  0.2962717647925861  0.0022307304020341427  1.0000
  C   C27       1.0  0.7332098746316964  0.29626169956609183  0.10279048588509232  1.0000
  C   C28       1.0  0.7108720685547382  0.17861830918094124  0.16502181924907644  1.0000
  H   H11       1.0  0.9368709731823659  0.22115880318316106  0.7098517484769122  1.0000
  H   H12       1.0  0.7439433563738634  0.12379828505955381  0.4505932709573286  1.0000
  H   H13       1.0  0.7443861888356489  0.7083841791614941  0.45004703443092214  1.0000
  H   H14       1.0  0.9006074629230731  0.8973175437579166  0.6607781018368988  1.0000
  H   H15       1.0  0.84870230038658  0.45705533088469713  0.590583002872489  1.0000
  H   H16       1.0  0.8069591577522292  0.970669553529915  0.9939444111292493  1.0000
  H   H17       1.0  0.8453127220466945  0.17865619572000102  0.8854983153668403  1.0000
  H   H18       1.0  0.7988312562561218  0.3874767376275636  0.9542116750596845  1.0000
  H   H19       1.0  0.7128335445765371  0.38757425875509544  0.13249781885173983  1.0000
  H   H20       1.0  0.6729463732923461  0.1819240413761005  0.24190517541834458  1.0000
  C   C29       1.0  0.8262222624348098  0.4063608960813325  0.17936924823296563  1.0000
  C   C30       1.0  0.8791798139269651  0.49847141903236286  0.17049725927795922  1.0000
  C   C31       1.0  0.90535599146453  0.5460192506456254  0.04876960658514706  1.0000
  C   C32       1.0  0.879068415122112  0.49823579781329297  0.9352728393826082  1.0000
  C   C33       1.0  0.826175431892732  0.40607714486871016  0.9421431589239329  1.0000
  C   C34       1.0  0.799935137247975  0.36092648148216555  0.06466790563683555  1.0000
  C   C35       1.0  0.9617692019902909  0.6422728689769102  0.039335388565648  1.0000
  O   O2        1.0  0.005721037684391696  0.6367771987799475  0.9493349957481634  1.0000
  C   C36       1.0  0.9683115856960205  0.7447729444090501  0.1319198926185099  1.0000
  C   C37       1.0  0.03372431023830869  0.7901146626624214  0.1631389728779411  1.0000
  C   C38       1.0  0.04040588331378259  0.8879795930924858  0.24931199919837074  1.0000
  C   C39       1.0  0.10757967294545323  0.933079507035034  0.2815475426953  1.0000
  N   N3        1.0  0.16157983112234064  0.9693291411953534  0.3074575260033199  1.0000
  C   C40       1.0  0.9816813168749925  0.94190262820144  0.3039993131995731  1.0000
  C   C41       1.0  0.9164980604033143  0.8985678401579513  0.27227761606176815  1.0000
  C   C42       1.0  0.9096797453461536  0.8009753551711245  0.18638131617967235  1.0000
  H   H21       1.0  0.7270082087493064  0.23106090799818643  0.4035404397376521  1.0000
  H   H22       1.0  0.9006582893528564  0.5322678386840374  0.2585062971145913  1.0000
  H   H23       1.0  0.8995470060179414  0.5340847451084938  0.8413620119384304  1.0000
  H   H24       1.0  0.7591089630016371  0.28991532527199393  0.07070374007691504  1.0000
  H   H25       1.0  0.8062528159631305  0.3698671235376576  0.617384054264992  1.0000
  H   H26       1.0  0.07944154374569301  0.7485599157376213  0.12137387116505381  1.0000
  H   H27       1.0  0.986282411336869  0.017677467696163525  0.3706494147964745  1.0000
  H   H28       1.0  0.8711236557391746  0.941094718668855  0.3138911703582479  1.0000
  H   H29       1.0  0.8585879193823781  0.7705329797647246  0.1614984045096861  1.0000
  Zn  Zn1       1.0  0.7508350065041408  0.40761246976860294  0.5613837512169071  1.0000
  Zn  Zn2       1.0  0.9015561246728001  0.40482504186023066  0.5601280790017606  1.0000
  C   C43       1.0  0.8261818829422702  0.4009583519915432  0.7979619277276696  1.0000
  C   C44       1.0  0.8262108943766507  0.4114807673768097  0.32355001644593306  1.0000
  C   C45       1.0  0.82623614853199  0.643356088617292  0.5556089335139649  1.0000
  C   C46       1.0  0.8261565770855964  0.1690814717490572  0.565903080144941  1.0000
  O   O3        1.0  0.8834049570400633  0.4121355642106849  0.3714618776321008  1.0000
  O   O4        1.0  0.8833816613751941  0.3981869825240716  0.7490966664045728  1.0000
  O   O5        1.0  0.8834247103875381  0.5939262341445748  0.553394915473358  1.0000
  O   O6        1.0  0.8833618566043736  0.216396322865559  0.5671635316136232  1.0000
  O   O7        1.0  0.769029223138847  0.5960411897159035  0.5543482990267123  1.0000
  O   O8        1.0  0.7689861743941175  0.40030349805003196  0.7500499808942918  1.0000
  O   O9        1.0  0.7690094701928222  0.4142520350716379  0.3724136306415935  1.0000
  O   O10       1.0  0.7689663697467581  0.2185127844037631  0.5681153819944762  1.0000
