data_image0
_chemical_formula_structural       NC5NC4H6C9H8C6NH7Zn2C4O8
_chemical_formula_sum              "N3 C28 H21 Zn2 O8"
_cell_length_a       13.854160002989762
_cell_length_b       9.275152443626249
_cell_length_c       9.274774538082516
_cell_angle_alpha    84.86265069898316
_cell_angle_beta     90.34967120186236
_cell_angle_gamma    90.57354205828562

_space_group_name_H-M_alt    "P 1"
_space_group_IT_number       1

loop_
  _space_group_symop_operation_xyz
  'x, y, z'

loop_
  _atom_site_type_symbol
  _atom_site_label
  _atom_site_symmetry_multiplicity
  _atom_site_fract_x
  _atom_site_fract_y
  _atom_site_fract_z
  _atom_site_occupancy
  N   N1        1.0  0.913055822181572  0.5927005392616643  0.4025495635239324  1.0000
  C   C1        1.0  0.8406537171970223  0.6184349599022485  0.34334586721015237  1.0000
  C   C2        1.0  0.7505844758232844  0.6504492829250643  0.26969420307667474  1.0000
  C   C3        1.0  0.6631052258227138  0.6203316950625217  0.3416045676984925  1.0000
  C   C4        1.0  0.5754420634544579  0.650449297460916  0.26969417982705585  1.0000
  C   C5        1.0  0.48554557521656727  0.6184348117389868  0.3433459594493076  1.0000
  N   N2        1.0  0.4132822511586323  0.5927004757460523  0.40254956365615535  1.0000
  C   C6        1.0  0.5752949184968678  0.7112908973605128  0.12589035344364685  1.0000
  C   C7        1.0  0.6627554019948583  0.7435601696450541  0.053869010908031534  1.0000
  C   C8        1.0  0.6625308982593326  0.804743151011787  0.8985616645170458  1.0000
  C   C9        1.0  0.7503720071596638  0.7112908968219016  0.1258902630624188  1.0000
  H   H1        1.0  0.6632436739258972  0.5731301492722032  0.4529064724195451  1.0000
  H   H2        1.0  0.5073433092183787  0.7335692317638067  0.07009932875700287  1.0000
  H   H3        1.0  0.7277452198809932  0.8731320303824842  0.8745116159637335  1.0000
  H   H4        1.0  0.5980367424972999  0.8731320316924511  0.8745116811196478  1.0000
  H   H5        1.0  0.6616368651847203  0.714814954749028  0.8272344337408734  1.0000
  H   H6        1.0  0.8181662687083944  0.7335693450266239  0.07009924284093727  1.0000
  C   C10       1.0  0.16033221830785482  0.16905538203407122  0.4040230840725237  1.0000
  C   C11       1.0  0.12501838460884973  0.25286226259019073  0.2814072635706041  1.0000
  C   C12       1.0  0.09866752732812631  0.1885083818578086  0.1564957697059502  1.0000
  C   C13       1.0  0.10721468369025541  0.039207958676347854  0.15172688563796077  1.0000
  C   C14       1.0  0.14063685406051737  0.9537219531146978  0.2733064434887172  1.0000
  C   C15       1.0  0.16601508153323127  0.01633444740670286  0.4010885621611145  1.0000
  C   C16       1.0  0.08054272202136213  0.9731845881413527  0.022373177904576835  1.0000
  C   C17       1.0  0.05821114666966953  0.917872198216128  0.9140597289012375  1.0000
  C   C18       1.0  0.03111618442226337  0.8507483982837404  0.7826403545730347  1.0000
  H   H7        1.0  0.3001884390872438  0.24819739243025607  0.6922678746022788  1.0000
  H   H8        1.0  0.11993203338908695  0.3693837017145215  0.2809532680779323  1.0000
  H   H9        1.0  0.07248417315004252  0.2555619362731225  0.06302003890983543  1.0000
  H   H10       1.0  0.1446845662345754  0.8374469748633376  0.26928015771597225  1.0000
  H   H11       1.0  0.2570942903221325  0.7193186775672729  0.5982383209819978  1.0000
  H   H12       1.0  0.048815900215351204  0.7339091805968232  0.7961239276658154  1.0000
  H   H13       1.0  0.9524755582661627  0.8635029914796369  0.7628816163538815  1.0000
  H   H14       1.0  0.07150209271557736  0.9039102532763293  0.6892173307053457  1.0000
  C   C19       1.0  0.16146614958433744  0.5963847022376113  0.9787267472312662  1.0000
  C   C20       1.0  0.2304314111767094  0.6815185054921402  0.045168404734398766  1.0000
  C   C21       1.0  0.30364727436908523  0.754768560756749  0.9641497946468047  1.0000
  C   C22       1.0  0.30848910829730936  0.7432170281609287  0.8152123875579238  1.0000
  C   C23       1.0  0.23985483667240934  0.6612612494357673  0.7470571606561647  1.0000
  C   C24       1.0  0.1648811337824793  0.5890050537861161  0.8263849326344589  1.0000
  N   N3        1.0  0.37371927922351944  0.8397016590817935  0.03359739247283344  1.0000
  H   H15       1.0  0.015296539422507966  0.3143709890453854  0.10562378878244183  1.0000
  H   H16       1.0  0.22873984366007094  0.6883606248457321  0.161164836832656  1.0000
  H   H17       1.0  0.36501178093690867  0.7989554345029203  0.751488573371585  1.0000
  H   H18       1.0  0.24413206450572975  0.6572483340906954  0.6308980097470247  1.0000
  H   H19       1.0  0.06349582094363981  0.4034507612132292  0.560945800361974  1.0000
  H   H20       1.0  0.37097703798599735  0.8487484985107407  0.14493598217126524  1.0000
  H   H21       1.0  0.42884116703534825  0.8943055879714463  0.974166192047814  1.0000
  Zn  Zn1       1.0  0.057410377360318725  0.5926965858874464  0.4025579205432069  1.0000
  Zn  Zn2       1.0  0.2689276657273958  0.5926925205147728  0.40255310077794504  1.0000
  C   C25       1.0  0.16419493358583792  0.5846527966024584  0.6661792918350213  1.0000
  C   C26       1.0  0.16214543204365328  0.6007381287886921  0.13893186478723152  1.0000
  C   C27       1.0  0.16491275431007407  0.8562307107297784  0.3958919228211294  1.0000
  C   C28       1.0  0.1614275278280068  0.32915848072501275  0.40921931675320655  1.0000
  O   O1        1.0  0.24264307183228073  0.6021913419108691  0.19269635845316224  1.0000
  O   O2        1.0  0.24423401251748905  0.5831954132451678  0.6124107283794757  1.0000
  O   O3        1.0  0.2448125858023619  0.8024980004301177  0.3941517604021371  1.0000
  O   O4        1.0  0.2420644260041295  0.38288876598949906  0.41095521818040587  1.0000
  O   O5        1.0  0.08427354490309531  0.802500340415744  0.39415580313479426  1.0000
  O   O6        1.0  0.08369498292914335  0.583199487170177  0.6124146881540977  1.0000
  O   O7        1.0  0.08210403498010915  0.6021953806699223  0.1926985831607384  1.0000
  O   O8        1.0  0.08152538951474674  0.382892793487996  0.4109575511321249  1.0000
