data_image0
_chemical_formula_structural       NC8NC6H8C8H10C6BrH5Zn2C4O8
_chemical_formula_sum              "N2 C32 H23 Br1 Zn2 O8"
_cell_length_a       17.457602349358154
_cell_length_b       9.275653711864159
_cell_length_c       10.302972455390005
_cell_angle_alpha    85.74330901256306
_cell_angle_beta     92.87591776842113
_cell_angle_gamma    91.13236207428555

_space_group_name_H-M_alt    "P 1"
_space_group_IT_number       1

loop_
  _space_group_symop_operation_xyz
  'x, y, z'

loop_
  _atom_site_type_symbol
  _atom_site_label
  _atom_site_symmetry_multiplicity
  _atom_site_fract_x
  _atom_site_fract_y
  _atom_site_fract_z
  _atom_site_occupancy
  N   N1        1.0  0.7142239837831446  0.6125053299065062  0.630925503919795  1.0000
  C   C1        1.0  0.6534052857919957  0.5615328497953653  0.6201879189225692  1.0000
  C   C2        1.0  0.5777442102026205  0.498129426918579  0.6068399175933117  1.0000
  C   C3        1.0  0.5189888854912675  0.5427049872656058  0.6818224909517785  1.0000
  C   C4        1.0  0.44475393566347404  0.48165262768730854  0.669094507184399  1.0000
  C   C5        1.0  0.3823950530589736  0.5287178537530652  0.7485035469927594  1.0000
  C   C6        1.0  0.30774413448990745  0.54921610764269  0.6928088719318457  1.0000
  C   C7        1.0  0.2489898451582832  0.5935875284241271  0.7678988612316286  1.0000
  C   C8        1.0  0.1728973511662305  0.6147582252634602  0.709991110865682  1.0000
  N   N2        1.0  0.1117319385156848  0.6317723846812358  0.663433413153979  1.0000
  C   C9        1.0  0.26439293927135776  0.6177305574105652  0.8991925389524907  1.0000
  C   C10       1.0  0.3382569581382909  0.5976640398349069  0.9552757459618285  1.0000
  C   C11       1.0  0.3969986262350095  0.5534924606798126  0.8806438182963385  1.0000
  C   C12       1.0  0.4305667800992744  0.375272841734729  0.5799496544482667  1.0000
  C   C13       1.0  0.48930881362645506  0.331006588017126  0.5053677130255718  1.0000
  C   C14       1.0  0.5627583635181634  0.3921836722394986  0.518645771700488  1.0000
  H   H1        1.0  0.5309084794503569  0.626163198029102  0.7486364598605797  1.0000
  H   H2        1.0  0.29548362676130596  0.5326008060380143  0.5907772258026149  1.0000
  H   H3        1.0  0.21935764788915493  0.6520072766732048  0.9580932449698663  1.0000
  H   H4        1.0  0.34999496221315723  0.6160081933290557  0.056938506979328  1.0000
  H   H5        1.0  0.45356887000075674  0.536852905014119  0.9266941163491859  1.0000
  H   H6        1.0  0.37433803160436757  0.3249548357804378  0.5691775741763214  1.0000
  H   H7        1.0  0.47789672720695026  0.248787543452468  0.43735886644576394  1.0000
  H   H8        1.0  0.6077986080808659  0.3569416719385018  0.46025364769330035  1.0000
  C   C15       1.0  0.9151343636242028  0.1988542243677066  0.6461442967152429  1.0000
  C   C16       1.0  0.8971332351492516  0.28138767678329424  0.5288864580108417  1.0000
  C   C17       1.0  0.87221631773247  0.21495296368482575  0.41608746963803583  1.0000
  C   C18       1.0  0.8664414737981773  0.06407934088611796  0.4197634511929944  1.0000
  C   C19       1.0  0.8852703305688792  0.9803985427445393  0.5345870244350208  1.0000
  C   C20       1.0  0.9108289375248305  0.04541268598494508  0.6482263931382193  1.0000
  C   C21       1.0  0.8542511921164131  0.30487034187602435  0.2909190422349406  1.0000
  C   C22       1.0  0.9260003460682812  0.3301869383989191  0.21324184369610835  1.0000
  H   H9        1.0  0.9847605874888165  0.46677285371218774  0.8317828564605916  1.0000
  H   H10       1.0  0.9008057986670681  0.39838437080569467  0.5256891498648522  1.0000
  H   H11       1.0  0.8480743759474239  0.010948260915920608  0.33310480579932955  1.0000
  H   H12       1.0  0.8817233596908468  0.8637555046688562  0.53350448558406  1.0000
  H   H13       1.0  0.9180465337846069  0.7466553019941898  0.8629042400274989  1.0000
  H   H14       1.0  0.8095358478322956  0.24982262225980847  0.23080873617501177  1.0000
  H   H15       1.0  0.8309733550387346  0.41090547139326977  0.31202639744015603  1.0000
  H   H16       1.0  0.9706989691407838  0.3885499173405822  0.2704961625366711  1.0000
  H   H17       1.0  0.9490230868969467  0.22539634143358955  0.1884104545889238  1.0000
  H   H18       1.0  0.9115345021575021  0.396544830339691  0.12144728379765701  1.0000
  C   C23       1.0  0.9129816305442572  0.6221334613571657  0.2659428049882282  1.0000
  C   C24       1.0  0.9360861894470703  0.4773764579006334  0.27636398165587117  1.0000
  C   C25       1.0  0.9475473400435737  0.40556917055850716  0.16459561615166463  1.0000
  C   C26       1.0  0.9360863190105303  0.47737640790670977  0.04128160148837967  1.0000
  C   C27       1.0  0.9129816668144035  0.6221334670607881  0.028427890040212626  1.0000
  C   C28       1.0  0.9015409206534978  0.693812900087777  0.14142283168761494  1.0000
  Br  Br1       1.0  0.9789733635600589  0.20867461694509631  0.18042459152716894  1.0000
  H   H19       1.0  0.9042855991339702  0.6766189072038791  0.5893219425887788  1.0000
  H   H20       1.0  0.9452835771455522  0.4197513382244606  0.3709959251445203  1.0000
  H   H21       1.0  0.945283879982551  0.4197514012027917  0.9559150474198179  1.0000
  H   H22       1.0  0.8837217593189307  0.8054550501429827  0.13244756069899877  1.0000
  H   H23       1.0  0.9042845238999241  0.6766183137212567  0.6962882291140171  1.0000
  Zn  Zn1       1.0  0.828936212566308  0.618061520240617  0.6403140707920845  1.0000
  Zn  Zn2       1.0  0.9970197555876894  0.6262043762363734  0.6540554462193848  1.0000
  C   C29       1.0  0.9130091610798813  0.6163910845306666  0.8842876357482735  1.0000
  C   C30       1.0  0.912948633291567  0.6278767195846746  0.41008216321596946  1.0000
  C   C31       1.0  0.9116388124693409  0.8853949536539092  0.6426590741089784  1.0000
  C   C32       1.0  0.914318933354486  0.35887111588898024  0.6517107851226103  1.0000
  O   O1        1.0  0.9767244196957698  0.6328880924673224  0.46367141346082685  1.0000
  O   O2        1.0  0.9768049001707412  0.6175588635331086  0.841127395102304  1.0000
  O   O3        1.0  0.9756974664604303  0.8347828482114269  0.6460105554039108  1.0000
  O   O4        1.0  0.9778317959981061  0.4156641153216966  0.6587881511531761  1.0000
  O   O5        1.0  0.8481241147972193  0.8286017783781062  0.6355813611622112  1.0000
  O   O6        1.0  0.8492315396964797  0.6113795254950509  0.8306981358971764  1.0000
  O   O7        1.0  0.8491510595278836  0.6267087042016859  0.45324059325299243  1.0000
  O   O8        1.0  0.8502584358795225  0.4094847167461791  0.6483574282553037  1.0000
