data_image0
_chemical_formula_structural       NC14NH8C6H6C12H10Zn2C4O8
_chemical_formula_sum              "N2 C36 H24 Zn2 O8"
_cell_length_a       17.45760127107867
_cell_length_b       10.68111822825955
_cell_length_c       14.388129018870245
_cell_angle_alpha    83.27315070133545
_cell_angle_beta     87.6665703364548
_cell_angle_gamma    89.76106141281505

_space_group_name_H-M_alt    "P 1"
_space_group_IT_number       1

loop_
  _space_group_symop_operation_xyz
  'x, y, z'

loop_
  _atom_site_type_symbol
  _atom_site_label
  _atom_site_symmetry_multiplicity
  _atom_site_fract_x
  _atom_site_fract_y
  _atom_site_fract_z
  _atom_site_occupancy
  N   N1        1.0  0.7085247546089064  0.42895311202860903  0.9217637604643347  1.0000
  C   C1        1.0  0.6477799406765415  0.39425334909826737  0.9476246282253065  1.0000
  C   C2        1.0  0.5722108099413787  0.3510878824201338  0.9797873148529184  1.0000
  C   C3        1.0  0.5128710288578885  0.3549200663611319  0.9167988211342641  1.0000
  C   C4        1.0  0.4387235697256429  0.3133051079574769  0.9476918250246391  1.0000
  C   C5        1.0  0.42521947452162756  0.26786149398369385  0.04274035672240828  1.0000
  C   C6        1.0  0.4845429424403475  0.26410414639784685  0.10536562652915893  1.0000
  C   C7        1.0  0.5579007014655496  0.3055924210135115  0.07408675572219114  1.0000
  C   C8        1.0  0.37574569281166154  0.3172548656604967  0.8810384081174263  1.0000
  C   C9        1.0  0.3015406143919712  0.3554664538852228  0.90757740360605  1.0000
  C   C10       1.0  0.2422010296463822  0.35909910197549205  0.8445996672087646  1.0000
  C   C11       1.0  0.25656893339605563  0.3245210465242465  0.7546678595957268  1.0000
  C   C12       1.0  0.32998398776933874  0.28648283816987147  0.7277268033535638  1.0000
  C   C13       1.0  0.3893073903807397  0.28281817660633296  0.7903470173835949  1.0000
  C   C14       1.0  0.1665720777236823  0.3987201051120579  0.8722467673430212  1.0000
  N   N2        1.0  0.1057793424261941  0.43057001022478936  0.8944777432867992  1.0000
  H   H1        1.0  0.5242793459984232  0.39183431310610667  0.8441525161377721  1.0000
  H   H2        1.0  0.3690650703469008  0.23367721741721906  0.06837531384013285  1.0000
  H   H3        1.0  0.4736517692154869  0.2286221761674059  0.1782792753829443  1.0000
  H   H4        1.0  0.6033959436705927  0.30220289362878067  0.1233384706785643  1.0000
  H   H5        1.0  0.29008504903528115  0.383981999984401  0.976654811250393  1.0000
  H   H6        1.0  0.21107429923208168  0.3269659362484132  0.7054676576737025  1.0000
  H   H7        1.0  0.3409203039912013  0.2594403548546464  0.6582235171769479  1.0000
  H   H8        1.0  0.4455090627297255  0.251460328696103  0.7682869434182346  1.0000
  C   C15       1.0  0.9071557693643639  0.06201135598273727  0.9081244956056114  1.0000
  C   C16       1.0  0.941760868349318  0.9836402857105762  0.9798750553231386  1.0000
  C   C17       1.0  0.9417608560802957  0.8527580497868398  0.9798750134912112  1.0000
  C   C18       1.0  0.9071557570143405  0.7975017577127136  0.9081245368035634  1.0000
  C   C19       1.0  0.8725793028804232  0.8758582404089973  0.8364332665856761  1.0000
  C   C20       1.0  0.872579315049347  0.00675049651383913  0.8364333036330722  1.0000
  H   H9        1.0  0.8721604454951378  0.3724087343932485  0.8355656525646811  1.0000
  H   H10       1.0  0.9688860226300107  0.02339197872392984  0.03611649832642818  1.0000
  H   H11       1.0  0.9688859281738101  0.7948879506331334  0.03611648832646919  1.0000
  H   H12       1.0  0.8454506117194214  0.8361524852993457  0.7801844798556998  1.0000
  H   H13       1.0  0.845450591528971  0.06457692466047275  0.7801844736527836  1.0000
  H   H14       1.0  0.872160724461543  0.5104793982594392  0.8355653809099088  1.0000
  C   C21       1.0  0.9036251231546979  0.4445279056003793  0.6342673695716579  1.0000
  C   C22       1.0  0.8752303026147964  0.5632140622072999  0.6517565329986783  1.0000
  C   C23       1.0  0.8542023742937837  0.6514356259966101  0.5778148909149166  1.0000
  C   C24       1.0  0.861178213097677  0.6225488882437913  0.485719035209774  1.0000
  C   C25       1.0  0.8893593369516807  0.5044608680446554  0.4664226279358201  1.0000
  C   C26       1.0  0.8967059355517345  0.47360527756106024  0.36843249048505416  1.0000
  C   C27       1.0  0.9241494628910164  0.5639459283683486  0.2959411133961576  1.0000
  C   C28       1.0  0.9310965097568485  0.5349183800488204  0.20373427856545057  1.0000
  C   C29       1.0  0.9106863689097159  0.4149851921391672  0.1819816901680347  1.0000
  C   C30       1.0  0.8831871043411073  0.32459905362600083  0.2543859929899601  1.0000
  C   C31       1.0  0.8762994648466962  0.3535968193657286  0.34659935930188035  1.0000
  C   C32       1.0  0.9104934670486383  0.41595863019013213  0.5413158189290046  1.0000
  H   H15       1.0  0.9697594142688567  0.1684820746386677  0.7475797025116526  1.0000
  H   H16       1.0  0.8692448957775867  0.587945092848827  0.7225580588486211  1.0000
  H   H17       1.0  0.8322002213622439  0.7424841325902103  0.5919710961115744  1.0000
  H   H18       1.0  0.8435697062921824  0.6919504037611162  0.42967652075605267  1.0000
  H   H19       1.0  0.9412368364707352  0.6566919741595749  0.3107208932226364  1.0000
  H   H20       1.0  0.9526587383188595  0.6064761809145557  0.14955907533233248  1.0000
  H   H21       1.0  0.9506535698142593  0.45516356307468026  0.945880142985513  1.0000
  H   H22       1.0  0.8667694014851441  0.23142648773164212  0.23981282902448942  1.0000
  H   H23       1.0  0.8540079642375658  0.2825416398168439  0.4006892421386046  1.0000
  H   H24       1.0  0.9332850066939709  0.3254335114621767  0.526945096969454  1.0000
  Zn  Zn1       1.0  0.8231639142865455  0.429416073803604  0.9138949804210892  1.0000
  Zn  Zn2       1.0  0.9911402577847561  0.43009639952066675  0.9023541274507185  1.0000
  C   C33       1.0  0.9093499514421677  0.415580454714352  0.07845205057155302  1.0000
  C   C34       1.0  0.9049560561055936  0.4439336012054421  0.7377970228069513  1.0000
  C   C35       1.0  0.9071038955344335  0.6586788215783984  0.9044085618329046  1.0000
  C   C36       1.0  0.9072020553357835  0.20083372684424058  0.9118405652031594  1.0000
  O   O1        1.0  0.9691488763037973  0.4439868638712046  0.768162826630876  1.0000
  O   O2        1.0  0.972647285790127  0.4160426132701447  0.03932673792518128  1.0000
  O   O3        1.0  0.9708327204123749  0.612347563127332  0.898785448423457  1.0000
  O   O4        1.0  0.9709633834611273  0.2476819265118928  0.9087040501469517  1.0000
  O   O5        1.0  0.8433407312880289  0.6118305465818441  0.9075450616582768  1.0000
  O   O6        1.0  0.8451552960211803  0.4155271039912776  0.0480863014358627  1.0000
  O   O7        1.0  0.8416568721307052  0.44347137142961945  0.7769212689120684  1.0000
  O   O8        1.0  0.8434713801863117  0.24716642134189828  0.9174625623472146  1.0000
