data_image0
_chemical_formula_structural       NC9NC5H8C7OC6H10C7OC6H10Zn2C4O8
_chemical_formula_sum              "N2 C44 H28 O10 Zn2"
_cell_length_a       17.807436237873137
_cell_length_b       10.299379429549807
_cell_length_c       10.299382801718286
_cell_angle_alpha    85.54943384292815
_cell_angle_beta     89.37299496534969
_cell_angle_gamma    88.38769231292811

_space_group_name_H-M_alt    "P 1"
_space_group_IT_number       1

loop_
  _space_group_symop_operation_xyz
  'x, y, z'

loop_
  _atom_site_type_symbol
  _atom_site_label
  _atom_site_symmetry_multiplicity
  _atom_site_fract_x
  _atom_site_fract_y
  _atom_site_fract_z
  _atom_site_occupancy
  N   N1        1.0  0.7076656903274031  0.3875568050642171  0.5565811684714126  1.0000
  C   C1        1.0  0.6470810942318285  0.3523628330625318  0.5455708497959997  1.0000
  C   C2        1.0  0.571720515501836  0.3085854076520518  0.5318752088303229  1.0000
  C   C3        1.0  0.5536513443716181  0.23714562337324033  0.42689942886278076  1.0000
  C   C4        1.0  0.480480129637076  0.19452959773903278  0.413519258339762  1.0000
  C   C5        1.0  0.4243293820874273  0.22297579790972044  0.5050825625845259  1.0000
  C   C6        1.0  0.3465672243783617  0.1778008777221229  0.4909449366767815  1.0000
  C   C7        1.0  0.2843839914018812  0.2595669724284988  0.5168522568143419  1.0000
  C   C8        1.0  0.21107047349795288  0.21674789927378435  0.5034858463739349  1.0000
  C   C9        1.0  0.1478370208918922  0.30120557729668157  0.5297560262561286  1.0000
  N   N2        1.0  0.09701031355899069  0.3691037075208677  0.5508765266588402  1.0000
  C   C10       1.0  0.19935665429075075  0.09190473114716814  0.46418686609736115  1.0000
  C   C11       1.0  0.2606825193983434  0.01012478168310827  0.43827116158873825  1.0000
  C   C12       1.0  0.3338766537639074  0.05254925081083782  0.4514351855964136  1.0000
  C   C13       1.0  0.4430899037959238  0.2949100207588098  0.6102773815660054  1.0000
  C   C14       1.0  0.5163140246695501  0.337335610314651  0.6235019742762351  1.0000
  H   H1        1.0  0.5960608889168284  0.2146450784514493  0.3551949412062179  1.0000
  H   H2        1.0  0.4675850852818739  0.14082796229210165  0.33061911730026444  1.0000
  H   H3        1.0  0.2928736562258656  0.35704327703763306  0.5456916065911956  1.0000
  H   H4        1.0  0.1428944541079081  0.0578645952559953  0.4536051414309821  1.0000
  H   H5        1.0  0.2514947288241704  0.9134683911666166  0.40823107401571757  1.0000
  H   H6        1.0  0.3805226641726849  0.9867965998142815  0.43241221136638064  1.0000
  H   H7        1.0  0.4013969960298114  0.3168717367975776  0.6832765855139216  1.0000
  H   H8        1.0  0.5297375975143389  0.39225770077132016  0.7053600074328306  1.0000
  C   C15       1.0  0.9023497574826063  0.9969378383987542  0.5538827628449081  1.0000
  C   C16       1.0  0.947868397116535  0.9849136118981981  0.6649610471358416  1.0000
  C   C17       1.0  0.9701223148003942  0.8616432298600231  0.7218472102880376  1.0000
  C   C18       1.0  0.9477770077931155  0.7496958170630404  0.664686104766119  1.0000
  C   C19       1.0  0.9023334244789303  0.759712382283296  0.5535860956900609  1.0000
  C   C20       1.0  0.8797201858986652  0.8838028217514782  0.49902838259735366  1.0000
  C   C21       1.0  0.01883921737371707  0.848832285623343  0.8383304773743592  1.0000
  O   O1        1.0  0.06649779470307227  0.7557894690819325  0.8499883455552357  1.0000
  C   C22       1.0  0.013486328939218419  0.9414717677087501  0.9415932868821216  1.0000
  C   C23       1.0  0.0777329684653274  0.9679054725379419  0.012214343534312172  1.0000
  C   C24       1.0  0.07306043036290855  0.05390569154059155  0.11077471025504082  1.0000
  C   C25       1.0  0.004236454688334225  0.11346683172084382  0.14054122690916748  1.0000
  C   C26       1.0  0.9398741960491124  0.0867301754280374  0.07216595485452461  1.0000
  C   C27       1.0  0.944245061689061  0.0008238900397146167  0.9735223415729317  1.0000
  H   H9        1.0  0.8174015792749593  0.2269934555580786  0.34309678915102126  1.0000
  H   H10       1.0  0.9667578589256219  0.07161445875590357  0.7065211236735163  1.0000
  H   H11       1.0  0.9653553138754005  0.6545697358758559  0.7078655859381862  1.0000
  H   H12       1.0  0.8446290988545944  0.8922684844978861  0.4133947863857621  1.0000
  H   H13       1.0  0.8853990468748199  0.4361278692131479  0.5102667935802099  1.0000
  H   H14       1.0  0.13163177416869987  0.922901682721684  0.990377378073043  1.0000
  H   H15       1.0  0.12284969133487288  0.07432661864885515  0.16414106023958785  1.0000
  H   H16       1.0  0.0007220693991931745  0.17991867449933438  0.21693342406903104  1.0000
  H   H17       1.0  0.8864584138558899  0.1321502063742772  0.09599566094686829  1.0000
  H   H18       1.0  0.893417662970778  0.9797678890773996  0.9233309355769298  1.0000
  C   C28       1.0  0.9024165323377178  0.3782483256649611  0.1723635760746196  1.0000
  C   C29       1.0  0.9813422417618523  0.37537114151767814  0.16990318319056644  1.0000
  C   C30       1.0  0.02115016331553643  0.37243180455930364  0.051604694017308494  1.0000
  C   C31       1.0  0.9811591702448561  0.3754078566282944  0.9346602859125858  1.0000
  C   C32       1.0  0.9022666152472603  0.3784018952135877  0.9351052497755378  1.0000
  C   C33       1.0  0.8633529361139268  0.3794600197610081  0.054516145988717124  1.0000
  C   C34       1.0  0.10448542371103531  0.37077790814672734  0.048754299126272826  1.0000
  O   O2        1.0  0.137585434655995  0.42992159136721897  0.9537188400197191  1.0000
  C   C35       1.0  0.15027056339240308  0.3020207790750109  0.15361554635678343  1.0000
  C   C36       1.0  0.22088282676457208  0.34913687152271256  0.18366272836631728  1.0000
  C   C37       1.0  0.26483562406285466  0.28411611770642065  0.28129764742271113  1.0000
  C   C38       1.0  0.23909620429443557  0.1710257085097873  0.3490832053857875  1.0000
  C   C39       1.0  0.16948017899076162  0.12241535064530229  0.31899897099077235  1.0000
  C   C40       1.0  0.12531337548562327  0.18706751257700313  0.22146939562249113  1.0000
  H   H19       1.0  0.7534718608845902  0.38568981803700464  0.3841704668446076  1.0000
  H   H20       1.0  0.011948002972674177  0.3768712239336587  0.260052450465691  1.0000
  H   H21       1.0  0.011772703157427514  0.37412828174850365  0.8432601940823785  1.0000
  H   H22       1.0  0.8025071608014084  0.38167891071317595  0.05560868791326112  1.0000
  H   H23       1.0  0.87195955158565  0.3806571170008213  0.6077339447676988  1.0000
  H   H24       1.0  0.24173832309169827  0.43682670821308106  0.13238716579500576  1.0000
  H   H25       1.0  0.31891289491272223  0.3214392189234705  0.30436248743446415  1.0000
  H   H26       1.0  0.2732252026989958  0.12077801791301601  0.42454547695129063  1.0000
  H   H27       1.0  0.14984754863534322  0.03421162030636893  0.37088555585501015  1.0000
  H   H28       1.0  0.07213826702743353  0.14641929013009825  0.19820639366230397  1.0000
  Zn  Zn1       1.0  0.8200221356905953  0.3822281757359769  0.5549424442497644  1.0000
  Zn  Zn2       1.0  0.984653848127284  0.3744217521765694  0.5525259316642575  1.0000
  C   C41       1.0  0.9022934103091864  0.37319894401737314  0.7909328114068284  1.0000
  C   C42       1.0  0.9023843712217254  0.38345253739481944  0.3165356649487212  1.0000
  C   C43       1.0  0.9023336577203047  0.6155308908451609  0.5484670378447081  1.0000
  C   C44       1.0  0.9023440676531261  0.1411190328466687  0.5590015091812806  1.0000
  O   O3        1.0  0.9648504546631086  0.3822309552469154  0.3640040832743823  1.0000
  O   O4        1.0  0.9647789873831798  0.3684946514542939  0.74162994247618  1.0000
  O   O5        1.0  0.9648106451931046  0.5641808034312322  0.5458371266764852  1.0000
  O   O6        1.0  0.9648187406944688  0.18654481520496694  0.5597968025198918  1.0000
  O   O7        1.0  0.8398571869426884  0.5701051153729408  0.5476715742119356  1.0000
  O   O8        1.0  0.8398255291095219  0.37442052378172597  0.7434643201589965  1.0000
  O   O9        1.0  0.8398969967472211  0.3881567819988896  0.3658368995654269  1.0000
  O   O10       1.0  0.8398652827565742  0.19247063268731246  0.5616297161829276  1.0000
