data_image0
_chemical_formula_structural       NC12NC2H8C12SCH12C16H9Zn2C4O8
_chemical_formula_sum              "N2 C47 H29 S1 Zn2 O8"
_cell_length_a       17.80743265337812
_cell_length_b       10.299776766347529
_cell_length_c       10.299151387937775
_cell_angle_alpha    85.58705518708118
_cell_angle_beta     91.52310795489359
_cell_angle_gamma    89.41689066054833

_space_group_name_H-M_alt    "P 1"
_space_group_IT_number       1

loop_
  _space_group_symop_operation_xyz
  'x, y, z'

loop_
  _atom_site_type_symbol
  _atom_site_label
  _atom_site_symmetry_multiplicity
  _atom_site_fract_x
  _atom_site_fract_y
  _atom_site_fract_z
  _atom_site_occupancy
  N   N1        1.0  0.7073101523619875  0.4060151005707411  0.6014006535590374  1.0000
  C   C1        1.0  0.6564921933940563  0.43554127466571874  0.5327039831856955  1.0000
  C   C2        1.0  0.593269637127629  0.47226969373403366  0.4472539730349201  1.0000
  C   C3        1.0  0.6049998199034906  0.5262302470921048  0.3206380160489768  1.0000
  C   C4        1.0  0.5436846408104212  0.5614562165707513  0.23758390015348646  1.0000
  C   C5        1.0  0.47048499747702693  0.542984783891757  0.280485858272443  1.0000
  C   C6        1.0  0.45777801343514984  0.4889056494927933  0.4075699465144884  1.0000
  C   C7        1.0  0.5199505097832343  0.45368292609231237  0.49060755108713744  1.0000
  C   C8        1.0  0.3800100649319755  0.46932144783895446  0.45333211589908995  1.0000
  C   C9        1.0  0.3612057477323025  0.49656782432321805  0.5803754895995992  1.0000
  C   C10       1.0  0.2879761463559924  0.4781379839440114  0.6233180114711887  1.0000
  C   C11       1.0  0.23260785321758362  0.43220789373201596  0.5400551064182826  1.0000
  C   C12       1.0  0.15724160480359572  0.4132258945838063  0.5843985149499116  1.0000
  N   N2        1.0  0.0966524782117602  0.3979656438659551  0.6200475648780266  1.0000
  C   C13       1.0  0.2507206526250751  0.40479286301425454  0.4135546880553375  1.0000
  C   C14       1.0  0.32389742268524935  0.423237367471007  0.37035628357712147  1.0000
  H   H1        1.0  0.6614662688528191  0.5410376044635674  0.28620206419771166  1.0000
  H   H2        1.0  0.5528849094565531  0.6035066866668755  0.13980779290922696  1.0000
  H   H3        1.0  0.4238468534371798  0.5725890400543493  0.214897089209946  1.0000
  H   H4        1.0  0.5114489022787972  0.4102470958127229  0.5882591668655068  1.0000
  H   H5        1.0  0.4028682510248679  0.5337779963380853  0.6459488851637802  1.0000
  H   H6        1.0  0.27451845140819114  0.5000299059746547  0.7213261622037311  1.0000
  H   H7        1.0  0.20834098496840311  0.3688501621262326  0.34839428441308096  1.0000
  H   H8        1.0  0.33682698583521564  0.39981005026752037  0.2726514107890987  1.0000
  C   C15       1.0  0.9020557468679216  0.02062370649652402  0.6107260597041696  1.0000
  C   C16       1.0  0.9065545521833321  0.00902855643220659  0.7474553494988063  1.0000
  C   C17       1.0  0.9087618014851211  0.8860160783435526  0.8167390633590255  1.0000
  C   C18       1.0  0.9064108985119949  0.7737437566411504  0.7474636597789994  1.0000
  C   C19       1.0  0.9019140997223561  0.7833469173836831  0.6107337167016803  1.0000
  C   C20       1.0  0.89976127321897  0.907225562720188  0.5431302724455414  1.0000
  C   C21       1.0  0.9135127507714844  0.8748137951851419  0.9613828281575443  1.0000
  C   C22       1.0  0.8705080857787203  0.7822748048746758  0.033365847916742464  1.0000
  C   C23       1.0  0.8750018481252634  0.771966133387958  0.16949030743452054  1.0000
  C   C24       1.0  0.9223127587453133  0.85392254979464  0.23542943782403933  1.0000
  C   C25       1.0  0.9654965471810656  0.9458846497767184  0.16482806102514258  1.0000
  C   C26       1.0  0.9611129460371082  0.9565409279567609  0.028698462487775293  1.0000
  S   S1        1.0  0.9281617189665713  0.8402328555619408  0.4100998152635271  1.0000
  C   C27       1.0  0.852667404872196  0.9578640100459302  0.4260128519145634  1.0000
  H   H9        1.0  0.9003710536865366  0.3524948559279473  0.5586274091635506  1.0000
  H   H10       1.0  0.907316390697301  0.09586701696542989  0.8004501417518112  1.0000
  H   H11       1.0  0.9091316021033284  0.678696825420622  0.8003561321806943  1.0000
  H   H12       1.0  0.8962911498545787  0.9154022290674447  0.4376494636772863  1.0000
  H   H13       1.0  0.9001631078777855  0.4595531653867165  0.5586365566639373  1.0000
  H   H14       1.0  0.8326952055715371  0.7190719076061828  0.984440760939018  1.0000
  H   H15       1.0  0.8414072608214485  0.7006227478496133  0.22360282270917725  1.0000
  H   H16       1.0  0.0025096814045697537  0.009160651230202935  0.2153037793000658  1.0000
  H   H17       1.0  0.9956555532114902  0.02749638041547486  0.9760443929837826  1.0000
  H   H18       1.0  0.8677122599301923  0.05386131419843321  0.37785576542624577  1.0000
  H   H19       1.0  0.8439501818621454  0.9687696300295345  0.5308745808875535  1.0000
  H   H20       1.0  0.7998084142803481  0.9234059304551123  0.38135919536130447  1.0000
  C   C28       1.0  0.9020284820273281  0.40181566823814396  0.22936098177691822  1.0000
  C   C29       1.0  0.8295327345323407  0.4572669263712286  0.22098147780947425  1.0000
  C   C30       1.0  0.7927310521272624  0.4855567263762557  0.09957479673008193  1.0000
  C   C31       1.0  0.829401974891493  0.4576472197816564  0.9856628882251977  1.0000
  C   C32       1.0  0.9019413292605355  0.4021549161938181  0.992098790750658  1.0000
  C   C33       1.0  0.937808750052622  0.3745826934322143  0.11435308602808303  1.0000
  C   C34       1.0  0.71603933112302  0.5442177528279724  0.09175570394308917  1.0000
  C   C35       1.0  0.6969388039042941  0.6444238626307263  0.9955380250733854  1.0000
  C   C36       1.0  0.624744181682178  0.6995966647404845  0.9883063734152077  1.0000
  C   C37       1.0  0.5707030009402505  0.6553913802746336  0.07694531523755344  1.0000
  C   C38       1.0  0.5891225397309018  0.5557576821952643  0.17296829706937933  1.0000
  C   C39       1.0  0.6612956249965791  0.5004977334853717  0.18044848054839613  1.0000
  C   C40       1.0  0.4963889806096847  0.7122377063642755  0.06937282389856092  1.0000
  C   C41       1.0  0.4341520372119212  0.7598456467018264  0.0630308841383822  1.0000
  C   C42       1.0  0.3612732236525804  0.8155941166222868  0.055604537171471506  1.0000
  C   C43       1.0  0.2990463378229212  0.8631946011517422  0.04926372880037477  1.0000
  H   H21       1.0  0.9298974884824778  0.3804245049918389  0.5600637762461848  1.0000
  H   H22       1.0  0.8019248653570188  0.4802318328552515  0.3089635253570251  1.0000
  H   H23       1.0  0.8008918764229569  0.47761544068626144  0.8919249193586065  1.0000
  H   H24       1.0  0.9937256747773302  0.3318081779359232  0.12010089495657005  1.0000
  H   H25       1.0  0.0386669525801584  0.2966616727540876  0.7970030510484909  1.0000
  H   H26       1.0  0.7381172540226368  0.6812741070218733  0.9269644964109481  1.0000
  H   H27       1.0  0.6111435437143221  0.776926203516658  0.913804017665631  1.0000
  H   H28       1.0  0.6740085896372758  0.42242491866965737  0.25451529107111615  1.0000
  H   H29       1.0  0.2444059943687797  0.9049916942730929  0.04369598290532516  1.0000
  Zn  Zn1       1.0  0.8196659404724236  0.4036887373149993  0.6067892362675307  1.0000
  Zn  Zn2       1.0  0.9842966883648248  0.40028141843899756  0.6146695751139947  1.0000
  C   C44       1.0  0.9019570954568317  0.39691721697470306  0.8479248644325951  1.0000
  C   C45       1.0  0.9020073308241385  0.40705454023782073  0.3735341604848299  1.0000
  C   C46       1.0  0.901937578318179  0.6391737791868064  0.6055568937322803  1.0000
  C   C47       1.0  0.9020267920677294  0.16479641892608488  0.615902197719146  1.0000
  O   O1        1.0  0.9644767441843175  0.40751402807550813  0.4249105437642551  1.0000
  O   O2        1.0  0.9644386106754703  0.3938706730672634  0.8025291021431866  1.0000
  O   O3        1.0  0.9644220079716505  0.5894959288376873  0.6068152107079985  1.0000
  O   O4        1.0  0.9644932907202143  0.21188878271462075  0.6206243351358474  1.0000
  O   O5        1.0  0.8394692819366402  0.592081374203538  0.6008344735496743  1.0000
  O   O6        1.0  0.8394858843551273  0.3964576786969072  0.7965482957548569  1.0000
  O   O7        1.0  0.8395240181007352  0.4101009877538555  0.41892817597726  1.0000
  O   O8        1.0  0.8395405646241609  0.21447573314759283  0.6146420647164443  1.0000
