data_image0
_chemical_formula_structural       NC12NC2H8C6ClH5C7OH5Zn2C4O8
_chemical_formula_sum              "N2 C31 H18 Cl1 O9 Zn2"
_cell_length_a       19.240039667572717
_cell_length_b       10.30297070629231
_cell_length_c       9.274074313596557
_cell_angle_alpha    86.12141784095925
_cell_angle_beta     90.2336027468708
_cell_angle_gamma    89.99831201696266

_space_group_name_H-M_alt    "P 1"
_space_group_IT_number       1

loop_
  _space_group_symop_operation_xyz
  'x, y, z'

loop_
  _atom_site_type_symbol
  _atom_site_label
  _atom_site_symmetry_multiplicity
  _atom_site_fract_x
  _atom_site_fract_y
  _atom_site_fract_z
  _atom_site_occupancy
  N   N1        1.0  0.6513306160787609  0.40678833009630405  0.41022595720533883  1.0000
  C   C1        1.0  0.5911822470814683  0.4067884132481712  0.4102258662758038  1.0000
  C   C2        1.0  0.5163642096390206  0.40678852915151636  0.4102257139009058  1.0000
  C   C3        1.0  0.4801170359186466  0.34335672558573  0.5249889424520899  1.0000
  C   C4        1.0  0.4074464782954684  0.34324672736987316  0.5250849816779664  1.0000
  C   C5        1.0  0.3700319742036915  0.40678861945699474  0.4102254612251468  1.0000
  C   C6        1.0  0.4069931489204653  0.4703307003763735  0.2953661566805774  1.0000
  C   C7        1.0  0.47966402813186204  0.4702204679360496  0.2954623318465135  1.0000
  C   C8        1.0  0.2928268835572083  0.40678853988631386  0.4102253553300521  1.0000
  C   C9        1.0  0.2557321654717467  0.2939739918839639  0.4566880667042213  1.0000
  C   C10       1.0  0.1830612762417523  0.29407996349947013  0.4565867191676716  1.0000
  C   C11       1.0  0.1464945967688746  0.4067884113512339  0.41022542292201747  1.0000
  C   C12       1.0  0.07167656015800439  0.4067883000802135  0.41022569887906624  1.0000
  N   N2        1.0  0.011528243761082396  0.40678826131108964  0.4102259301797264  1.0000
  C   C13       1.0  0.1828754280360723  0.519496934488382  0.36386406798198867  1.0000
  C   C14       1.0  0.2555459230506695  0.5196030845748292  0.36376254000720065  1.0000
  H   H1        1.0  0.5080087713720435  0.29425307778315246  0.6145928303724209  1.0000
  H   H2        1.0  0.3805324612924634  0.29495183596190455  0.6159268888112692  1.0000
  H   H3        1.0  0.3797206350240236  0.5186256183301048  0.20452419311723435  1.0000
  H   H4        1.0  0.5072020647445955  0.5193240182093919  0.20585874999768006  1.0000
  H   H5        1.0  0.28289481093196084  0.2051523091917078  0.49127361080437093  1.0000
  H   H6        1.0  0.15541804321832864  0.20616729149092805  0.49231868466201917  1.0000
  H   H7        1.0  0.15508883764382347  0.6074095821104073  0.3281321186345003  1.0000
  H   H8        1.0  0.2825697563087824  0.6084248459799362  0.32917694622350213  1.0000
  C   C15       1.0  0.8314327677990229  0.025540914716944977  0.41023214110816664  1.0000
  C   C16       1.0  0.9032556549793941  0.022643141178106067  0.43799278808754183  1.0000
  C   C17       1.0  0.9388922544171017  0.904248498490753  0.45176677942852295  1.0000
  C   C18       1.0  0.9032556542912424  0.7875351719092494  0.4379927203041194  1.0000
  C   C19       1.0  0.8314327753786503  0.7880258572586658  0.4102322236133664  1.0000
  C   C20       1.0  0.7958714358707383  0.9076222879505845  0.39648718910043623  1.0000
  Cl  Cl1       1.0  0.02861615254469263  0.9021320049923253  0.4864463422642695  1.0000
  H   H9        1.0  0.8043783425444097  0.3539355664507251  0.3997743846858892  1.0000
  H   H10       1.0  0.9318213624690688  0.11201588963309406  0.4490337483172473  1.0000
  H   H11       1.0  0.9318213347796301  0.6968146958899945  0.44903364476686525  1.0000
  H   H12       1.0  0.7404794456133537  0.9089288113164443  0.3750772992691578  1.0000
  H   H13       1.0  0.8043783396899906  0.46090760217901894  0.3997746568014622  1.0000
  C   C21       1.0  0.8306005875153388  0.4030441654617179  0.986990979135685  1.0000
  C   C22       1.0  0.7700000765974215  0.44137294220826223  0.05687984390682166  1.0000
  C   C23       1.0  0.7128221204085071  0.49013541645074066  0.9776976238358732  1.0000
  C   C24       1.0  0.7149071769478411  0.5018661294734659  0.8264176222507555  1.0000
  C   C25       1.0  0.7745692573692313  0.4619699494890018  0.7553888716476123  1.0000
  C   C26       1.0  0.8322649466603403  0.4105225303206348  0.8334733850941372  1.0000
  C   C27       1.0  0.6551214338079914  0.5541988357722258  0.7410269272718724  1.0000
  O   O1        1.0  0.6006568483487069  0.5903718969446756  0.8017332152224186  1.0000
  H   H14       1.0  0.000422451566453928  0.3699673208707142  0.09377951853892896  1.0000
  H   H15       1.0  0.6672190075821739  0.5198557724451129  0.03509928571764931  1.0000
  H   H16       1.0  0.7753746289105434  0.46826155437242156  0.638232208767048  1.0000
  H   H17       1.0  0.946417042925768  0.38353888861013835  0.5560075395310751  1.0000
  H   H18       1.0  0.6575894638166229  0.5620791957676293  0.6241574097881877  1.0000
  Zn  Zn1       1.0  0.7552758962428869  0.4067849175702303  0.41023426002105223  1.0000
  Zn  Zn2       1.0  0.9075830054957575  0.40678118765004073  0.4102293899657974  1.0000
  C   C28       1.0  0.8319488145915487  0.4039369606643575  0.6734700426271383  1.0000
  C   C29       1.0  0.8309117506141869  0.40963078386260854  0.1469937487681796  1.0000
  C   C30       1.0  0.831417915501474  0.6438492019855389  0.4044887879538044  1.0000
  C   C31       1.0  0.8314425978835323  0.16971698341596464  0.41597508028377295  1.0000
  O   O2        1.0  0.8888159339987989  0.41183423374538664  0.20069029173938135  1.0000
  O   O3        1.0  0.8896422021674457  0.40172969678257237  0.6197693885043194  1.0000
  O   O4        1.0  0.8892127182164296  0.595461879012966  0.4025651222935678  1.0000
  O   O5        1.0  0.8892453657652334  0.2181020598488006  0.4178944498859105  1.0000
  O   O6        1.0  0.7736134839984548  0.59546404537409  0.40256920009502006  1.0000
  O   O7        1.0  0.7740429677952443  0.40173342227177783  0.6197733894575919  1.0000
  O   O8        1.0  0.7732166962656634  0.41183789868399795  0.20069255985853984  1.0000
  O   O9        1.0  0.7736461282417233  0.21810571645622323  0.4178968260633724  1.0000
