data_image0
_chemical_formula_structural       NC6NC2H4C7NH3C6FH3Zn2C4O8
_chemical_formula_sum              "N3 C25 H10 F1 Zn2 O8"
_cell_length_a       14.927258858638513
_cell_length_b       9.275154477615127
_cell_length_c       9.275646106892307
_cell_angle_alpha    85.17883559390603
_cell_angle_beta     90.02253301230535
_cell_angle_gamma    89.43371000992973

_space_group_name_H-M_alt    "P 1"
_space_group_IT_number       1

loop_
  _space_group_symop_operation_xyz
  'x, y, z'

loop_
  _atom_site_type_symbol
  _atom_site_label
  _atom_site_symmetry_multiplicity
  _atom_site_fract_x
  _atom_site_fract_y
  _atom_site_fract_z
  _atom_site_occupancy
  N   N1        1.0  0.8333872795558288  0.5947709772600227  0.4142895046976234  1.0000
  C   C1        1.0  0.7558607885664527  0.5947709486450354  0.4142895151856545  1.0000
  C   C2        1.0  0.6594282803001663  0.5947710642442205  0.4142894657236327  1.0000
  C   C3        1.0  0.6124820428817359  0.5724369866141326  0.2873598712820522  1.0000
  C   C4        1.0  0.518770731339439  0.5724370136658175  0.2873597377680648  1.0000
  C   C5        1.0  0.4716122174041454  0.5947708865426877  0.4142894836699729  1.0000
  C   C6        1.0  0.37517964214630356  0.5947710021448993  0.4142894342020318  1.0000
  N   N2        1.0  0.29765315115692753  0.5947709735299122  0.4142894446900627  1.0000
  C   C7        1.0  0.5185583878310203  0.6171049641758029  0.5412190781056336  1.0000
  C   C8        1.0  0.6122696993733169  0.6171049371241171  0.541219211619621  1.0000
  H   H1        1.0  0.6482608203731752  0.5550598163697731  0.18860136206210854  1.0000
  H   H2        1.0  0.4831571636479517  0.5550600139075945  0.1886013579053456  1.0000
  H   H3        1.0  0.48277967742427286  0.6344821229532087  0.6399776954974081  1.0000
  H   H4        1.0  0.6478832664992604  0.6344820330124983  0.6399777020276622  1.0000
  C   C9        1.0  0.06811633494922709  0.17139945151261696  0.412619382772556  1.0000
  C   C10       1.0  0.04348709330724091  0.25593338386265674  0.2853684527501652  1.0000
  C   C11       1.0  0.011573277289152804  0.1911780385859843  0.1648581948635546  1.0000
  C   C12       1.0  0.0037634032537228208  0.04100085690142175  0.17017959741546254  1.0000
  C   C13       1.0  0.02922203053446772  0.9552901321314691  0.29452994371897856  1.0000
  C   C14       1.0  0.06293276086498148  0.018131273612113752  0.41597206925709673  1.0000
  C   C15       1.0  0.9857517264156714  0.27931011273445494  0.03607355937328617  1.0000
  N   N3        1.0  0.9649983611119184  0.35015204308569436  0.932563700326794  1.0000
  H   H5        1.0  0.08559655625394408  0.24429863652362352  0.7668840224317326  1.0000
  H   H6        1.0  0.97875829190299  0.9898604085117372  0.07755989562064469  1.0000
  H   H7        1.0  0.07850385744226611  0.7168337661874837  0.6533394544751694  1.0000
  C   C16       1.0  0.06539266061342967  0.5992778181249033  0.9904731280685906  1.0000
  C   C17       1.0  0.1473254465256598  0.6143460100759928  0.06259363761094083  1.0000
  C   C18       1.0  0.2282306936207659  0.6158769596685469  0.9871538759823641  1.0000
  C   C19       1.0  0.22862491783877759  0.6022219017589485  0.8387235540566375  1.0000
  C   C20       1.0  0.14808120697056104  0.5895575804356288  0.7646806035436541  1.0000
  C   C21       1.0  0.06565639573730021  0.5902529044288773  0.8381182767617461  1.0000
  F   F1        1.0  0.30660185093127285  0.6288932696550725  0.05864062239857982  1.0000
  H   H8        1.0  0.8583826515712129  0.48214825889162227  0.10316227389630606  1.0000
  H   H9        1.0  0.2914413769941333  0.602825035349057  0.7804105753129518  1.0000
  H   H10       1.0  0.9254714438661262  0.5173248747774801  0.5629837734617702  1.0000
  Zn  Zn1       1.0  0.9673644156298726  0.5947670242040017  0.41429781155352696  1.0000
  Zn  Zn2       1.0  0.1636761019434172  0.5947629913907827  0.41429293026369773  1.0000
  C   C22       1.0  0.0656397332689296  0.5862153016394083  0.6778724543426844  1.0000
  C   C23       1.0  0.06540291692971945  0.6033165314940468  0.15071843627985193  1.0000
  C   C24       1.0  0.06390616203502054  0.8581421506260217  0.4095870371376449  1.0000
  C   C25       1.0  0.06713643180409634  0.3313879495411705  0.41900392357431393  1.0000
  O   O1        1.0  0.13990565941717326  0.6046641404185471  0.20449634824616414  1.0000
  O   O2        1.0  0.1401330248792505  0.5848635487010194  0.6240904178216178  1.0000
  O   O3        1.0  0.13873214036517212  0.80444790228462  0.4074480512252996  1.0000
  O   O4        1.0  0.14130647684655975  0.38507979830189976  0.4211386066706517  1.0000
  O   O5        1.0  0.9897339737351744  0.8044502172959113  0.40745213514065337  1.0000
  O   O6        1.0  0.9911348476172293  0.5848675966815999  0.6240944316416297  1.0000
  O   O7        1.0  0.9909074819823341  0.6046681566337846  0.20449862665277357  1.0000
  O   O8        1.0  0.9923082995048568  0.3850838030532102  0.42114099324317245  1.0000
