data_image0
_chemical_formula_structural       NC12NC2H8C16H10C12NCOCH13Zn2C4O8
_chemical_formula_sum              "N3 C48 H31 O9 Zn2"
_cell_length_a       19.240039667572717
_cell_length_b       10.29914801576943
_cell_length_c       10.299158637457994
_cell_angle_alpha    85.55741753884429
_cell_angle_beta     89.9815795743678
_cell_angle_gamma    90.01219802926653

_space_group_name_H-M_alt    "P 1"
_space_group_IT_number       1

loop_
  _space_group_symop_operation_xyz
  'x, y, z'

loop_
  _atom_site_type_symbol
  _atom_site_label
  _atom_site_symmetry_multiplicity
  _atom_site_fract_x
  _atom_site_fract_y
  _atom_site_fract_z
  _atom_site_occupancy
  N   N1        1.0  0.6548856808806692  0.4208886495757038  0.5668945328580176  1.0000
  C   C1        1.0  0.5947373120870629  0.420888733535145  0.566894450888251  1.0000
  C   C2        1.0  0.5199192749828987  0.4208888507823207  0.5668943135374924  1.0000
  C   C3        1.0  0.48342041726384266  0.356454553823804  0.6703318960550428  1.0000
  C   C4        1.0  0.4107496416288696  0.35634369370367724  0.6704184813302216  1.0000
  C   C5        1.0  0.3735870400952968  0.42088894327508347  0.5668940858182674  1.0000
  C   C6        1.0  0.4108001169367904  0.4854343799170961  0.46336988477792246  1.0000
  C   C7        1.0  0.4834707778176072  0.48532328432081506  0.46345659264437966  1.0000
  C   C8        1.0  0.29638194966311565  0.42088886457369296  0.5668939904315882  1.0000
  C   C9        1.0  0.2591740205925954  0.3076332829440247  0.6088079895764005  1.0000
  C   C10       1.0  0.1865033601120192  0.3077401600242986  0.6087166227724126  1.0000
  C   C11       1.0  0.1500496627147082  0.4208887354113773  0.566894051391353  1.0000
  C   C12       1.0  0.07523162550400168  0.4208886217464344  0.5668943000977023  1.0000
  N   N2        1.0  0.015083308611387802  0.42088858099277626  0.5668945085346091  1.0000
  C   C13       1.0  0.1865434761917572  0.5340373866138454  0.5250714270903196  1.0000
  C   C14       1.0  0.2592142003617115  0.5341444437730256  0.5249798976219784  1.0000
  H   H1        1.0  0.511115699773001  0.3065683578549079  0.7510928622959396  1.0000
  H   H2        1.0  0.3836366504973837  0.3072560422224764  0.7522946639121665  1.0000
  H   H3        1.0  0.38372657729198134  0.5345220584351199  0.38149365133680146  1.0000
  H   H4        1.0  0.5112052667126458  0.5352093801157584  0.3826959022396259  1.0000
  H   H5        1.0  0.2862517657127359  0.21848135143221745  0.6400096323637849  1.0000
  H   H6        1.0  0.1587729128892124  0.2194878474545947  0.6409509027814237  1.0000
  H   H7        1.0  0.1588440999614725  0.6222896746497446  0.49283716164116864  1.0000
  H   H8        1.0  0.2863229340755132  0.6232964544523708  0.49377821003266603  1.0000
  C   C15       1.0  0.8349383118425338  0.03948731073174238  0.5670600546350764  1.0000
  C   C16       1.0  0.8190918676800457  0.049039100504193904  0.43358486123830664  1.0000
  C   C17       1.0  0.811108486631647  0.9367522421449409  0.36574549958353253  1.0000
  C   C18       1.0  0.8191847159046588  0.8137871428675224  0.43318026723326564  1.0000
  C   C19       1.0  0.8350373407982605  0.8022799408021047  0.566740214295665  1.0000
  C   C20       1.0  0.8428177733209175  0.9156459132437663  0.6328577345383495  1.0000
  C   C21       1.0  0.7943450313520939  0.9479024894331074  0.2245448421192371  1.0000
  C   C22       1.0  0.8272427019304801  0.8668873659316663  0.13932636844159418  1.0000
  C   C23       1.0  0.8114412343216043  0.8775067712043725  0.006433752529866114  1.0000
  C   C24       1.0  0.7625799193155105  0.9690409735285279  0.9569553386409089  1.0000
  C   C25       1.0  0.7295557365623857  0.05003596016941314  0.04088985975938386  1.0000
  C   C26       1.0  0.7453076463756896  0.039657827984653116  0.17380342244828095  1.0000
  C   C27       1.0  0.7463379444115462  0.9798499524923501  0.8201299415528706  1.0000
  C   C28       1.0  0.7327354654352679  0.9889023692150624  0.7055406508967081  1.0000
  C   C29       1.0  0.7168071232188992  0.9995026269692051  0.5713577600255585  1.0000
  C   C30       1.0  0.7032069272585609  0.008553673033484987  0.4567869773011637  1.0000
  H   H9        1.0  0.8409977869340488  0.36328788801218814  0.6184144256175752  1.0000
  H   H10       1.0  0.8138575883392953  0.1440761367986263  0.3816743079050431  1.0000
  H   H11       1.0  0.8121563953878633  0.7268757703255542  0.38176430024394037  1.0000
  H   H12       1.0  0.8550385094375795  0.9075624821941242  0.7358114329835976  1.0000
  H   H13       1.0  0.8645278978499149  0.5732541995223552  0.8190058522837738  1.0000
  H   H14       1.0  0.8658456679109304  0.7964953166043689  0.17517638239104172  1.0000
  H   H15       1.0  0.837455022241517  0.8145612371828975  0.9422583103218649  1.0000
  H   H16       1.0  0.6915058179072259  0.12099187864861238  0.003669940573145511  1.0000
  H   H17       1.0  0.7184837845572509  0.10221327205814967  0.2371760701356147  1.0000
  H   H18       1.0  0.6912648603584679  0.016501256049007644  0.35618416941802566  1.0000
  C   C31       1.0  0.8350529733605733  0.4207456525345332  0.1855270864336898  1.0000
  C   C32       1.0  0.836685576007945  0.5574605245095687  0.1741562122931135  1.0000
  C   C33       1.0  0.8374587968647184  0.6269167253259378  0.051233330831194746  1.0000
  C   C34       1.0  0.8365525729871877  0.5578204248504248  0.9388445828111149  1.0000
  C   C35       1.0  0.8349226877711183  0.42102163685881866  0.9482731859888003  1.0000
  C   C36       1.0  0.8341859623468545  0.35332539443451755  0.0720019753853538  1.0000
  C   C37       1.0  0.8391867230405594  0.7715442836745974  0.04017787985429088  1.0000
  C   C38       1.0  0.8818542962700139  0.8393839429667748  0.12271680733722713  1.0000
  C   C39       1.0  0.8834860302086511  0.9754861030391597  0.11218218763856048  1.0000
  C   C40       1.0  0.842923313632543  0.04647750613832445  0.018002868808379535  1.0000
  C   C41       1.0  0.7994280915504216  0.9789982655972116  0.937246869701073  1.0000
  C   C42       1.0  0.7978248957053045  0.8429240173401525  0.9475204908332637  1.0000
  N   N3        1.0  0.842676077874416  0.18653537603505962  0.00670875879848221  1.0000
  C   C43       1.0  0.9022339433010275  0.26552996695227105  0.0299071894175369  1.0000
  O   O1        1.0  0.9621516942575241  0.21611309363728104  0.03844403534158115  1.0000
  C   C44       1.0  0.8940998795909785  0.40935733358640647  0.03444943801341706  1.0000
  H   H19       1.0  0.8344467791422291  0.3681574028919321  0.5173765851344627  1.0000
  H   H20       1.0  0.8363886094698643  0.6102822582814517  0.2610849170955949  1.0000
  H   H21       1.0  0.8380662472400445  0.6108385302625153  0.8438507414809786  1.0000
  H   H22       1.0  0.8329290770158186  0.24787401955258903  0.08005769913231454  1.0000
  H   H23       1.0  0.8322683020260419  0.16280570206093592  0.7587769713233623  1.0000
  H   H24       1.0  0.9143767644403566  0.7871524595889356  0.19493124471186388  1.0000
  H   H25       1.0  0.9155641178708407  0.024829868985431606  0.17919300709563823  1.0000
  H   H26       1.0  0.7669255264081599  0.03210483062009661  0.8656013559377187  1.0000
  H   H27       1.0  0.7634698212135217  0.7935334677407753  0.8841939332576345  1.0000
  H   H28       1.0  0.797628625123121  0.2339944106656428  0.9717421312213155  1.0000
  H   H29       1.0  0.8452314580616587  0.43107386550248966  0.08585814163609906  1.0000
  H   H30       1.0  0.892237298296584  0.4560286390033447  0.9337110718969562  1.0000
  H   H31       1.0  0.9384464222236241  0.4501284310627054  0.08708709435579975  1.0000
  Zn  Zn1       1.0  0.7588309429889138  0.4208851649967602  0.5669020157995959  1.0000
  Zn  Zn2       1.0  0.9111380620882636  0.42088147502627193  0.5668976290499681  1.0000
  C   C45       1.0  0.8349450901350324  0.41579533186620815  0.804099985297047  1.0000
  C   C46       1.0  0.8350255783221422  0.4259729469214376  0.32969978628524865  1.0000
  C   C47       1.0  0.8350159345559309  0.6580940350158453  0.561625421216631  1.0000
  C   C48       1.0  0.8349546817150454  0.1836726833629767  0.5721744202608885  1.0000
  O   O2        1.0  0.8928161415043027  0.4277202081222935  0.37808379901674716  1.0000
  O   O3        1.0  0.8927521061390815  0.4140442901221401  0.7557122696848791  1.0000
  O   O4        1.0  0.8928085345058583  0.6097035577082487  0.5599123430983131  1.0000
  O   O5        1.0  0.8927596611832628  0.23206094979322506  0.5738836282251942  1.0000
  O   O6        1.0  0.7772092919189711  0.609705690232478  0.5599160166190347  1.0000
  O   O7        1.0  0.777152863763449  0.4140479830578627  0.7557158733050422  1.0000
  O   O8        1.0  0.7772168994357301  0.42772385523328754  0.3780858412383352  1.0000
  O   O9        1.0  0.7771604190940099  0.23206458764984947  0.5738857678195666  1.0000
