data_image0
_chemical_formula_structural       NC9NC4H8C7ONH7C7NC2NH8Zn2C4O8
_chemical_formula_sum              "N5 C33 H23 O9 Zn2"
_cell_length_a       16.32274767691083
_cell_length_b       10.297852080636378
_cell_length_c       9.27399911348925
_cell_angle_alpha    85.0628220767755
_cell_angle_beta     89.127461349941
_cell_angle_gamma    89.50344002776104

_space_group_name_H-M_alt    "P 1"
_space_group_IT_number       1

loop_
  _space_group_symop_operation_xyz
  'x, y, z'

loop_
  _atom_site_type_symbol
  _atom_site_label
  _atom_site_symmetry_multiplicity
  _atom_site_fract_x
  _atom_site_fract_y
  _atom_site_fract_z
  _atom_site_occupancy
  N   N1        1.0  0.7765086563446639  0.4247654394051186  0.3960302834849616  1.0000
  C   C1        1.0  0.7243940631390192  0.37778747092414156  0.3356864085947203  1.0000
  C   C2        1.0  0.6596148518263951  0.3194404684269832  0.26073883345313187  1.0000
  C   C3        1.0  0.6715429851718324  0.23963221872241205  0.15821911722358606  1.0000
  C   C4        1.0  0.5923605465108515  0.20068533878766195  0.10819290370190053  1.0000
  C   C5        1.0  0.5331594264347591  0.25768313478291693  0.18141344505733348  1.0000
  C   C6        1.0  0.44329278215323176  0.24261909906245796  0.16206583575644465  1.0000
  C   C7        1.0  0.3873844086890468  0.3090537753971303  0.247400888056103  1.0000
  C   C8        1.0  0.30273643939306777  0.2961793288433485  0.23086519506822015  1.0000
  C   C9        1.0  0.2464065380008234  0.36465633595813496  0.3188227506985138  1.0000
  N   N2        1.0  0.20113629312491013  0.4197005848240638  0.38952572810976993  1.0000
  C   C10       1.0  0.27294430825182503  0.21676275523820832  0.12885713389307443  1.0000
  C   C11       1.0  0.32753034819748006  0.15041607353124187  0.043635493428651154  1.0000
  C   C12       1.0  0.4120211528431508  0.16294374335794415  0.05972561721653414  1.0000
  C   C13       1.0  0.5705225630323163  0.34079226549403807  0.288170452365518  1.0000
  H   H1        1.0  0.7305965020845219  0.20859857337103804  0.11835152453333221  1.0000
  H   H2        1.0  0.5843721277681329  0.1354581573712177  0.024403462082840832  1.0000
  H   H3        1.0  0.4092051765825426  0.37105179841202574  0.3270354951477976  1.0000
  H   H4        1.0  0.20760244228900496  0.20615687641303126  0.11523540234535436  1.0000
  H   H5        1.0  0.3043108892519769  0.08897994865724469  0.9647229164223825  1.0000
  H   H6        1.0  0.452052092976171  0.10987066529882131  0.9915542288484382  1.0000
  H   H7        1.0  0.5533784907754347  0.3051628127284458  0.40098479598378445  1.0000
  H   H8        1.0  0.5538011115665967  0.44506680346184635  0.26353595777131344  1.0000
  C   C14       1.0  0.9889137164662175  0.040794691216255105  0.3927852257979569  1.0000
  C   C15       1.0  0.9782033375088954  0.051642909524283194  0.24216831406494554  1.0000
  C   C16       1.0  0.9720484458519698  0.9400584061490603  0.16592742198527133  1.0000
  C   C17       1.0  0.9779963645412547  0.8163935597243966  0.24212169189301005  1.0000
  C   C18       1.0  0.9887390146097925  0.8036611095721027  0.39278310294804897  1.0000
  C   C19       1.0  0.993933383096428  0.9163916086884839  0.46716761617673597  1.0000
  C   C20       1.0  0.9609394290440217  0.9541146775332094  0.006823314004601013  1.0000
  O   O1        1.0  0.9830694333263971  0.057519483886482974  0.9346100663427178  1.0000
  N   N3        1.0  0.9245821695479115  0.8533236175145685  0.9328611110052069  1.0000
  H   H9        1.0  0.009453322332369618  0.22756206978736282  0.6773701463518293  1.0000
  H   H10       1.0  0.9739088233866504  0.14727756578435436  0.18405372949336152  1.0000
  H   H11       1.0  0.97587186084395  0.7296732171977632  0.18426586007978174  1.0000
  H   H12       1.0  0.002185961395019255  0.9072772272680271  0.5832499728075085  1.0000
  H   H13       1.0  0.010356308396638033  0.5723275071207544  0.6772199936072969  1.0000
  H   H14       1.0  0.9208304034200974  0.8633245943915887  0.8201471916517122  1.0000
  H   H15       1.0  0.8964157786709671  0.773088365477937  0.9887522950435463  1.0000
  C   C21       1.0  0.9902407007322777  0.425535388058022  0.9689111171974156  1.0000
  C   C22       1.0  0.05457288536302718  0.36257052847701376  0.046410576043658384  1.0000
  C   C23       1.0  0.11348352739615299  0.290423033373441  0.9768564471539266  1.0000
  C   C24       1.0  0.10964544462608727  0.2787547592201278  0.8276189181301299  1.0000
  C   C25       1.0  0.046545890773125986  0.34389846920601475  0.7485419198980718  1.0000
  C   C26       1.0  0.9874120600707545  0.4189204144937555  0.8166572196095347  1.0000
  C   C27       1.0  0.17254391425351878  0.2003195933206423  0.7559603566476137  1.0000
  N   N4        1.0  0.24116713047099148  0.1541164573390865  0.8229482706422827  1.0000
  C   C28       1.0  0.28084619648890174  0.08865060088103617  0.7230178634667221  1.0000
  C   C29       1.0  0.23608909995725713  0.09565792475975331  0.5981613454552367  1.0000
  N   N5        1.0  0.16797474179494154  0.1658286587362405  0.6190373677623029  1.0000
  H   H16       1.0  0.902985273269185  0.5905268415420182  0.23682387683082842  1.0000
  H   H17       1.0  0.05828357302234521  0.3663916353128454  0.16250486275220527  1.0000
  H   H18       1.0  0.1615444712522225  0.24199887444885437  0.04084826177117452  1.0000
  H   H19       1.0  0.044519943436148735  0.3404080637718393  0.6324679796095622  1.0000
  H   H20       1.0  0.859555549018603  0.4937561271897679  0.5328531566726995  1.0000
  H   H21       1.0  0.3388184107088259  0.03852196889456795  0.7404985826280006  1.0000
  H   H22       1.0  0.2518261757063689  0.0520977832201559  0.49922787465434754  1.0000
  H   H23       1.0  0.12161726886094935  0.18606985485922678  0.5440419570372663  1.0000
  Zn  Zn1       1.0  0.8990469990490639  0.42330028052410934  0.39416154519351765  1.0000
  Zn  Zn2       1.0  0.07859791957775197  0.4211549925276954  0.39140629136329985  1.0000
  C   C30       1.0  0.9879460899278167  0.41499618650182546  0.6564151306170254  1.0000
  C   C31       1.0  0.9897007885414961  0.429460700935308  0.12915281752084054  1.0000
  C   C32       1.0  0.9887870364778522  0.6595080492262997  0.38703165775706205  1.0000
  C   C33       1.0  0.9888597808238306  0.18494727775633635  0.39853636828060024  1.0000
  O   O2        1.0  0.05765822897876705  0.4299582794099748  0.18188579152133838  1.0000
  O   O3        1.0  0.056263645257108315  0.41286940741821576  0.6015905672025306  1.0000
  O   O4        1.0  0.05694179668210775  0.6103158281061714  0.38406152102713226  1.0000
  O   O5        1.0  0.05698001664419117  0.23251186959046977  0.3994147304096676  1.0000
  O   O6        1.0  0.920664840710733  0.6119434041948895  0.38615310707979045  1.0000
  O   O7        1.0  0.9199866891814716  0.41449854469498626  0.6036820762880335  1.0000
  O   O8        1.0  0.9213812787584978  0.4315873849634273  0.18397556518490932  1.0000
  O   O9        1.0  0.9207030660616065  0.2341409650090267  0.4015046122929491  1.0000
