data_image0
_chemical_formula_structural       NC10NC3NCH9C7OC3OC4H12C7OC3NC3H11Zn2C4O8
_chemical_formula_sum              "N4 C45 H32 O11 Zn2"
_cell_length_a       19.437513618241372
_cell_length_b       10.299371110280156
_cell_length_c       10.298749378158432
_cell_angle_alpha    85.57454226300094
_cell_angle_beta     90.35618214226261
_cell_angle_gamma    89.53521497268402

_space_group_name_H-M_alt    "P 1"
_space_group_IT_number       1

loop_
  _space_group_symop_operation_xyz
  'x, y, z'

loop_
  _atom_site_type_symbol
  _atom_site_label
  _atom_site_symmetry_multiplicity
  _atom_site_fract_x
  _atom_site_fract_y
  _atom_site_fract_z
  _atom_site_occupancy
  N   N1        1.0  0.647897821554362  0.41060095628575805  0.5760800685615217  1.0000
  C   C1        1.0  0.5889662049053214  0.4276113518965565  0.5731107225413193  1.0000
  C   C2        1.0  0.5155278836974901  0.44886428031385894  0.5694250420287517  1.0000
  C   C3        1.0  0.47375161172111874  0.34767636452834155  0.5577235778368084  1.0000
  C   C4        1.0  0.3978619901229204  0.357742124462007  0.5505057055828744  1.0000
  C   C5        1.0  0.35830582850054027  0.43858088114002225  0.6162867602035653  1.0000
  C   C6        1.0  0.2821214898956283  0.4299738748505493  0.6078384297661661  1.0000
  C   C7        1.0  0.248971342747826  0.308629014271393  0.6124328284285384  1.0000
  C   C8        1.0  0.177234973898282  0.30225832410655573  0.6052615619157058  1.0000
  C   C9        1.0  0.137678113849847  0.4167597582248836  0.5938579672208784  1.0000
  C   C10       1.0  0.06382720879904902  0.4100509141248998  0.5865184572819201  1.0000
  N   N2        1.0  0.004456179298341498  0.40465759346410723  0.5806179499760808  1.0000
  C   C11       1.0  0.1701117220115338  0.5377939379264354  0.5900087822702191  1.0000
  C   C12       1.0  0.2418325349546616  0.5444186089981338  0.5972421788925698  1.0000
  C   C13       1.0  0.3870127312349498  0.5308517765723721  0.7062519753769928  1.0000
  N   N3        1.0  0.4440031441441827  0.5940671476843142  0.6858717530879229  1.0000
  C   C14       1.0  0.4878277410241484  0.5848235317072918  0.5727507279584807  1.0000
  H   H1        1.0  0.4961219484932913  0.252622465524474  0.545562650265623  1.0000
  H   H2        1.0  0.3731312644845772  0.28823929062929454  0.4921542838452775  1.0000
  H   H3        1.0  0.2784117217382044  0.21871590772387628  0.6234180290680263  1.0000
  H   H4        1.0  0.1526299614008817  0.20803193524536126  0.6091107196537466  1.0000
  H   H5        1.0  0.1399862837304205  0.6270517795260708  0.581335661055111  1.0000
  H   H6        1.0  0.2659560760585284  0.6390577977918397  0.5933777280352857  1.0000
  H   H7        1.0  0.3570232864204229  0.551224098561639  0.7906341539229121  1.0000
  H   H8        1.0  0.5305900390378946  0.6551347167912625  0.5785432369367245  1.0000
  H   H9        1.0  0.4581522003828413  0.6129462911692578  0.4821088258499555  1.0000
  C   C15       1.0  0.8261339037844759  0.026258576601589922  0.5782336675796853  1.0000
  C   C16       1.0  0.8181955930650221  0.03569099729260561  0.4421380341818611  1.0000
  C   C17       1.0  0.8134145924307226  0.9232744686874902  0.3736534728352263  1.0000
  C   C18       1.0  0.8182297686973331  0.8004225178027129  0.4424495768343357  1.0000
  C   C19       1.0  0.8262266976429051  0.7889898283540171  0.5784757176422988  1.0000
  C   C20       1.0  0.8299523647983661  0.9025088336492276  0.6456160518312128  1.0000
  C   C21       1.0  0.8057497763795437  0.9330944704482197  0.2297988627490826  1.0000
  O   O1        1.0  0.833947219208289  0.8475917013191344  0.1661303183422982  1.0000
  C   C22       1.0  0.7660887279982281  0.03983136554763233  0.1581782939779368  1.0000
  C   C23       1.0  0.7853090125318867  0.08468297447979345  0.03127147658236118  1.0000
  C   C24       1.0  0.7480898024977902  0.1843231807365795  0.9614121446506259  1.0000
  O   O2        1.0  0.770045230346255  0.2257764568544265  0.8355849209234183  1.0000
  C   C25       1.0  0.7372434722792154  0.3258159856646432  0.7537267787109446  1.0000
  C   C26       1.0  0.690380926574674  0.2391384185071599  0.01916985751354883  1.0000
  C   C27       1.0  0.670454171379466  0.19400889012794797  0.14455051877899838  1.0000
  C   C28       1.0  0.7077954130501483  0.09464802125193295  0.21365917368003218  1.0000
  H   H10       1.0  0.8421642012760386  0.21578058475663076  0.8348485514472075  1.0000
  H   H11       1.0  0.8164876493372075  0.13065890625117116  0.38908287768417177  1.0000
  H   H12       1.0  0.8150621539969097  0.7136199457646825  0.38968313287455714  1.0000
  H   H13       1.0  0.836072663526265  0.8944333198225587  0.7505358187781996  1.0000
  H   H14       1.0  0.8298710219799904  0.4571410784116181  0.6306126015835182  1.0000
  H   H15       1.0  0.8297889878136815  0.0430497950499793  0.9864615626427162  1.0000
  H   H16       1.0  0.7653013505548664  0.3384483228281041  0.6602064309787443  1.0000
  H   H17       1.0  0.7382609574639775  0.4192512812308766  0.8007620707889109  1.0000
  H   H18       1.0  0.6833241888999161  0.29848329527784245  0.7332749491781874  1.0000
  H   H19       1.0  0.660492369351314  0.3161406628065615  0.9678974440067427  1.0000
  H   H20       1.0  0.6257140704441292  0.23580792562871222  0.18813530460341846  1.0000
  H   H21       1.0  0.6906405168081612  0.05977661791920275  0.3098262500425488  1.0000
  C   C29       1.0  0.8261485693458263  0.4076527304010366  0.1969532320559666  1.0000
  C   C30       1.0  0.8637435283251812  0.523891432751197  0.18744892370824928  1.0000
  C   C31       1.0  0.8820635938429797  0.5834821683453915  0.06539567021657945  1.0000
  C   C32       1.0  0.8637462685912715  0.5239402487552289  0.9522049445923932  1.0000
  C   C33       1.0  0.8262120053907479  0.4075956403636176  0.9597561314620497  1.0000
  C   C34       1.0  0.8074933179562547  0.35037339088347674  0.08255377336733649  1.0000
  C   C35       1.0  0.922321434859233  0.7055797136741238  0.05526666521524493  1.0000
  O   O3        1.0  0.965313069768419  0.7232059880672814  0.9644726985349742  1.0000
  C   C36       1.0  0.9138090622172624  0.8076729506951649  0.14808020896307084  1.0000
  C   C37       1.0  0.8494469123816107  0.8313199202479361  0.20397246804681468  1.0000
  C   C38       1.0  0.8417628957254234  0.9289505414792808  0.29060573736545786  1.0000
  N   N4        1.0  0.7762626428068196  0.951894101626208  0.3474511691866282  1.0000
  C   C39       1.0  0.8985437441062639  0.004255577358508248  0.3207501405485529  1.0000
  C   C40       1.0  0.9623639733165961  0.9825683023806895  0.26439226629706014  1.0000
  C   C41       1.0  0.970008379394624  0.8852500135517449  0.17813539590926242  1.0000
  H   H22       1.0  0.7560242910352404  0.186989922622941  0.42236339563588793  1.0000
  H   H23       1.0  0.8794611228183179  0.567475475001409  0.27520895790961664  1.0000
  H   H24       1.0  0.8782615285646921  0.5692204956425944  0.8579977426290496  1.0000
  H   H25       1.0  0.7785176638045449  0.26077187899199883  0.08912813081839976  1.0000
  H   H26       1.0  0.7555401606008374  0.18752095145574474  0.7667428950170528  1.0000
  H   H27       1.0  0.8050483814225019  0.775052471371391  0.17934640875597485  1.0000
  H   H28       1.0  0.7335934761215638  0.8963330067778124  0.3256623450260492  1.0000
  H   H29       1.0  0.7699677312046832  0.024517790584237975  0.4118816769877218  1.0000
  H   H30       1.0  0.8932663285529469  0.07995828062375399  0.38743991769641295  1.0000
  H   H31       1.0  0.006027810315869523  0.04130782662977638  0.2876031078989887  1.0000
  H   H32       1.0  0.019988331967711437  0.8697721344898806  0.1357664039435693  1.0000
  Zn  Zn1       1.0  0.7507928672237071  0.40888234036589705  0.5773971116018899  1.0000
  Zn  Zn2       1.0  0.9015611394284755  0.4063655389892768  0.5793115743328047  1.0000
  C   C42       1.0  0.8261978652174728  0.40243277446042724  0.8155683912444143  1.0000
  C   C43       1.0  0.8261577880294989  0.4128167160286915  0.3411404435934531  1.0000
  C   C44       1.0  0.8262051799716386  0.6448178233581177  0.5732542920374442  1.0000
  C   C45       1.0  0.8261504216446074  0.17043010767510625  0.5834546108965659  1.0000
  O   O4        1.0  0.8833766547809639  0.413589018006288  0.39025751578307594  1.0000
  O   O5        1.0  0.8834086283787901  0.39974929877390464  0.7679039777810837  1.0000
  O   O6        1.0  0.8834137639516356  0.5954783039104573  0.5722336188934065  1.0000
  O   O7        1.0  0.8833714677541491  0.21786002302609833  0.5859277766374491  1.0000
  O   O8        1.0  0.7689824874482212  0.5973878571893505  0.5707809086371018  1.0000
  O   O9        1.0  0.7689773520562889  0.4016604123689674  0.7664511987684919  1.0000
  O   O10       1.0  0.768945378368816  0.4155000864612417  0.38880317522280694  1.0000
  O   O11       1.0  0.7689401913461583  0.21977108218496413  0.584473533450341  1.0000
