data_image0
_chemical_formula_structural       NC6NC2H4C9H6C6ClH3Zn2C4O8
_chemical_formula_sum              "N2 C27 H13 Cl1 Zn2 O8"
_cell_length_a       14.927258858638513
_cell_length_b       9.275152443626249
_cell_length_c       10.302974078461048
_cell_angle_alpha    85.36323094855369
_cell_angle_beta     89.99986750987136
_cell_angle_gamma    90.5735452640029

_space_group_name_H-M_alt    "P 1"
_space_group_IT_number       1

loop_
  _space_group_symop_operation_xyz
  'x, y, z'

loop_
  _atom_site_type_symbol
  _atom_site_label
  _atom_site_symmetry_multiplicity
  _atom_site_fract_x
  _atom_site_fract_y
  _atom_site_fract_z
  _atom_site_occupancy
  N   N1        1.0  0.8533906586637882  0.5787934917906457  0.5630622161436862  1.0000
  C   C1        1.0  0.7758641673187162  0.5787934632709655  0.5630622257683882  1.0000
  C   C2        1.0  0.6794316604906459  0.5787935784095719  0.5630621805071025  1.0000
  C   C3        1.0  0.6322320622231451  0.5550944850199393  0.4490429838375012  1.0000
  C   C4        1.0  0.5385207510393034  0.5550945106648086  0.449042863566052  1.0000
  C   C5        1.0  0.49161559539419936  0.5787934007972344  0.5630621978359995  1.0000
  C   C6        1.0  0.3951830215746112  0.5787935159388062  0.5630621525693691  1.0000
  N   N2        1.0  0.31765653022954  0.5787934874191264  0.563062162194071  1.0000
  C   C7        1.0  0.5388151266701826  0.602492494189833  0.6770813945002563  1.0000
  C   C8        1.0  0.632526437854024  0.6024924685449634  0.6770815147717053  1.0000
  H   H1        1.0  0.6678137107292443  0.5366552541874035  0.3603295048778641  1.0000
  H   H2        1.0  0.5027100564472375  0.5366554517943161  0.36032949981968576  1.0000
  H   H3        1.0  0.5032335450875691  0.6209317147012032  0.7657949708329441  1.0000
  H   H4        1.0  0.6683371330493051  0.6209316247784404  0.7657949773073618  1.0000
  C   C9        1.0  0.08288520598007154  0.1551611864045992  0.5643876435836508  1.0000
  C   C10       1.0  0.05056850962151316  0.23790059088774812  0.4540923386624398  1.0000
  C   C11       1.0  0.026579038229691994  0.17245924919254474  0.3417320298172961  1.0000
  C   C12       1.0  0.03452958351151206  0.02311730972529924  0.3374423249323606  1.0000
  C   C13       1.0  0.06509448018471534  0.9386897585276681  0.44680549174413553  1.0000
  C   C14       1.0  0.08817050904509972  0.00241470486610585  0.5617479834310108  1.0000
  C   C15       1.0  0.010258701504884057  0.9559678050303935  0.22108615856412794  1.0000
  C   C16       1.0  0.9899375093629684  0.8997124543117531  0.12365611258384156  1.0000
  C   C17       1.0  0.9652817594829374  0.8314445368332808  0.00544183909034768  1.0000
  H   H5        1.0  0.21160958037110145  0.2368126208010064  0.8236694067888676  1.0000
  H   H6        1.0  0.002627485751961701  0.23869901712438477  0.2576487997681751  1.0000
  H   H7        1.0  0.17196499646042862  0.7071152963509347  0.7390880046126214  1.0000
  H   H8        1.0  0.9816586516163592  0.7147227065553903  0.017570572351023325  1.0000
  H   H9        1.0  0.892368373767929  0.8440271062675104  0.9876684811476103  1.0000
  H   H10       1.0  0.003113705304740975  0.8837930705586797  0.9214060110933704  1.0000
  C   C18       1.0  0.08552786199995535  0.5787879483756462  0.18182533655412336  1.0000
  C   C19       1.0  0.06901030506081067  0.42895443634436753  0.19152581453015705  1.0000
  C   C20       1.0  0.06081478973070811  0.3546111286927941  0.07938213594701882  1.0000
  C   C21       1.0  0.06901034563516813  0.4289545178164896  0.956417915305221  1.0000
  C   C22       1.0  0.08552785925037343  0.578787873909731  0.9443103558595434  1.0000
  C   C23       1.0  0.09370613826474972  0.6529742857078857  0.057669005828159474  1.0000
  Cl  Cl1       1.0  0.040180440022776764  0.16743347690454646  0.09300388019424077  1.0000
  H   H11       1.0  0.06244089913250628  0.36936214969197617  0.2859091508626963  1.0000
  H   H12       1.0  0.06244096160439173  0.3693621291071368  0.8707081848529179  1.0000
  H   H13       1.0  0.10644493375771563  0.7685303873898102  0.04925938102659155  1.0000
  Zn  Zn1       1.0  0.9873677443684707  0.5787896249598439  0.5630697142478605  1.0000
  Zn  Zn2       1.0  0.18367938169444875  0.5787855378310387  0.5630653506471262  1.0000
  C   C24       1.0  0.08548999823444815  0.5730408891717815  0.8002022384861456  1.0000
  C   C25       1.0  0.08555928290020098  0.5845360937861628  0.3259329481144979  1.0000
  C   C26       1.0  0.08716685746483058  0.8422657270162708  0.5570735056625398  1.0000
  C   C27       1.0  0.08388234587031401  0.3153095227274736  0.5690617555551223  1.0000
  O   O1        1.0  0.16006903205931244  0.5864573792319092  0.3742951426375525  1.0000
  O   O2        1.0  0.1599762326747235  0.5711154133943361  0.7518363617595896  1.0000
  O   O3        1.0  0.16132931342457435  0.7885178747873773  0.5555081851774564  1.0000
  O   O4        1.0  0.15871588438597595  0.3690549281600337  0.5706232218466349  1.0000
  O   O5        1.0  0.01233117468542599  0.7885202346338147  0.555511843043007  1.0000
  O   O6        1.0  0.010978104743561765  0.5711195064579386  0.7518399450027768  1.0000
  O   O7        1.0  0.011070903874165207  0.5864614220243533  0.3742971651542686  1.0000
  O   O8        1.0  0.009717756132796797  0.3690589606342767  0.5706253417310572  1.0000
