data_image0
_chemical_formula_structural       NC9NC4H8C7NC2NH7C6OCH7Zn2C4O8
_chemical_formula_sum              "N4 C33 H22 O9 Zn2"
_cell_length_a       16.32274767691083
_cell_length_b       9.273995741505848
_cell_length_c       9.273891588657152
_cell_angle_alpha    86.22271932508039
_cell_angle_beta     89.15205086511824
_cell_angle_gamma    90.10890436374608

_space_group_name_H-M_alt    "P 1"
_space_group_IT_number       1

loop_
  _space_group_symop_operation_xyz
  'x, y, z'

loop_
  _atom_site_type_symbol
  _atom_site_label
  _atom_site_symmetry_multiplicity
  _atom_site_fract_x
  _atom_site_fract_y
  _atom_site_fract_z
  _atom_site_occupancy
  N   N1        1.0  0.7855350716630153  0.5533323473292332  0.401965994371571  1.0000
  C   C1        1.0  0.7330918157880952  0.5001092603050097  0.34157575400011764  1.0000
  C   C2        1.0  0.6679044028786257  0.43400577174178273  0.2665705925869408  1.0000
  C   C3        1.0  0.6792741882155899  0.34358795222246474  0.1639721150566309  1.0000
  C   C4        1.0  0.5998192736438167  0.29946361256213505  0.11390746030759757  1.0000
  C   C5        1.0  0.5410169176340841  0.3640386419452215  0.18718424835032588  1.0000
  C   C6        1.0  0.4510448844660818  0.34697207765518545  0.167821768301039  1.0000
  C   C7        1.0  0.3956012944472753  0.4222383703392958  0.253222390757633  1.0000
  C   C8        1.0  0.31086325467833553  0.40765246163943997  0.23667398891050936  1.0000
  C   C9        1.0  0.25501242483967856  0.485232570851599  0.324699131588029  1.0000
  N   N2        1.0  0.2101272745656008  0.5475942087133376  0.3954564384310655  1.0000
  C   C10       1.0  0.2805155180761195  0.31767853785281086  0.13458754173805265  1.0000
  C   C11       1.0  0.334637390300379  0.2425119443119097  0.04930041746091284  1.0000
  C   C12       1.0  0.4192158392980783  0.2567049744708383  0.06540290802332871  1.0000
  C   C13       1.0  0.5789614947904753  0.45819610377121256  0.29402327841552234  1.0000
  H   H1        1.0  0.738110589359019  0.3084287031689472  0.12407389917286336  1.0000
  H   H2        1.0  0.591374517724003  0.22556523949803342  0.030053647450686283  1.0000
  H   H3        1.0  0.4178558060947534  0.49247818695358947  0.3329181911758545  1.0000
  H   H4        1.0  0.21509945275933373  0.30566277305126244  0.12095534038295441  1.0000
  H   H5        1.0  0.3109881187700516  0.17290872766591892  0.9703272013523437  1.0000
  H   H6        1.0  0.45887547522982053  0.19657654206896694  0.9971791362329644  1.0000
  H   H7        1.0  0.5616116269779988  0.4206395379339543  0.40659329162151003  1.0000
  H   H8        1.0  0.5629260880783894  0.5735233140205982  0.26970085873307736  1.0000
  C   C14       1.0  0.9953881487745042  0.1269977713807473  0.39769570881213623  1.0000
  C   C15       1.0  0.010180944013924222  0.20885602480951995  0.26711528751105695  1.0000
  C   C16       1.0  0.032287813111268486  0.14231363450843082  0.14182916970316173  1.0000
  C   C17       1.0  0.04051891202135071  0.9917729263047025  0.14354037602791211  1.0000
  C   C18       1.0  0.02400947081901483  0.9086494846918038  0.27295305377946016  1.0000
  C   C19       1.0  0.00028194621897337176  0.9739175991126416  0.39973902015717067  1.0000
  C   C20       1.0  0.06495177139849416  0.9232348467933675  0.009220038336494209  1.0000
  N   N3        1.0  0.06834613526376132  0.9962898261047344  0.8781910696956471  1.0000
  C   C21       1.0  0.09320442006580221  0.8972471081132786  0.7871556051383464  1.0000
  C   C22       1.0  0.10465513068280961  0.7668694558370089  0.8635000939399924  1.0000
  N   N4        1.0  0.08692232774811748  0.783367466013492  0.003138442607890644  1.0000
  H   H9        1.0  0.9282984528541404  0.39438097721701976  0.6061732646004847  1.0000
  H   H10       1.0  0.006630639497067879  0.325705869354461  0.2625207713473887  1.0000
  H   H11       1.0  0.04415727502720834  0.20946824160953129  0.04373000259118597  1.0000
  H   H12       1.0  0.026777454287385535  0.7920680268246517  0.2749081439439378  1.0000
  H   H13       1.0  0.0006037780768364274  0.6780487714306905  0.639434765314648  1.0000
  H   H14       1.0  0.10262843574401702  0.9191027851370128  0.6720903139747358  1.0000
  H   H15       1.0  0.0911113030688111  0.7035315677289036  0.08732961004493012  1.0000
  C   C23       1.0  0.9991551455059469  0.5466204298838553  0.9754122553830453  1.0000
  C   C24       1.0  0.0666012457747489  0.606622110954044  0.04310426881617446  1.0000
  C   C25       1.0  0.12946235172790488  0.6774546114032847  0.9625100637186219  1.0000
  C   C26       1.0  0.1251027485773808  0.688643752701227  0.8111641266081615  1.0000
  C   C27       1.0  0.059372844791163004  0.6277456558221437  0.7421014198190776  1.0000
  C   C28       1.0  0.9965149294737662  0.5542949408687046  0.8220224791600401  1.0000
  O   O1        1.0  0.19466075505077662  0.7357110504696044  0.03686500401131032  1.0000
  C   C29       1.0  0.2625655145095662  0.8106909909002379  0.9689373913762722  1.0000
  H   H16       1.0  0.8037693980986518  0.4606848900885701  0.0892034723892041  1.0000
  H   H17       1.0  0.1726161651573732  0.7430714450303  0.7456512827528368  1.0000
  H   H18       1.0  0.05875472238303892  0.6351866600768317  0.6250483098143351  1.0000
  H   H19       1.0  0.8661822622641667  0.4907047865765426  0.5484145483978615  1.0000
  H   H20       1.0  0.2411372485181358  0.9085722406772618  0.905114418904235  1.0000
  H   H21       1.0  0.2963128274515885  0.7386611195467677  0.8978283236421029  1.0000
  H   H22       1.0  0.3047032492251307  0.8445926835672137  0.05322112583768001  1.0000
  Zn  Zn1       1.0  0.9080631676063826  0.5516726496137704  0.4000957925084274  1.0000
  Zn  Zn2       1.0  0.08759907959045708  0.549242180161376  0.3973384208331556  1.0000
  C   C30       1.0  0.9969789777698025  0.5470995975252357  0.6619812048624314  1.0000
  C   C31       1.0  0.998685240026063  0.5538170264868072  0.13545312424154066  1.0000
  C   C32       1.0  0.9993706098870611  0.813779751710056  0.39360863303448435  1.0000
  C   C33       1.0  0.9962935363949026  0.28713514129486223  0.4038257696826215  1.0000
  O   O2        1.0  0.06666044204066773  0.5553036284159878  0.18811787846277905  1.0000
  O   O3        1.0  0.06526737378087266  0.5437672338903228  0.6072232517612228  1.0000
  O   O4        1.0  0.06719772382290644  0.759114857046499  0.3905105189535605  1.0000
  O   O5        1.0  0.06473003113185594  0.33995601542509846  0.4048305041540221  1.0000
  O   O6        1.0  0.9309321547982204  0.7609588151809492  0.3926037101209383  1.0000
  O   O7        1.0  0.9290018150033248  0.5456129238627987  0.6093163702488433  1.0000
  O   O8        1.0  0.9303948884319885  0.5571492524256807  0.19020926373240377  1.0000
  O   O9        1.0  0.9284644771231916  0.34180163010040565  0.40692199747344326  1.0000
