data_image0
_chemical_formula_structural       NC5NC4H6C6NCH9C6NCH7Zn2C4O8
_chemical_formula_sum              "N4 C27 H22 Zn2 O8"
_cell_length_a       13.854160002989762
_cell_length_b       9.273386996610926
_cell_length_c       9.273390368590327
_cell_angle_alpha    86.07317832945773
_cell_angle_beta     89.99084465989662
_cell_angle_gamma    89.39858485477477

_space_group_name_H-M_alt    "P 1"
_space_group_IT_number       1

loop_
  _space_group_symop_operation_xyz
  'x, y, z'

loop_
  _atom_site_type_symbol
  _atom_site_label
  _atom_site_symmetry_multiplicity
  _atom_site_fract_x
  _atom_site_fract_y
  _atom_site_fract_z
  _atom_site_occupancy
  N   N1        1.0  0.8981050329129426  0.5619481388898933  0.40762058465040374  1.0000
  C   C1        1.0  0.8256058858698396  0.586540490880521  0.3485448467296275  1.0000
  C   C2        1.0  0.7354159243214269  0.6171340367723015  0.2750523672278371  1.0000
  C   C3        1.0  0.6480388924768505  0.5884037157139859  0.34680936423867514  1.0000
  C   C4        1.0  0.5602735118536782  0.6171340508599678  0.2750523440364492  1.0000
  C   C5        1.0  0.47049774552416573  0.5865403444889947  0.34854493857472846  1.0000
  N   N2        1.0  0.39833146276138276  0.5619480753723674  0.4076205846680156  1.0000
  C   C6        1.0  0.5599135323424522  0.6752014864034337  0.13155632210352605  1.0000
  C   C7        1.0  0.6472427393660021  0.7060814990728046  0.05969237657198056  1.0000
  C   C8        1.0  0.6468505037909557  0.7642680796569463  0.9047093040291694  1.0000
  C   C9        1.0  0.7349906214038285  0.6752014841185214  0.13155623184589227  1.0000
  H   H1        1.0  0.648343596413964  0.543349321779089  0.45787283298558745  1.0000
  H   H2        1.0  0.4918975560408984  0.6964034454773571  0.07588232596966038  1.0000
  H   H3        1.0  0.7112300653223658  0.8321970982342825  0.880815610052687  1.0000
  H   H4        1.0  0.5815215876386831  0.8321971008032247  0.8808156751211631  1.0000
  H   H5        1.0  0.6474997353987494  0.6729554363951832  0.8333183645586092  1.0000
  H   H6        1.0  0.8027205143478848  0.6964035570881528  0.07588224037605837  1.0000
  C   C10       1.0  0.15119091639931254  0.13830164205881273  0.40832884183299056  1.0000
  C   C11       1.0  0.16816246669127732  0.22039206085357316  0.27801271250423154  1.0000
  C   C12       1.0  0.17604585163605102  0.15450390676685632  0.14768852692297374  1.0000
  C   C13       1.0  0.16707718527671278  0.004167739915303732  0.14434838398670718  1.0000
  C   C14       1.0  0.15180670401536078  0.9211095946902782  0.27421182440092695  1.0000
  C   C15       1.0  0.14525487793241432  0.985583576123709  0.4069248738770747  1.0000
  N   N3        1.0  0.17414509271849218  0.9332145611534369  0.011333526613156002  1.0000
  C   C16       1.0  0.1902499666511127  0.009616077712274015  0.8706875281121298  1.0000
  H   H7        1.0  0.17086811723375694  0.4029615108176959  0.6449517470722921  1.0000
  H   H8        1.0  0.17308592270530251  0.3370191582958546  0.2762444811110395  1.0000
  H   H9        1.0  0.18823595396013482  0.2220654090098937  0.049788589433356296  1.0000
  H   H10       1.0  0.14725117928882403  0.8046843581017697  0.27193815305124014  1.0000
  H   H11       1.0  0.18073067815054655  0.8579529442942762  0.7579640252313926  1.0000
  H   H12       1.0  0.16732052996812974  0.8208792075305762  0.014322223473917765  1.0000
  H   H13       1.0  0.13041732683428117  0.08792347109404239  0.8456458562166309  1.0000
  H   H14       1.0  0.26011322204374476  0.06717028790971113  0.8709201056306112  1.0000
  H   H15       1.0  0.1926985804485113  0.931272537572593  0.7853630014303357  1.0000
  C   C17       1.0  0.14829916299562887  0.5574438459244897  0.9843885263576676  1.0000
  C   C18       1.0  0.2369706523812305  0.5545773699519179  0.057995770940327596  1.0000
  C   C19       1.0  0.3240019051404348  0.5651218271864491  0.982563518442062  1.0000
  C   C20       1.0  0.3245720659657745  0.5789235901032241  0.8309126594204013  1.0000
  C   C21       1.0  0.23650594612731268  0.5793571115100855  0.756499844479654  1.0000
  C   C22       1.0  0.14814667410992216  0.5664414166438894  0.8308651512734161  1.0000
  N   N4        1.0  0.41322306988258806  0.5911291237087218  0.7501041714688199  1.0000
  C   C23       1.0  0.5085227606892526  0.5912991415702846  0.8170920969932093  1.0000
  H   H16       1.0  0.9964350723523534  0.4881454023037401  0.2703433388719765  1.0000
  H   H17       1.0  0.39051493745599264  0.5637943266918584  0.043686729225506316  1.0000
  H   H18       1.0  0.9239882028264381  0.4543624750825095  0.7355597671066836  1.0000
  H   H19       1.0  0.41002427632559946  0.6006902095731089  0.6372124943771973  1.0000
  H   H20       1.0  0.5141386842607983  0.6838436095539174  0.886407279662885  1.0000
  H   H21       1.0  0.5210189914803337  0.488175934679257  0.8828169192869745  1.0000
  H   H22       1.0  0.565011821140722  0.6022053837998451  0.7321834634374627  1.0000
  Zn  Zn1       1.0  0.04245960619356647  0.5619443467041492  0.40762892302953796  1.0000
  Zn  Zn2       1.0  0.2539769712314858  0.5619401879223395  0.4076241025828559  1.0000
  C   C24       1.0  0.14821358928178108  0.5589934414216557  0.6708724747659405  1.0000
  C   C25       1.0  0.1482252851280852  0.5648929149359192  0.14438068923814185  1.0000
  C   C26       1.0  0.14637299828720013  0.8253682207295502  0.4014468914964282  1.0000
  C   C27       1.0  0.15006581607596514  0.29851640317238215  0.41380635222157847  1.0000
  O   O1        1.0  0.22847027283502652  0.5673850184768552  0.19807370174214473  1.0000
  O   O2        1.0  0.22850539515950108  0.5564970887194333  0.6171753905683528  1.0000
  O   O3        1.0  0.22701801230945556  0.7715981077303039  0.3996123233865035  1.0000
  O   O4        1.0  0.22995758345569126  0.35228400863884746  0.4156366608433837  1.0000
  O   O5        1.0  0.06647892178885549  0.7716005259905501  0.39961636476307194  1.0000
  O   O6        1.0  0.06796629250509563  0.5565012394382309  0.6171793522250582  1.0000
  O   O7        1.0  0.06793117090923362  0.5673891005038498  0.19807593065975276  1.0000
  O   O8        1.0  0.0694184815787735  0.3522880814958884  0.4156389978356628  1.0000
