data_image0
_chemical_formula_structural       NC5NC4H6C6NH7C6ClH5Zn2C4O8
_chemical_formula_sum              "N3 C25 H18 Cl1 Zn2 O8"
_cell_length_a       13.854160002989762
_cell_length_b       9.274771166103582
_cell_length_c       10.302974078461048
_cell_angle_alpha    85.4557754151483
_cell_angle_beta     89.99987288003342
_cell_angle_gamma    90.59704847255895

_space_group_name_H-M_alt    "P 1"
_space_group_IT_number       1

loop_
  _space_group_symop_operation_xyz
  'x, y, z'

loop_
  _atom_site_type_symbol
  _atom_site_label
  _atom_site_symmetry_multiplicity
  _atom_site_fract_x
  _atom_site_fract_y
  _atom_site_fract_z
  _atom_site_occupancy
  N   N1        1.0  0.9199237970559561  0.5786602005697243  0.5653647832048903  1.0000
  C   C1        1.0  0.8477671137920101  0.6038770760332945  0.5121466880075947  1.0000
  C   C2        1.0  0.7580031863548126  0.6352475530714825  0.4459413403414776  1.0000
  C   C3        1.0  0.6702261528196627  0.6057584929831228  0.510583099321442  1.0000
  C   C4        1.0  0.5828607740835771  0.6352475674037172  0.44594131944889764  1.0000
  C   C5        1.0  0.4926589713996028  0.6038769286854846  0.5121467707636005  1.0000
  N   N2        1.0  0.42015022601509516  0.5786601370606226  0.5653647832312005  1.0000
  C   C6        1.0  0.5833092941608968  0.6948322077317612  0.3166738905373796  1.0000
  C   C7        1.0  0.6710685971069109  0.7264718046301275  0.2519354412862902  1.0000
  C   C8        1.0  0.6714861693586343  0.7862976583584942  0.11232072473995713  1.0000
  C   C9        1.0  0.7583863831874542  0.6948322064064181  0.31667380923577837  1.0000
  H   H1        1.0  0.6699035351174674  0.5595298235478373  0.6106338985108712  1.0000
  H   H2        1.0  0.5155884197199467  0.7166229961889012  0.2665205628014873  1.0000
  H   H3        1.0  0.736816048585712  0.8544714097139978  0.09078666951616965  1.0000
  H   H4        1.0  0.6071075709400348  0.8544714115910435  0.09078672812791666  1.0000
  H   H5        1.0  0.6708547065194802  0.6957561388664433  0.04802844373394155  1.0000
  H   H6        1.0  0.8264113795869009  0.7166231086942552  0.2665204856824057  1.0000
  C   C10       1.0  0.16707827731607075  0.15506361358320384  0.5660724362556875  1.0000
  C   C11       1.0  0.14486721011888076  0.23837237229039898  0.4499743589173173  1.0000
  C   C12       1.0  0.13166811738617623  0.17332299263026976  0.33313969017766065  1.0000
  C   C13       1.0  0.1407306945423672  0.02358738128322435  0.33155685436467763  1.0000
  C   C14       1.0  0.16115689029570768  0.9389591947929818  0.44606008347018095  1.0000
  C   C15       1.0  0.17300492558678773  0.0022456515839996962  0.5646684352483828  1.0000
  N   N3        1.0  0.11005008107782643  0.2597312492797008  0.21576562774935779  1.0000
  H   H7        1.0  0.27570655255905163  0.23472390387681985  0.8502001526564009  1.0000
  H   H8        1.0  0.1400004078089978  0.35496508106517033  0.44947566058474364  1.0000
  H   H9        1.0  0.13103216277749752  0.9721001631804346  0.24166436427757487  1.0000
  H   H10       1.0  0.16541065794360052  0.8227951790091973  0.44234193098500557  1.0000
  H   H11       1.0  0.24225828231282778  0.7051793225632088  0.757975882540963  1.0000
  H   H12       1.0  0.103399774425593  0.37180515143195786  0.21572346012159316  1.0000
  H   H13       1.0  0.10044241707949775  0.21226123881751693  0.12800819124890062  1.0000
  C   C16       1.0  0.17004160288730102  0.5786546337334209  0.1841279287578137  1.0000
  C   C17       1.0  0.15220362842822066  0.4288337649115837  0.1936098935832553  1.0000
  C   C18       1.0  0.1433529614933444  0.3544967304761668  0.08135779472644655  1.0000
  C   C19       1.0  0.15220367216764288  0.4288338463768274  0.9585019944771399  1.0000
  C   C20       1.0  0.17004159990435896  0.5786545592737882  0.9466129479546348  1.0000
  C   C21       1.0  0.17887365249975185  0.6528347110949231  0.06007978938425129  1.0000
  Cl  Cl1       1.0  0.12106909684282402  0.1673348730601001  0.09470656413741096  1.0000
  H   H14       1.0  0.17676141654207292  0.6350895691129266  0.5078591753551334  1.0000
  H   H15       1.0  0.1451090625616096  0.3692465067588302  0.28790632213307843  1.0000
  H   H16       1.0  0.14510912986673108  0.3692464861757214  0.8727053560932889  1.0000
  H   H17       1.0  0.19263079050319204  0.7683810619542482  0.05183868848301465  1.0000
  H   H18       1.0  0.1767612327841337  0.6350895563479473  0.6148315448948991  1.0000
  Zn  Zn1       1.0  0.06427831750387503  0.5786563202777224  0.5653722948465425  1.0000
  Zn  Zn2       1.0  0.27579562416414477  0.5786522132915191  0.5653679533842173  1.0000
  C   C22       1.0  0.16999923292193908  0.5729080594149945  0.8024964494190441  1.0000
  C   C23       1.0  0.17007703124107576  0.5844022941675187  0.3282439231721346  1.0000
  C   C24       1.0  0.17187968298648829  0.8421101824863219  0.5597603428256555  1.0000
  C   C25       1.0  0.16819649687641358  0.3151984380282309  0.5709801018548861  1.0000
  O   O1        1.0  0.25035859284152706  0.5863234098459686  0.3766089302806117  1.0000
  O   O2        1.0  0.2502544052865665  0.5709827384253598  0.7541277753224818  1.0000
  O   O3        1.0  0.25177181042103575  0.7883668573519085  0.5581166493865717  1.0000
  O   O4        1.0  0.248841115602719  0.36893930123972263  0.572619958858513  1.0000
  O   O5        1.0  0.09123275388483587  0.7883692323324911  0.5581202893668968  1.0000
  O   O6        1.0  0.08971536087001449  0.570986846476875  0.7541313432080949  1.0000
  O   O7        1.0  0.08981954813755386  0.5863274676305668  0.376610937366439  1.0000
  O   O8        1.0  0.08830207082261966  0.3689433487069904  0.5726220632970005  1.0000
