data_image0
_chemical_formula_structural       NC9NC5H8C7OCH10C6NO2H3Zn2C4O8
_chemical_formula_sum              "N3 C32 H21 O11 Zn2"
_cell_length_a       17.807436237873137
_cell_length_b       10.30083208314754
_cell_length_c       9.273395971720356
_cell_angle_alpha    84.94403115029091
_cell_angle_beta     89.26497821809997
_cell_angle_gamma    88.38439813745397

_space_group_name_H-M_alt    "P 1"
_space_group_IT_number       1

loop_
  _space_group_symop_operation_xyz
  'x, y, z'

loop_
  _atom_site_type_symbol
  _atom_site_label
  _atom_site_symmetry_multiplicity
  _atom_site_fract_x
  _atom_site_fract_y
  _atom_site_fract_z
  _atom_site_occupancy
  N   N1        1.0  0.7089527829802966  0.40267061422788264  0.3955178279815901  1.0000
  C   C1        1.0  0.6483795405635998  0.36759850088003376  0.38327652835249487  1.0000
  C   C2        1.0  0.5730330845755557  0.3239726543960646  0.36804968073941935  1.0000
  C   C3        1.0  0.5550633023130528  0.2536567957012421  0.251351187204635  1.0000
  C   C4        1.0  0.48190587987854916  0.21118883550379028  0.23647508843041434  1.0000
  C   C5        1.0  0.4256695782762143  0.23865957244541744  0.3382615518168055  1.0000
  C   C6        1.0  0.3479219985645287  0.19364112073625067  0.3225433050493668  1.0000
  C   C7        1.0  0.2857120854138037  0.27512063165626754  0.3513470730952264  1.0000
  C   C8        1.0  0.212412353908337  0.23244950710691056  0.33648625987078634  1.0000
  C   C9        1.0  0.1491517955649028  0.316616365453997  0.36569353654208414  1.0000
  N   N2        1.0  0.0983032960843199  0.38428068518072434  0.38917538160849285  1.0000
  C   C10       1.0  0.2007390332588703  0.10804117627722906  0.29279359663302074  1.0000
  C   C11       1.0  0.2620915867522406  0.026547901536744016  0.26398050750093716  1.0000
  C   C12       1.0  0.3352721349523749  0.06882662578760267  0.2786163202082626  1.0000
  C   C13       1.0  0.4443304921485084  0.30946747498654226  0.4552035626919  1.0000
  C   C14       1.0  0.5175409708567963  0.3517466769414035  0.469906705747013  1.0000
  H   H1        1.0  0.5975398529307631  0.23192018164622372  0.171640790751721  1.0000
  H   H2        1.0  0.4690892325575323  0.15837438259313097  0.14431757702625703  1.0000
  H   H3        1.0  0.2941718339609056  0.3722769918989556  0.38341101108271314  1.0000
  H   H4        1.0  0.1442877520464777  0.07411818652681855  0.28102879756106525  1.0000
  H   H5        1.0  0.252934794366783  0.930224076117056  0.23058183032782778  1.0000
  H   H6        1.0  0.3819379275256602  0.0032852250039725464  0.2574662710498701  1.0000
  H   H7        1.0  0.4025694001367392  0.3306516020768169  0.5363531828426562  1.0000
  H   H8        1.0  0.530887068575765  0.40579246521706835  0.5609058375156546  1.0000
  C   C15       1.0  0.9036524481588426  0.012136346993350857  0.39249771776122944  1.0000
  C   C16       1.0  0.882887289697551  0.02390951611890912  0.24624745373661597  1.0000
  C   C17       1.0  0.8715541315277954  0.9127278491480372  0.17305482229899916  1.0000
  C   C18       1.0  0.8828334410352696  0.7886567088523978  0.24586689814533316  1.0000
  C   C19       1.0  0.9036108183847226  0.7748045305792336  0.39220793746812754  1.0000
  C   C20       1.0  0.9137221547079413  0.8871032807573488  0.4647502929242757  1.0000
  C   C21       1.0  0.851490958872171  0.9264302054009559  0.015472645794413431  1.0000
  O   O1        1.0  0.9183016719254887  0.9299656093804488  0.9318559828037293  1.0000
  C   C22       1.0  0.9002239858468329  0.9428431635806501  0.7836248366513598  1.0000
  H   H9        1.0  0.9124594765044727  0.3350196249794746  0.44806741783772086  1.0000
  H   H10       1.0  0.8754582374978812  0.11948784362683496  0.1886559416241392  1.0000
  H   H11       1.0  0.8753667389856025  0.703091861158851  0.1880141457676583  1.0000
  H   H12       1.0  0.9297435307624757  0.8772601858333139  0.5775404849321775  1.0000
  H   H13       1.0  0.9436302084076825  0.5414190803382743  0.6678155495263511  1.0000
  H   H14       1.0  0.816925929423104  0.017560732604333645  0.9919015915386794  1.0000
  H   H15       1.0  0.8169564252952713  0.8424729360282167  0.9915700701386677  1.0000
  H   H16       1.0  0.9532135072293694  0.9454741660284294  0.7193519782351667  1.0000
  H   H17       1.0  0.8682540659558378  0.0355441462533892  0.7540403132708171  1.0000
  H   H18       1.0  0.8682674820421086  0.8580648588084969  0.7536823529451038  1.0000
  C   C23       1.0  0.9040589342807253  0.3974395714640648  0.968407620614169  1.0000
  C   C24       1.0  0.8370968546375971  0.43024215410760597  0.040073820916697325  1.0000
  C   C25       1.0  0.7699251554432963  0.4507758146401588  0.9647319900726719  1.0000
  C   C26       1.0  0.767809896463304  0.43894560633444635  0.8154763531441818  1.0000
  C   C27       1.0  0.8347317071643849  0.40837002332199135  0.7423722833357456  1.0000
  C   C28       1.0  0.9032042879172023  0.38950130707403824  0.8162980306306749  1.0000
  N   N3        1.0  0.6981626676246608  0.4591634324070726  0.738466928231009  1.0000
  O   O2        1.0  0.6328721766679932  0.4901550301733377  0.8102944524899892  1.0000
  O   O3        1.0  0.6957706479958071  0.44857466211472746  0.6055144276202151  1.0000
  H   H19       1.0  0.0684601755314771  0.24419607754698266  0.08220694346770263  1.0000
  H   H20       1.0  0.719362909882844  0.47469672879614566  0.02393041351481308  1.0000
  H   H21       1.0  0.015296358040578268  0.29005921851276795  0.5430586751510514  1.0000
  Zn  Zn1       1.0  0.8213109212087972  0.3973601347649266  0.3936958855815656  1.0000
  Zn  Zn2       1.0  0.985945128273922  0.38958046817989245  0.3910091965868504  1.0000
  C   C29       1.0  0.9033644559666371  0.38582861668565105  0.6560305619713547  1.0000
  C   C30       1.0  0.9038933910841932  0.4011135384702457  0.12867463193277917  1.0000
  C   C31       1.0  0.9036205991261363  0.63069805628917  0.386509822112603  1.0000
  C   C32       1.0  0.9036371917541774  0.1562425406202408  0.3981954502696414  1.0000
  O   O4        1.0  0.9663156571674331  0.39938854713642336  0.18144212266959903  1.0000
  O   O5        1.0  0.9658957441419722  0.3816480453356296  0.6012235212431003  1.0000
  O   O6        1.0  0.9661017392386301  0.5793832403569881  0.3835836301348107  1.0000
  O   O7        1.0  0.9661096060008704  0.20165336507266907  0.3990819064455031  1.0000
  O   O8        1.0  0.8411463873002814  0.5852872405284535  0.38562317663215384  1.0000
  O   O9        1.0  0.8409403921925727  0.3875536064098838  0.603262990171574  1.0000
  O   O10       1.0  0.8413603070199777  0.4052940792063071  0.18347985589795757  1.0000
  O   O11       1.0  0.8411542557417522  0.20755888684125168  0.4011197479154882  1.0000
