data_image0
_chemical_formula_structural       NC10NC3NH7C12ClH9C12NCOH11Zn2C4O8
_chemical_formula_sum              "N4 C42 H27 Cl1 O9 Zn2"
_cell_length_a       19.210446455230148
_cell_length_b       10.299768534541528
_cell_length_c       10.299148425239203
_cell_angle_alpha    85.5385229165027
_cell_angle_beta     89.97590399293748
_cell_angle_gamma    89.96529235611058

_space_group_name_H-M_alt    "P 1"
_space_group_IT_number       1

loop_
  _space_group_symop_operation_xyz
  'x, y, z'

loop_
  _atom_site_type_symbol
  _atom_site_label
  _atom_site_symmetry_multiplicity
  _atom_site_fract_x
  _atom_site_fract_y
  _atom_site_fract_z
  _atom_site_occupancy
  N   N1        1.0  0.6559061623760073  0.4207694812720557  0.5673186773938652  1.0000
  C   C1        1.0  0.5956777820999785  0.4229768397901523  0.5675499906092121  1.0000
  C   C2        1.0  0.520873552170099  0.42571356023660467  0.5678365589610133  1.0000
  C   C3        1.0  0.4852711590907415  0.5419345269669793  0.5829572274530563  1.0000
  C   C4        1.0  0.4126056988798769  0.5420860830478074  0.5829046368278725  1.0000
  C   C5        1.0  0.3757068498392471  0.4264224713526115  0.5679230959237034  1.0000
  C   C6        1.0  0.2983846205246241  0.42506609571776743  0.5677724019766863  1.0000
  C   C7        1.0  0.26064680373516597  0.5286614746087135  0.504413409195853  1.0000
  C   C8        1.0  0.187868339489542  0.5272593270026935  0.5043042326698548  1.0000
  C   C9        1.0  0.1518263092852912  0.42251932577595347  0.5675030661490303  1.0000
  C   C10       1.0  0.0768966923370425  0.42121733680953505  0.567366140093349  1.0000
  N   N2        1.0  0.0166587621087842  0.4201704934577764  0.5672560864198053  1.0000
  C   C11       1.0  0.188840482395625  0.31904964701650695  0.630837057311574  1.0000
  C   C12       1.0  0.26162076594208933  0.32017751185502014  0.630996464466216  1.0000
  C   C13       1.0  0.4139192290855362  0.31202158866759966  0.5530907344906291  1.0000
  N   N3        1.0  0.4846893685129355  0.31446642860073526  0.5532564738456287  1.0000
  H   H1        1.0  0.5133784489370087  0.6313605941455318  0.5950125115329413  1.0000
  H   H2        1.0  0.3853430607316293  0.6320933934449482  0.5963547764549624  1.0000
  H   H3        1.0  0.28738679576735  0.6099349231233171  0.4534248892911783  1.0000
  H   H4        1.0  0.1597344169736309  0.6077045128504708  0.45464613866014963  1.0000
  H   H5        1.0  0.1614610018262678  0.23764113244701487  0.6803955948391003  1.0000
  H   H6        1.0  0.2891096629044467  0.2398508829821706  0.6820923884246273  1.0000
  H   H7        1.0  0.3876476045769828  0.2211513998404282  0.5395942863515606  1.0000
  C   C14       1.0  0.8362201344497436  0.03910471422377415  0.5672852721366994  1.0000
  C   C15       1.0  0.8408235472645238  0.04871973295522447  0.43080610158477683  1.0000
  C   C16       1.0  0.8432230524194133  0.936452258010498  0.361658398210005  1.0000
  C   C17       1.0  0.8409564933711687  0.8134317883082048  0.4308215695454094  1.0000
  C   C18       1.0  0.8363514430106299  0.8018252432839389  0.5673006783274592  1.0000
  C   C19       1.0  0.8340095647170012  0.9152190957973461  0.6347682455993962  1.0000
  C   C20       1.0  0.8480940049554314  0.9476778125531127  0.2172748130652078  1.0000
  C   C21       1.0  0.8085033564354192  0.04131470503485524  0.14281272519235186  1.0000
  C   C22       1.0  0.8131500561144589  0.051684615659966175  0.006922766207167363  1.0000
  C   C23       1.0  0.857320415647511  0.9689405860057417  0.9438029317947317  1.0000
  C   C24       1.0  0.8968998649568518  0.8756165873467913  0.016753696495432013  1.0000
  C   C25       1.0  0.8923767793469629  0.8648542141326707  0.15265827830945922  1.0000
  Cl  Cl1       1.0  0.8630728306082639  0.9821973539697124  0.7733051361612485  1.0000
  H   H8        1.0  0.8344302915981657  0.3628947297337659  0.6192873073330953  1.0000
  H   H9        1.0  0.8435145415454927  0.1437496447133093  0.378069395313261  1.0000
  H   H10       1.0  0.8418309230819242  0.7266186497481122  0.37787160840211853  1.0000
  H   H11       1.0  0.8304575386636877  0.9070333639065384  0.7400556432807357  1.0000
  H   H12       1.0  0.8346244182985111  0.46994881239531333  0.619310504146265  1.0000
  H   H13       1.0  0.7733014918460731  0.10532955949606038  0.1895655349352745  1.0000
  H   H14       1.0  0.7822515899026912  0.1238732564088958  0.9508124842761867  1.0000
  H   H15       1.0  0.9313256551034987  0.8115571115155308  0.9683114265043681  1.0000
  H   H16       1.0  0.9241587620109134  0.7929580392879338  0.20727399836159055  1.0000
  C   C26       1.0  0.8363381687213639  0.42062075153416306  0.1858967791188968  1.0000
  C   C27       1.0  0.9069694404881542  0.45606205386245047  0.1819158151796465  1.0000
  C   C28       1.0  0.9426703666813594  0.47381751794163995  0.06276526091883715  1.0000
  C   C29       1.0  0.9068226383381355  0.45572215034214864  0.9466586787548728  1.0000
  C   C30       1.0  0.8362333928424687  0.420309251642823  0.9486891798262994  1.0000
  C   C31       1.0  0.8014052830641678  0.4029572030772275  0.06881397605392259  1.0000
  C   C32       1.0  0.017347710123556404  0.5112859678599229  0.059646547819884876  1.0000
  C   C33       1.0  0.06411258048290835  0.4538379191874716  0.9760392290619071  1.0000
  C   C34       1.0  0.13435026536121344  0.4892343247863551  0.9732536473828225  1.0000
  C   C35       1.0  0.15946738458756518  0.581464717762888  0.05476014786536654  1.0000
  C   C36       1.0  0.11263375023837274  0.6407590787468727  0.13679911935152633  1.0000
  C   C37       1.0  0.04236462597772817  0.6054693928980777  0.1396815498917394  1.0000
  N   N4        1.0  0.23176563118021723  0.6175513101720724  0.04821293996154806  1.0000
  C   C38       1.0  0.27181178991174965  0.6541575111218034  0.15693683448545293  1.0000
  O   O1        1.0  0.24825629815239128  0.6400342094330203  0.2713008098809877  1.0000
  H   H17       1.0  0.7031357408476785  0.3529629787121544  0.4007634878638753  1.0000
  H   H18       1.0  0.9345893314197551  0.46821149837105697  0.2718376750368974  1.0000
  H   H19       1.0  0.9338333898358709  0.471068840306601  0.8544214073068254  1.0000
  H   H20       1.0  0.7469588470413133  0.3756388124492962  0.07109524764232722  1.0000
  H   H21       1.0  0.8090849086026897  0.4066521992606993  0.621997026136115  1.0000
  H   H22       1.0  0.046549991526497976  0.38035799902260803  0.9138679402165737  1.0000
  H   H23       1.0  0.16951455076340527  0.4436384303864358  0.9082917093804421  1.0000
  H   H24       1.0  0.12980169613151538  0.7164041714335057  0.1965639119368285  1.0000
  H   H25       1.0  0.007282936868569179  0.6537313782355192  0.20275095360263903  1.0000
  H   H26       1.0  0.2585363526681521  0.6085676301477243  0.9610250399138257  1.0000
  H   H27       1.0  0.32408501529427886  0.691110141624266  0.14110464535097564  1.0000
  Zn  Zn1       1.0  0.7600115675078695  0.42059315924464635  0.5673081145247261  1.0000
  Zn  Zn2       1.0  0.9125533377542797  0.4203362286949363  0.5672772856132515  1.0000
  C   C39       1.0  0.8362507602269175  0.4151945034775828  0.8045050080635975  1.0000
  C   C40       1.0  0.8363158110511951  0.4257365202082245  0.3300805192465024  1.0000
  C   C41       1.0  0.8363237449468953  0.6576569826160203  0.5621222616541357  1.0000
  C   C42       1.0  0.8362427740012609  0.18327248084148362  0.5724633348784616  1.0000
  O   O2        1.0  0.8941971134679007  0.4273502494163703  0.37845820004204  1.0000
  O   O3        1.0  0.8941451317336288  0.4133847903666956  0.7561035549449351  1.0000
  O   O4        1.0  0.8942032872637395  0.6091763093904465  0.5603777725062231  1.0000
  O   O5        1.0  0.8941389059005914  0.2315587398101937  0.5741838851098204  1.0000
  O   O6        1.0  0.7784259473065391  0.6093706482184829  0.5604015150318454  1.0000
  O   O7        1.0  0.7783677920513663  0.41358068951213034  0.7561272282517493  1.0000
  O   O8        1.0  0.7784197740386133  0.4275461039438686  0.37848031183545316  1.0000
  O   O9        1.0  0.7783615664534841  0.23175458500921198  0.5742060942778544  1.0000
