data_image0
_chemical_formula_structural       NC12NC2H8C6OCH8C6OCH7Zn2C4O8
_chemical_formula_sum              "N2 C32 H23 O10 Zn2"
_cell_length_a       17.80743265337812
_cell_length_b       9.273888216677431
_cell_length_c       9.273891588657152
_cell_angle_alpha    86.27290680644057
_cell_angle_beta     91.22048166911064
_cell_angle_gamma    88.85715842325122

_space_group_name_H-M_alt    "P 1"
_space_group_IT_number       1

loop_
  _space_group_symop_operation_xyz
  'x, y, z'

loop_
  _atom_site_type_symbol
  _atom_site_label
  _atom_site_symmetry_multiplicity
  _atom_site_fract_x
  _atom_site_fract_y
  _atom_site_fract_z
  _atom_site_occupancy
  N   N1        1.0  0.7038462241770741  0.5480258299133673  0.4529176564264521  1.0000
  C   C1        1.0  0.6530798950226725  0.580156906815346  0.37678705701537174  1.0000
  C   C2        1.0  0.589921550907882  0.6201256712103187  0.28209018055947266  1.0000
  C   C3        1.0  0.6017494717004944  0.6788365542734247  0.1417709914593901  1.0000
  C   C4        1.0  0.5404993556250982  0.7171597662615758  0.049727595746607456  1.0000
  C   C5        1.0  0.467267648061893  0.697058005573487  0.09727202484958997  1.0000
  C   C6        1.0  0.4544621106902868  0.638219924208353  0.23811029755393884  1.0000
  C   C7        1.0  0.5165695780299134  0.5999001587245087  0.33013538148556076  1.0000
  C   C8        1.0  0.3766592944594868  0.6169098241584718  0.28882486718347433  1.0000
  C   C9        1.0  0.3573003540496481  0.6483870719201603  0.42990741239162356  1.0000
  C   C10       1.0  0.28403832684417313  0.6283318905749689  0.47749700489506836  1.0000
  C   C11       1.0  0.22919100513373597  0.5765255629620235  0.3849330546619754  1.0000
  C   C12       1.0  0.15379099784439654  0.5558706244546439  0.4340753069012411  1.0000
  N   N2        1.0  0.093174731603175  0.5392654423469818  0.4735822969377308  1.0000
  C   C13       1.0  0.2478576566895397  0.5448662262007444  0.24445245038135854  1.0000
  C   C14       1.0  0.3210675795668769  0.5649352376609835  0.19657894598845682  1.0000
  H   H1        1.0  0.6582417643143249  0.6949504163334788  0.1036086172897992  1.0000
  H   H2        1.0  0.5497729643167073  0.7629206526536996  0.9413708544092074  1.0000
  H   H3        1.0  0.4206708668749656  0.729305614375469  0.024590676902864757  1.0000
  H   H4        1.0  0.50800279542529  0.5525995717301437  0.43834903841825845  1.0000
  H   H5        1.0  0.3985467449536171  0.6903398107084611  0.5028095067986507  1.0000
  H   H6        1.0  0.2701478706404929  0.6535841974580445  0.5863388399055138  1.0000
  H   H7        1.0  0.2058856853765048  0.504325034759171  0.17201318231755702  1.0000
  H   H8        1.0  0.3344375576943639  0.5379807135732535  0.08806820692664785  1.0000
  C   C15       1.0  0.9007241945718855  0.12012043463803668  0.46189477419934916  1.0000
  C   C16       1.0  0.8835620379320361  0.20260772369628977  0.33223638826053614  1.0000
  C   C17       1.0  0.8599922002354241  0.13730279696404768  0.20789295419921294  1.0000
  C   C18       1.0  0.8534469554302797  0.9865160361542201  0.21273770899985345  1.0000
  C   C19       1.0  0.8714034250720939  0.9027907528237713  0.3396655817633534  1.0000
  C   C20       1.0  0.8963039561758445  0.9671597170398193  0.46461794724708994  1.0000
  O   O1        1.0  0.8432728303395387  0.22598546021437538  0.08249579532919295  1.0000
  C   C21       1.0  0.8185920762390375  0.17441932463363763  0.9485361669787881  1.0000
  H   H9        1.0  0.9057946159787897  0.19989144688824537  0.8168791759605719  1.0000
  H   H10       1.0  0.8867474964672758  0.31937306686922495  0.3281329990220099  1.0000
  H   H11       1.0  0.8351800005393061  0.9326489741637974  0.11854440667538223  1.0000
  H   H12       1.0  0.8675011637675301  0.7864058092579238  0.3389784896755206  1.0000
  H   H13       1.0  0.902869782884557  0.6702279924151947  0.7028821134229439  1.0000
  H   H14       1.0  0.7646347103904737  0.11765930226092625  0.9622845080027198  1.0000
  H   H15       1.0  0.8618491966098991  0.10044770489592758  0.9076106977067672  1.0000
  H   H16       1.0  0.8096910644281475  0.26758597743701995  0.8683719484806119  1.0000
  C   C22       1.0  0.8997647123161986  0.5397927027029827  0.04003406931994724  1.0000
  C   C23       1.0  0.9609685930255157  0.5993254055790271  0.11206903863543595  1.0000
  C   C24       1.0  0.017855023688502898  0.6697235240899237  0.03552900852133444  1.0000
  C   C25       1.0  0.013740444939130292  0.6809457231506979  0.8839088720967254  1.0000
  C   C26       1.0  0.9541194087480159  0.6205042298423771  0.8106126690065478  1.0000
  C   C27       1.0  0.8972634384834974  0.5474873973485874  0.8864786242730709  1.0000
  O   O2        1.0  0.07701655948213681  0.7275266603669313  0.11408228221093286  1.0000
  C   C28       1.0  0.13848341793249141  0.802037086606777  0.05053346603587494  1.0000
  H   H17       1.0  0.7215378951519048  0.4552317574759601  0.14128214539722062  1.0000
  H   H18       1.0  0.056728566843604174  0.7350452508384746  0.8214607515657466  1.0000
  H   H19       1.0  0.953474455713958  0.6279509872762703  0.6935232160863256  1.0000
  H   H20       1.0  0.7784425931383845  0.48481302947167876  0.604501040018457  1.0000
  H   H21       1.0  0.11780848528325372  0.9000886307392217  0.9853813154420009  1.0000
  H   H22       1.0  0.17018063797108218  0.7297539737535982  0.9815532645223276  1.0000
  H   H23       1.0  0.17675895671966502  0.8356451268610507  0.1375289608246122  1.0000
  Zn  Zn1       1.0  0.8161980203421373  0.5454939962761409  0.45888932150458933  1.0000
  Zn  Zn2       1.0  0.9808229595983122  0.5417856183971368  0.46762234962436505  1.0000
  C   C29       1.0  0.897764552074483  0.5402874418562098  0.7264639374938966  1.0000
  C   C30       1.0  0.8992582156509212  0.5469939533591381  0.2000479763050924  1.0000
  C   C31       1.0  0.8971525929791866  0.8069991410551787  0.45835987982794274  1.0000
  C   C32       1.0  0.8998701273865686  0.2802805233466774  0.4681521022575525  1.0000
  O   O3        1.0  0.9615625700753475  0.5479971567561117  0.257064223664883  1.0000
  O   O4        1.0  0.960406724287418  0.5364685736632291  0.6760754380367839  1.0000
  O   O5        1.0  0.9599117129668292  0.7518416763904923  0.45957947473519495  1.0000
  O   O6        1.0  0.9620575254860789  0.3326240646290765  0.47356007595858857  1.0000
  O   O7        1.0  0.8349633982759724  0.754655551311189  0.4529515921826364  1.0000
  O   O8        1.0  0.8354584007778127  0.5392841806644069  0.6694474842099893  1.0000
  O   O9        1.0  0.8366142519983013  0.5508126977457166  0.2504345369223804  1.0000
  O   O10       1.0  0.8371092071404921  0.3354395962854422  0.46693049723624025  1.0000
