data_image0
_chemical_formula_structural       NC8NH4C6NH7C6H6Zn2C4O8
_chemical_formula_sum              "N3 C24 H17 Zn2 O8"
_cell_length_a       13.859017124695912
_cell_length_b       9.274771166103582
_cell_length_c       10.681121600428288
_cell_angle_alpha    85.45578074471726
_cell_angle_beta     89.99985505477505
_cell_angle_gamma    90.59707951677755

_space_group_name_H-M_alt    "P 1"
_space_group_IT_number       1

loop_
  _space_group_symop_operation_xyz
  'x, y, z'

loop_
  _atom_site_type_symbol
  _atom_site_label
  _atom_site_symmetry_multiplicity
  _atom_site_fract_x
  _atom_site_fract_y
  _atom_site_fract_z
  _atom_site_occupancy
  N   N1        1.0  0.9196014468150693  0.5786608310476007  0.6161553196430556  1.0000
  C   C1        1.0  0.8470875792342843  0.5557962752383641  0.5673957536741564  1.0000
  C   C2        1.0  0.7568846472018129  0.5273561137270621  0.5067451195750834  1.0000
  C   C3        1.0  0.6694626992913668  0.5550823943276506  0.5658718559417657  1.0000
  C   C4        1.0  0.5816543358935329  0.5273573398427946  0.5067446143179888  1.0000
  C   C5        1.0  0.581450277067842  0.4718985031794188  0.38847248533762957  1.0000
  C   C6        1.0  0.6686904074476098  0.44427878706855806  0.32957334386146764  1.0000
  C   C7        1.0  0.7563156195523406  0.471896153161633  0.38847351284995874  1.0000
  C   C8        1.0  0.4918477469799367  0.555797202012632  0.5673953195129293  1.0000
  N   N2        1.0  0.41965257465402706  0.5786611537345072  0.6161551314563407  1.0000
  H   H1        1.0  0.669761854602908  0.598009700602709  0.6574173159985328  1.0000
  H   H2        1.0  0.5140027653169011  0.4500768995966303  0.34193326805908986  1.0000
  H   H3        1.0  0.6683919292433596  0.40143916692277215  0.23821327762935304  1.0000
  H   H4        1.0  0.8234589508921599  0.45007244835017923  0.3419351670630062  1.0000
  C   C9        1.0  0.16666930913654524  0.1550644532798462  0.6168378196627589  1.0000
  C   C10       1.0  0.14446602983415668  0.23837318121678908  0.5048500133639167  1.0000
  C   C11       1.0  0.13127156667802775  0.17332377833649718  0.3921516898380215  1.0000
  C   C12       1.0  0.14033096780936738  0.023588174495077226  0.3906248880747662  1.0000
  C   C13       1.0  0.160750001247147  0.9389600171002024  0.5010743098478072  1.0000
  C   C14       1.0  0.17259388039619397  0.0022464961510442172  0.6154835226175519  1.0000
  N   N3        1.0  0.10966111047215522  0.25973200458589574  0.2789330723699739  1.0000
  H   H5        1.0  0.2752595051698159  0.23472486480262658  0.8909064162779661  1.0000
  H   H6        1.0  0.1396009331631709  0.3549658858217617  0.504368972592071  1.0000
  H   H7        1.0  0.13063583793270753  0.9721009389132986  0.3039148981273687  1.0000
  H   H8        1.0  0.16500227823832136  0.8227960045325104  0.49748779073864097  1.0000
  H   H9        1.0  0.24182296023630068  0.7051802456721362  0.8019472087348203  1.0000
  H   H10       1.0  0.10301313449197558  0.37180590110621536  0.2788924003015538  1.0000
  H   H11       1.0  0.1000568164467599  0.21226197694183613  0.19428254790090005  1.0000
  C   C15       1.0  0.16963160864778185  0.5786554365420626  0.24841543003025343  1.0000
  C   C16       1.0  0.10000794302131166  0.49842986465450584  0.18712121167809803  1.0000
  C   C17       1.0  0.10000788342545408  0.4984299571476423  0.056239071577363076  1.0000
  C   C18       1.0  0.1696315332894496  0.5786555072522899  0.9839058655935835  1.0000
  C   C19       1.0  0.2391977316867273  0.6588145961665034  0.045199609896146686  1.0000
  C   C20       1.0  0.23919771918534538  0.6588145737988058  0.1760919085949535  1.0000
  H   H12       1.0  0.24003959606274328  0.6597855332289335  0.5415434569481253  1.0000
  H   H13       1.0  0.04543362703695775  0.4355452697787843  0.24025859029266725  1.0000
  H   H14       1.0  0.04543360736020885  0.4355453376788248  0.011754560958594729  1.0000
  H   H15       1.0  0.29377917490900396  0.721707477612784  0.9921065534002191  1.0000
  H   H16       1.0  0.29377912594059863  0.721707427045692  0.2205309209654782  1.0000
  H   H17       1.0  0.24003989369277945  0.6597850306626194  0.6796144320380071  1.0000
  Zn  Zn1       1.0  0.06390537668616769  0.5786570729113032  0.6161625070954846  1.0000
  Zn  Zn2       1.0  0.2753485548574506  0.5786531449137239  0.6161582339812228  1.0000
  C   C21       1.0  0.1695892333441642  0.572908925969313  0.844891627096344  1.0000
  C   C22       1.0  0.16966701988050192  0.5844031118709638  0.3874292339370684  1.0000
  C   C23       1.0  0.1714690323093575  0.8421110255949247  0.6107491936139366  1.0000
  C   C24       1.0  0.167787136644737  0.3151992791773278  0.621571736956666  1.0000
  O   O1        1.0  0.24992044437515326  0.5863243004734593  0.43408192487065267  1.0000
  O   O2        1.0  0.2498162810093476  0.5709836679038123  0.7982353342164452  1.0000
  O   O3        1.0  0.25133316075203305  0.7883677678968722  0.6091636602069652  1.0000
  O   O4        1.0  0.248403492553402  0.36894021080063105  0.623153504968954  1.0000
  O   O5        1.0  0.09085036683504799  0.7883700070273072  0.6091672361026219  1.0000
  O   O6        1.0  0.08933349920776525  0.5709876401051824  0.7982388405697797  1.0000
  O   O7        1.0  0.08943766228630112  0.5863282224077513  0.4340839256817594  1.0000
  O   O8        1.0  0.0879207103884474  0.36894412241760294  0.6231555996861089  1.0000
