data_image0
_chemical_formula_structural       NC5N2C2NH4C10H6C7NH4Zn2C4O8
_chemical_formula_sum              "N5 C28 H14 Zn2 O8"
_cell_length_a       13.87973921873968
_cell_length_b       9.275150299802176
_cell_length_c       9.275157849593905
_cell_angle_alpha    85.78415629139576
_cell_angle_beta     89.74088206282475
_cell_angle_gamma    89.48389152441209

_space_group_name_H-M_alt    "P 1"
_space_group_IT_number       1

loop_
  _space_group_symop_operation_xyz
  'x, y, z'

loop_
  _atom_site_type_symbol
  _atom_site_label
  _atom_site_symmetry_multiplicity
  _atom_site_fract_x
  _atom_site_fract_y
  _atom_site_fract_z
  _atom_site_occupancy
  N   N1        1.0  0.9026522568690729  0.5636614648322541  0.4015083123134602  1.0000
  C   C1        1.0  0.829570173004155  0.5876626087828675  0.34474827619356696  1.0000
  C   C2        1.0  0.7388049023556309  0.6174743705487238  0.27424617909012533  1.0000
  C   C3        1.0  0.6523241367359082  0.5874695056012069  0.34759583633832825  1.0000
  C   C4        1.0  0.565925501467999  0.6174743062759736  0.2742462193472561  1.0000
  C   C5        1.0  0.47509305245419386  0.5876624630234788  0.344748173819452  1.0000
  N   N2        1.0  0.4019568259035808  0.563661440092188  0.40150830146312666  1.0000
  N   N3        1.0  0.5676388920147609  0.6748047137939266  0.1352004185511262  1.0000
  C   C6        1.0  0.6524693659082439  0.7047742917064204  0.06589321588892182  1.0000
  C   C7        1.0  0.6525795005752973  0.7638365904143574  0.9118483133282931  1.0000
  N   N4        1.0  0.7372417909233616  0.6748046672131103  0.13520042956337863  1.0000
  H   H1        1.0  0.6522649717743451  0.5415947188157013  0.4585576107334002  1.0000
  H   H2        1.0  0.7172428123575159  0.8315228670694953  0.8890743593575987  1.0000
  H   H3        1.0  0.653342847722127  0.6731581236119368  0.8401601420049241  1.0000
  H   H4        1.0  0.5872380067849756  0.831520795047671  0.8890736052826727  1.0000
  C   C8        1.0  0.1548438125418199  0.13997914266830483  0.4039208331406671  1.0000
  C   C9        1.0  0.2058460426583133  0.22098126189261638  0.2948963847900423  1.0000
  C   C10       1.0  0.2486027220973692  0.15372840308647673  0.1803314561715712  1.0000
  C   C11       1.0  0.2407919996244856  0.004493323101414153  0.17331532746089962  1.0000
  C   C12       1.0  0.19189516411445284  0.9220411258424528  0.28169211517118486  1.0000
  C   C13       1.0  0.14977447887861528  0.9873327307874119  0.39910832466822943  1.0000
  C   C14       1.0  0.29962432873428124  0.23844865369768667  0.06881427476953728  1.0000
  C   C15       1.0  0.3423422925672983  0.3094045050332897  0.975451150640871  1.0000
  C   C16       1.0  0.39236304670246835  0.39249878788250175  0.8661270040529275  1.0000
  C   C17       1.0  0.43507277428197133  0.463449329423502  0.7727817769789094  1.0000
  H   H5        1.0  0.10845381547304922  0.40450671608709965  0.6327589719569474  1.0000
  H   H6        1.0  0.2104682874929984  0.3374510652349243  0.2971226247299448  1.0000
  H   H7        1.0  0.27336133349556047  0.9514944519972062  0.0846661435145708  1.0000
  H   H8        1.0  0.1889678652895901  0.8059811498928919  0.27547049979455007  1.0000
  H   H9        1.0  0.0861161554537313  0.8601592341067699  0.7414995577004933  1.0000
  H   H10       1.0  0.472575477634517  0.5257499300714557  0.6908169577834822  1.0000
  C   C18       1.0  0.15361196735081917  0.5595777477210886  0.9783399682041449  1.0000
  C   C19       1.0  0.23637201589079493  0.6066120881022741  0.04776887121195972  1.0000
  C   C20       1.0  0.31412196589769503  0.6649914869186861  0.9675591429878246  1.0000
  C   C21       1.0  0.31001677745144396  0.6772646571588878  0.8168304908306554  1.0000
  C   C22       1.0  0.22924451941886326  0.6290620007373282  0.7460666813888559  1.0000
  C   C23       1.0  0.1510063808872315  0.5677341155338944  0.8246892149557472  1.0000
  C   C24       1.0  0.397814284937807  0.7140350839264278  0.04028422664353814  1.0000
  N   N5        1.0  0.46508148379188013  0.7534529117153065  0.09874295353862284  1.0000
  H   H11       1.0  0.9194852056607405  0.5109317104715132  0.08645385867940525  1.0000
  H   H12       1.0  0.3697377125596186  0.7229018567167265  0.7537485000193986  1.0000
  H   H13       1.0  0.22898600258009733  0.6366473274533306  0.628959161046379  1.0000
  H   H14       1.0  0.9944160370072749  0.5289236790624038  0.5475031341440686  1.0000
  Zn  Zn1       1.0  0.04674076847954888  0.5636576716678232  0.4015166555648819  1.0000
  Zn  Zn2       1.0  0.25786833425893874  0.5636535285138384  0.401511838470217  1.0000
  C   C25       1.0  0.15153110567141548  0.5604447116904276  0.6647437036106068  1.0000
  C   C26       1.0  0.153080291247357  0.5668683102358836  0.13828492147217686  1.0000
  C   C27       1.0  0.15074543510810812  0.8271095462246711  0.3942755125358341  1.0000
  C   C28       1.0  0.15386589990126454  0.3002017430230344  0.40875319922206566  1.0000
  O   O1        1.0  0.2330237044589467  0.5693072229469152  0.19196211659040638  1.0000
  O   O2        1.0  0.23182863751566682  0.558001561999488  0.6110624437835819  1.0000
  O   O3        1.0  0.231193113906222  0.773336802784621  0.3926574573878074  1.0000
  O   O4        1.0  0.23365915629575418  0.3539719914428967  0.41036699488032014  1.0000
  O   O5        1.0  0.070949874395271  0.7733392087416768  0.3926614991488342  1.0000
  O   O6        1.0  0.07158538786665371  0.5580057006380608  0.6110663988635485  1.0000
  O   O7        1.0  0.07278046050874587  0.5693112946113281  0.1919643393943542  1.0000
  O   O8        1.0  0.0734159120707285  0.35397605382910635  0.4103693257841847  1.0000
