data_image0
_chemical_formula_structural       NC9NC5H8C12SCH12C13OH12Zn2C4O8
_chemical_formula_sum              "N2 C44 H32 S1 O9 Zn2"
_cell_length_a       17.807436237873137
_cell_length_b       10.299776766347529
_cell_length_c       10.299153481560893
_cell_angle_alpha    85.58387196387294
_cell_angle_beta     89.40949667369763
_cell_angle_gamma    88.37162683502939

_space_group_name_H-M_alt    "P 1"
_space_group_IT_number       1

loop_
  _space_group_symop_operation_xyz
  'x, y, z'

loop_
  _atom_site_type_symbol
  _atom_site_label
  _atom_site_symmetry_multiplicity
  _atom_site_fract_x
  _atom_site_fract_y
  _atom_site_fract_z
  _atom_site_occupancy
  N   N1        1.0  0.7069101046253058  0.38721458905427647  0.5571481108528371  1.0000
  C   C1        1.0  0.646327260233322  0.35202085610973133  0.5461233226104252  1.0000
  C   C2        1.0  0.5709688604234544  0.30824372805698497  0.5324096830968403  1.0000
  C   C3        1.0  0.5528730323431489  0.23678978347471788  0.42740437599838693  1.0000
  C   C4        1.0  0.4797039212187531  0.19417403882441597  0.414006684332521  1.0000
  C   C5        1.0  0.4235819843994202  0.22263469805745317  0.5055818394983895  1.0000
  C   C6        1.0  0.345822073418713  0.17746008387231263  0.4914256404710122  1.0000
  C   C7        1.0  0.2836348903057692  0.25922568115039213  0.517366578344439  1.0000
  C   C8        1.0  0.2103235143771584  0.216406904057262  0.5039825634261919  1.0000
  C   C9        1.0  0.147085802447085  0.3008639814315952  0.5302874667534012  1.0000
  N   N2        1.0  0.09625567131207378  0.3687616289696581  0.5514358824057455  1.0000
  C   C10       1.0  0.1986158204041842  0.09156454100421207  0.4646322549667008  1.0000
  C   C11       1.0  0.2599456348569406  0.009785088344698383  0.4386829270183745  1.0000
  C   C12       1.0  0.3331376180243866  0.05220925009974796  0.4518643931187192  1.0000
  C   C13       1.0  0.4423691619803742  0.294583089258583  0.6108063890142452  1.0000
  C   C14       1.0  0.515591153619247  0.3370083821078711  0.6240484243911566  1.0000
  H   H1        1.0  0.5952600515700934  0.2142779294002781  0.355690515786554  1.0000
  H   H2        1.0  0.46678737998050285  0.14046105189436364  0.33108434009419363  1.0000
  H   H3        1.0  0.2921190980080198  0.356701030154958  0.5462460011831822  1.0000
  H   H4        1.0  0.142155339220955  0.05752464831842775  0.4540365352460886  1.0000
  H   H5        1.0  0.25076272774478486  0.9131293895651538  0.4086031007377174  1.0000
  H   H6        1.0  0.3797874669909934  0.9864573200328021  0.43281438841143033  1.0000
  H   H7        1.0  0.40069934141109764  0.3165563774792681  0.6838147467392663  1.0000
  H   H8        1.0  0.5290356419356977  0.39194156336570307  0.705929159841014  1.0000
  C   C15       1.0  0.9016573118636202  0.9966194581638133  0.5542893320338915  1.0000
  C   C16       1.0  0.9061948370730675  0.9848946332369917  0.6907371508774296  1.0000
  C   C17       1.0  0.9084217069726124  0.8618183802304774  0.7598827665380068  1.0000
  C   C18       1.0  0.9060511865161058  0.7496136709182991  0.6907544487950628  1.0000
  C   C19       1.0  0.9015156676367064  0.7593464529595304  0.5543058511313379  1.0000
  C   C20       1.0  0.8993436963698576  0.8832873026969053  0.48683710007285086  1.0000
  C   C21       1.0  0.9132136174694855  0.8504791369230295  0.9042292848097349  1.0000
  C   C22       1.0  0.8702295770096731  0.759084128066148  0.9789028726291562  1.0000
  C   C23       1.0  0.8747618878919013  0.7486459583810053  0.11474617672892973  1.0000
  C   C24       1.0  0.9220912329007177  0.8293337804665089  0.17772531548865023  1.0000
  C   C25       1.0  0.965254787359457  0.920147017506571  0.10442216378945833  1.0000
  C   C26       1.0  0.960832635641141  0.9309298510235514  0.9685668284762113  1.0000
  S   S1        1.0  0.9279896568830625  0.815475708556419  0.3520297486867525  1.0000
  C   C27       1.0  0.8525002510919129  0.9351227695011749  0.37266605804065467  1.0000
  H   H9        1.0  0.8999578648897935  0.32853922985122774  0.5022960855512948  1.0000
  H   H10       1.0  0.9069716881902564  0.07170906564089918  0.7436842770943488  1.0000
  H   H11       1.0  0.9087868633597335  0.6544903829362202  0.7434766995099746  1.0000
  H   H12       1.0  0.8958437022578354  0.891563993961801  0.38157340203907686  1.0000
  H   H13       1.0  0.8997499227725984  0.4356030944412227  0.5023182431024078  1.0000
  H   H14       1.0  0.8324030333008303  0.6968948832341587  0.9323435359836468  1.0000
  H   H15       1.0  0.8411828115698538  0.6781963806108767  0.17096052274390094  1.0000
  H   H16       1.0  0.002282028700964616  0.9824306261380366  0.15258216748233544  1.0000
  H   H17       1.0  0.9953601400870298  0.0009660660100569995  0.9137516156742453  1.0000
  H   H18       1.0  0.8675313807834029  0.030721453114274988  0.3235676975968049  1.0000
  H   H19       1.0  0.8438127878474535  0.9462540213414926  0.47807317302817415  1.0000
  H   H20       1.0  0.7996288869095903  0.902080038751157  0.33131950588506975  1.0000
  C   C28       1.0  0.9015219833635671  0.37783858607380305  0.17292597357207407  1.0000
  C   C29       1.0  0.8238545186088394  0.3571396834670874  0.17473647362205824  1.0000
  C   C30       1.0  0.7846117177083023  0.34680121253460316  0.058484881928857035  1.0000
  C   C31       1.0  0.8240317082759436  0.35744858081584724  0.9394259124205115  1.0000
  C   C32       1.0  0.9016509877136515  0.3781273332118027  0.9356691715099571  1.0000
  C   C33       1.0  0.9399429027532772  0.3881979851289877  0.052959319154237454  1.0000
  C   C34       1.0  0.7024980509364127  0.3249304591693034  0.06137210001463167  1.0000
  C   C35       1.0  0.6549717222016255  0.3924189506834497  0.9694029757929313  1.0000
  C   C36       1.0  0.5776979062688028  0.37188122347417407  0.972197974251466  1.0000
  C   C37       1.0  0.5466499542553496  0.2826415652182199  0.06611177888950603  1.0000
  C   C38       1.0  0.593672090656796  0.21627323665061504  0.1590068512586309  1.0000
  C   C39       1.0  0.6709494760552902  0.23678114764788627  0.15638994953121976  1.0000
  C   C40       1.0  0.4634004291645557  0.2633007507661431  0.07124911718106164  1.0000
  O   O1        1.0  0.429640849639626  0.35248779580576195  0.1512532446617918  1.0000
  H   H21       1.0  0.04802747427681053  0.417742951559218  0.37673835361894503  1.0000
  H   H22       1.0  0.7935676813771481  0.3508115064381314  0.2666562537665511  1.0000
  H   H23       1.0  0.7942266319909533  0.3478090462461805  0.8496838628288534  1.0000
  H   H24       1.0  0.9998125684023269  0.40415179048530425  0.05077745924252053  1.0000
  H   H25       1.0  0.9314961376004419  0.3861674954638168  0.6067422925492112  1.0000
  H   H26       1.0  0.6774157245995405  0.4626105849335602  0.8965173739924066  1.0000
  H   H27       1.0  0.5420436854467474  0.4258507336327637  0.9012412204775381  1.0000
  H   H28       1.0  0.570534933428827  0.14832082445296768  0.2333425446760675  1.0000
  H   H29       1.0  0.7061522249230147  0.18263253700998375  0.2278765366481803  1.0000
  H   H30       1.0  0.4514957569166181  0.16207876350334538  0.11024073780533404  1.0000
  H   H31       1.0  0.439618524446469  0.2777930094804375  0.9714674190824054  1.0000
  H   H32       1.0  0.3750317343692221  0.33572260984518726  0.15135068111011263  1.0000
  Zn  Zn1       1.0  0.8192668255648278  0.3818860009408145  0.5555071958843536  1.0000
  Zn  Zn2       1.0  0.9838989359471834  0.3740796349626049  0.5530874738325808  1.0000
  C   C41       1.0  0.9016258737488309  0.3728991607965613  0.791494300360088  1.0000
  C   C42       1.0  0.9015416852579055  0.38306802852760996  0.3171004704363498  1.0000
  C   C43       1.0  0.9015376792011804  0.6151730463539723  0.5491275594177543  1.0000
  C   C44       1.0  0.9016298239296432  0.14079258535932349  0.5594672814097359  1.0000
  O   O2        1.0  0.9640253263486283  0.38185493624598976  0.3645684766035884  1.0000
  O   O3        1.0  0.9640941952293385  0.36818642206478946  0.7421894072742465  1.0000
  O   O4        1.0  0.9640221350248835  0.5638256890706599  0.5464765615865403  1.0000
  O   O5        1.0  0.9640973303571032  0.1862156811572524  0.560281225741827  1.0000
  O   O6        1.0  0.8390683749740472  0.5697499574115075  0.5483134447940086  1.0000
  O   O7        1.0  0.8391404348735543  0.37411225068185394  0.744026221269563  1.0000
  O   O8        1.0  0.8390715657871644  0.38778071901367417  0.3664037291854827  1.0000
  O   O9        1.0  0.8391435698107584  0.19214145467314478  0.5621165756920905  1.0000
