data_image0
_chemical_formula_structural       NC9NC5H8C7OC3FC3H9C7OC6OH12Zn2C4O8
_chemical_formula_sum              "N2 C44 H29 O11 F1 Zn2"
_cell_length_a       17.807436237873137
_cell_length_b       10.299378350833068
_cell_length_c       10.299362532796529
_cell_angle_alpha    85.57000454149363
_cell_angle_beta     89.40785739381337
_cell_angle_gamma    88.41049276798935

_space_group_name_H-M_alt    "P 1"
_space_group_IT_number       1

loop_
  _space_group_symop_operation_xyz
  'x, y, z'

loop_
  _atom_site_type_symbol
  _atom_site_label
  _atom_site_symmetry_multiplicity
  _atom_site_fract_x
  _atom_site_fract_y
  _atom_site_fract_z
  _atom_site_occupancy
  N   N1        1.0  0.7074780640172532  0.38736150495009464  0.5569225680505759  1.0000
  C   C1        1.0  0.646881546843115  0.3521673693442791  0.5459041987959888  1.0000
  C   C2        1.0  0.5715061395982338  0.30838974042644485  0.5321985437966137  1.0000
  C   C3        1.0  0.553383829004663  0.2369407453599466  0.4272074781575541  1.0000
  C   C4        1.0  0.4801981623833165  0.19432451647341908  0.4138175598815037  1.0000
  C   C5        1.0  0.4240860045789123  0.2227797316454565  0.5053863145818775  1.0000
  C   C6        1.0  0.3463085433131063  0.17760460094006003  0.49123835502630764  1.0000
  C   C7        1.0  0.284153121117628  0.25937111089288756  0.5171643748802097  1.0000
  C   C8        1.0  0.2108251096190918  0.21655184184648268  0.503788169252094  1.0000
  C   C9        1.0  0.1476202116560023  0.3010098961357166  0.5300776706719669  1.0000
  N   N2        1.0  0.09681646066350268  0.36890832896947634  0.5512137042403085  1.0000
  C   C10       1.0  0.1990689180725271  0.09170806734241954  0.46446063434528606  1.0000
  C   C11       1.0  0.260366966287607  0.009927702132309441  0.4385262270028265  1.0000
  C   C12       1.0  0.33357543293705866  0.05235235683520357  0.4516999569419369  1.0000
  C   C13       1.0  0.4428998557709602  0.2947231744961054  0.6105965315145421  1.0000
  C   C14       1.0  0.5161383304003111  0.3371489561031409  0.6238308296428181  1.0000
  H   H1        1.0  0.5957631020743486  0.21443314715318265  0.3554986700541461  1.0000
  H   H2        1.0  0.46726177550963316  0.14061552855342496  0.33090597951801454  1.0000
  H   H3        1.0  0.2926752236379254  0.35684769070907946  0.5460260434093186  1.0000
  H   H4        1.0  0.1425952113292474  0.057667780477096864  0.4538711221740752  1.0000
  H   H5        1.0  0.2511465053205579  0.9132708836301151  0.408464026857859  1.0000
  H   H6        1.0  0.3801997133228706  0.9865995664696614  0.43266192209143056  1.0000
  H   H7        1.0  0.40123754950379603  0.3166920985543959  0.6835999139496772  1.0000
  H   H8        1.0  0.5296031604117752  0.39207825169685645  0.7057005995010608  1.0000
  C   C15       1.0  0.9020716773350799  0.9967535640475306  0.5541332813289827  1.0000
  C   C16       1.0  0.8236867908120484  0.0004715147768010801  0.539257932240067  1.0000
  C   C17       1.0  0.784056462679348  0.8850638913054022  0.5332339554064993  1.0000
  C   C18       1.0  0.8238704872028882  0.7652188074355094  0.5392621139333169  1.0000
  C   C19       1.0  0.9022300076169656  0.759505997608108  0.5540141667089621  1.0000
  C   C20       1.0  0.940854081511537  0.8758160729815241  0.5617066614410114  1.0000
  C   C21       1.0  0.7013800521565001  0.8889473612671657  0.5161520640032882  1.0000
  O   O1        1.0  0.6723523200557743  0.8056126067288825  0.4499170596562727  1.0000
  C   C22       1.0  0.6516338745350722  0.9872700245448304  0.5742200870996867  1.0000
  C   C23       1.0  0.5847033571973744  0.030421142698586524  0.5114209837204698  1.0000
  C   C24       1.0  0.5369895741784436  0.12195580075772283  0.5661812051118682  1.0000
  F   F1        1.0  0.4728798769601803  0.16366561763924548  0.5044020947594963  1.0000
  C   C25       1.0  0.5552927568100867  0.1704208940170431  0.6845172503319529  1.0000
  C   C26       1.0  0.6211449428036228  0.12706890350727384  0.7485467214172785  1.0000
  C   C27       1.0  0.6690141269820395  0.0355986102173884  0.6941889313289221  1.0000
  H   H9        1.0  0.05012403437293299  0.19720525122894017  0.5802068261924709  1.0000
  H   H10       1.0  0.7934579536135306  0.09341301798963218  0.5308880877574057  1.0000
  H   H11       1.0  0.7934564915026169  0.6761898984241465  0.5336557944172136  1.0000
  H   H12       1.0  0.0012830038076061547  0.8721458057161298  0.5731737080531525  1.0000
  H   H13       1.0  0.9324026929509216  0.4299358938324826  0.5585841380335856  1.0000
  H   H14       1.0  0.569721246655074  0.9941015472676511  0.4194827992888584  1.0000
  H   H15       1.0  0.5183364533511383  0.24117314728605502  0.7269378840285794  1.0000
  H   H16       1.0  0.6349656608789868  0.16393077215596577  0.840715504307352  1.0000
  H   H17       1.0  0.719088818771991  0.0016794100952148825  0.7466065643434157  1.0000
  C   C28       1.0  0.9020921950611156  0.37801200861757384  0.17270772004673712  1.0000
  C   C29       1.0  0.830767416073438  0.3227096072936426  0.177050188831055  1.0000
  C   C30       1.0  0.7944696208251597  0.2961553489786781  0.06207343700041213  1.0000
  C   C31       1.0  0.8309790108308007  0.32286314276181427  0.9417927613380033  1.0000
  C   C32       1.0  0.9022095154655873  0.3782475118832289  0.9354397379617825  1.0000
  C   C33       1.0  0.9372934591704506  0.405760936021454  0.05144299649082851  1.0000
  C   C34       1.0  0.7195342032511096  0.23640684278112345  0.06898471037204491  1.0000
  O   O2        1.0  0.7041690421879109  0.15792538727467575  0.16511869959475248  1.0000
  C   C35       1.0  0.6620327596218651  0.26568445437308275  0.9669089712968458  1.0000
  C   C36       1.0  0.6562812270688784  0.38933445195858146  0.8991210149444422  1.0000
  C   C37       1.0  0.6012981028273106  0.41612099625361093  0.8042279359471798  1.0000
  C   C38       1.0  0.5507429107352194  0.3208489866598161  0.7759353663271802  1.0000
  C   C39       1.0  0.5557044254079098  0.19742999499376063  0.8446530930015288  1.0000
  C   C40       1.0  0.6106807909449327  0.17051656692654468  0.9396186955883004  1.0000
  O   O3        1.0  0.49666834274813715  0.3525726451968234  0.6797392410163675  1.0000
  H   H18       1.0  0.036810147476436406  0.48187010168557326  0.37181979587026603  1.0000
  H   H19       1.0  0.8029472291371439  0.3012863475155807  0.2699956758250084  1.0000
  H   H20       1.0  0.8041182452553585  0.29905518417184895  0.8531363850691857  1.0000
  H   H21       1.0  0.9922427940171251  0.4484817534716956  0.04727488298981908  1.0000
  H   H22       1.0  0.9296609753608391  0.3990053061098286  0.6055646457838386  1.0000
  H   H23       1.0  0.693742859259821  0.46581270520762796  0.9203839433226545  1.0000
  H   H24       1.0  0.5977384809316879  0.5117528394285782  0.7527018769624464  1.0000
  H   H25       1.0  0.5173799855716091  0.12167845085073492  0.8254994865875687  1.0000
  H   H26       1.0  0.6135104736624173  0.07473744459717604  0.991042293273837  1.0000
  H   H27       1.0  0.40659748502638177  0.31577386985593003  0.5636102113146696  1.0000
  H   H28       1.0  0.40518365029907427  0.23492962396475472  0.7252764021777002  1.0000
  H   H29       1.0  0.4698617487781753  0.17875510280609497  0.6021306668754214  1.0000
  Zn  Zn1       1.0  0.8198327143599137  0.3820328538941309  0.555282624549341  1.0000
  Zn  Zn2       1.0  0.9844617915679995  0.37422639680724284  0.5528643259252382  1.0000
  C   C41       1.0  0.9021845791298954  0.3730292423842933  0.7912678738392788  1.0000
  C   C42       1.0  0.9021117249022089  0.38323156178251705  0.31687917743711647  1.0000
  C   C43       1.0  0.9021954286097172  0.6153281147040595  0.548861601532338  1.0000
  C   C44       1.0  0.9021008189327147  0.14093113179510738  0.5592855200510378  1.0000
  O   O4        1.0  0.9645941549478835  0.38201511580124525  0.3643467047199372  1.0000
  O   O5        1.0  0.9646518091667203  0.36831978819625394  0.7419645401662169  1.0000
  O   O6        1.0  0.9646597282618723  0.5639792322349519  0.5462197723745162  1.0000
  O   O7        1.0  0.9645861796629313  0.1863556836868163  0.5600913759614651  1.0000
  O   O8        1.0  0.8397082700851566  0.5699035696799302  0.5480555753315293  1.0000
  O   O9        1.0  0.8397003512998512  0.37424568597424734  0.7438002736346647  1.0000
  O   O10       1.0  0.8396426968814408  0.38794096783731913  0.3661808768059627  1.0000
  O   O11       1.0  0.8396347216064635  0.19228152646399385  0.5619256454160795  1.0000
