data_image0
_chemical_formula_structural       NC8NC6H8C7OC3NC3H11C6SCOC6H10Zn2C4O8
_chemical_formula_sum              "N3 C44 H29 O10 S1 Zn2"
_cell_length_a       17.457602349358154
_cell_length_b       10.298746005989749
_cell_length_c       10.302041481415108
_cell_angle_alpha    85.5447523670973
_cell_angle_beta     92.8727530123399
_cell_angle_gamma    91.69721484149154

_space_group_name_H-M_alt    "P 1"
_space_group_IT_number       1

loop_
  _space_group_symop_operation_xyz
  'x, y, z'

loop_
  _atom_site_type_symbol
  _atom_site_label
  _atom_site_symmetry_multiplicity
  _atom_site_fract_x
  _atom_site_fract_y
  _atom_site_fract_z
  _atom_site_occupancy
  N   N1        1.0  0.722616441593053  0.45342691787034073  0.6269017844582812  1.0000
  C   C1        1.0  0.6615344949863342  0.40750143057182675  0.6162852582691514  1.0000
  C   C2        1.0  0.5855459705637083  0.3503758359682967  0.6030878399673849  1.0000
  C   C3        1.0  0.5270183763424965  0.39051543607724626  0.6779719957579613  1.0000
  C   C4        1.0  0.45246811508619705  0.33550807390773313  0.6653890254482902  1.0000
  C   C5        1.0  0.3903496733153093  0.37788949807618044  0.744694177883616  1.0000
  C   C6        1.0  0.3158068884959113  0.3963785874048704  0.6889440047842748  1.0000
  C   C7        1.0  0.2572792696809819  0.43633420937840234  0.7639360784258069  1.0000
  C   C8        1.0  0.1812984713556383  0.45542996278216624  0.7059709655784221  1.0000
  N   N2        1.0  0.1202228253904768  0.4707765682268188  0.659367165433081  1.0000
  C   C9        1.0  0.2728022771670033  0.4580437298848447  0.8951867489565213  1.0000
  C   C10       1.0  0.3465603807406578  0.43994352748930465  0.9513244624311878  1.0000
  C   C11       1.0  0.4050763946735351  0.4001678182574859  0.8767900230400565  1.0000
  C   C12       1.0  0.437734082835068  0.23968412572169615  0.5764892445153083  1.0000
  C   C13       1.0  0.49624997060418186  0.19982309221074065  0.5020050241587191  1.0000
  C   C14       1.0  0.5700154562547634  0.25494265102949204  0.515137832639567  1.0000
  H   H1        1.0  0.5393671299919857  0.46569333198688834  0.744593343670944  1.0000
  H   H2        1.0  0.30346429765360855  0.3814420118682431  0.5869406305225469  1.0000
  H   H3        1.0  0.2279420539030832  0.4889089601326941  0.9540119171025567  1.0000
  H   H4        1.0  0.3583894243559682  0.45643802406619177  0.05295476233840779  1.0000
  H   H5        1.0  0.46155882858169905  0.3851589253242431  0.9228854672674407  1.0000
  H   H6        1.0  0.38124547229206535  0.19434836916640405  0.5658366491125231  1.0000
  H   H7        1.0  0.4844151792691291  0.12576216375231786  0.43418569024228876  1.0000
  H   H8        1.0  0.6148756205528232  0.22320747354172016  0.4568236198760891  1.0000
  C   C15       1.0  0.9213866385313733  0.0806982118709174  0.643114615412818  1.0000
  C   C16       1.0  0.9572808704784304  0.09081404751213971  0.5235684871693762  1.0000
  C   C17       1.0  0.9746239974895224  0.9787707744663157  0.4623654641012707  1.0000
  C   C18       1.0  0.9572814475597199  0.8555774896418311  0.5235194081400145  1.0000
  C   C19       1.0  0.9214599478322549  0.8434955868930404  0.6431661457259463  1.0000
  C   C20       1.0  0.9035551744716956  0.9566238671602973  0.7020350372863517  1.0000
  C   C21       1.0  0.013180054452221361  0.9892897606533798  0.3367268230658307  1.0000
  O   O1        1.0  0.0600244873606306  0.9033647826472553  0.3153451308952895  1.0000
  C   C22       1.0  0.9985956839258894  0.09722651086673029  0.2353526123557286  1.0000
  C   C23       1.0  0.9259495678888361  0.1534529632394408  0.21731615729138928  1.0000
  C   C24       1.0  0.9125093078595755  0.25457148585192435  0.12033330599153437  1.0000
  N   N3        1.0  0.8386350253281933  0.3115862217857577  0.10309974345766813  1.0000
  C   C25       1.0  0.9717626688170478  0.2990736698154992  0.040056278303027604  1.0000
  C   C26       1.0  0.04370854964850568  0.2426525554067176  0.05617990013683105  1.0000
  C   C27       1.0  0.05708914516052824  0.14195601110252953  0.15285373962788107  1.0000
  H   H9        1.0  0.8546281124838899  0.26892555675921703  0.869947419965924  1.0000
  H   H10       1.0  0.9725395232136058  0.18601301995627706  0.47860290101888237  1.0000
  H   H11       1.0  0.9711199527351986  0.7690066391864733  0.4769621111456026  1.0000
  H   H12       1.0  0.87589098407514  0.9480744719790638  0.7941856551662685  1.0000
  H   H13       1.0  0.8540638715811306  0.6133613084358206  0.8694584762552551  1.0000
  H   H14       1.0  0.8794862019147754  0.11799879134681192  0.27747067308103857  1.0000
  H   H15       1.0  0.7940561852718453  0.27916468507127384  0.1623968987638349  1.0000
  H   H16       1.0  0.827994433685556  0.38676249158756226  0.031008425114032796  1.0000
  H   H17       1.0  0.9620968644724041  0.3770298169649386  0.9647965353494311  1.0000
  H   H18       1.0  0.08923198697420115  0.27703093196418105  0.9936168479761842  1.0000
  H   H19       1.0  0.11335689339664867  0.09976702132667548  0.16397421384492916  1.0000
  C   C28       1.0  0.9214376954853053  0.46222679811155615  0.26185454126595986  1.0000
  C   C29       1.0  0.9566217574510654  0.5868709883582868  0.25382177221431634  1.0000
  C   C30       1.0  0.9744694684926026  0.6483810682417364  0.13289739068266626  1.0000
  C   C31       1.0  0.9566945325037228  0.5864702668765387  0.01872227839292861  1.0000
  C   C32       1.0  0.9214089250367555  0.461966961788244  0.024426267564081165  1.0000
  C   C33       1.0  0.9040197651676403  0.4004383321191578  0.146581514974923  1.0000
  S   S1        1.0  0.02010111923753578  0.8069184816611722  0.12411012579381175  1.0000
  C   C34       1.0  0.11460307740384491  0.7412354239630288  0.13439064835699455  1.0000
  O   O2        1.0  0.1446257706675203  0.719370733986  0.029780413528646802  1.0000
  C   C35       1.0  0.15688774316380857  0.7117351606007722  0.26136591504145623  1.0000
  C   C36       1.0  0.22494027307187428  0.6409749768774455  0.26711041348451614  1.0000
  C   C37       1.0  0.2649244591542492  0.6118203059461997  0.38632543346259385  1.0000
  C   C38       1.0  0.23767045335586315  0.6529822142416069  0.5010401889112241  1.0000
  C   C39       1.0  0.17044248921451444  0.7236195536427215  0.49674327527322726  1.0000
  C   C40       1.0  0.1302293415824258  0.7531384004288  0.37780898844460187  1.0000
  H   H20       1.0  0.855006928725799  0.22740240268857792  0.48429388904066784  1.0000
  H   H21       1.0  0.970408688637813  0.636404540148088  0.3412647601812058  1.0000
  H   H22       1.0  0.9708066184003417  0.6356864482398044  0.925906095963125  1.0000
  H   H23       1.0  0.8768971422327676  0.30434640392646894  0.15185379804366583  1.0000
  H   H24       1.0  0.9082028127884794  0.414470066927384  0.6992858937741819  1.0000
  H   H25       1.0  0.2470984137808019  0.6074810059561788  0.17959896092588745  1.0000
  H   H26       1.0  0.31707037759525136  0.5571063551320505  0.38973283491034905  1.0000
  H   H27       1.0  0.268692094886841  0.6302826178499112  0.5932338022709502  1.0000
  H   H28       1.0  0.14947552990023466  0.755778345587467  0.5857059454559261  1.0000
  H   H29       1.0  0.07866573260054732  0.8088198977962261  0.37767644855033855  1.0000
  Zn  Zn1       1.0  0.837357054600797  0.45843016661601305  0.6362780887166621  1.0000
  Zn  Zn2       1.0  0.005482196707862872  0.465762667069056  0.6500014906666507  1.0000
  C   C41       1.0  0.9214121343491587  0.45684186677803645  0.880283366426594  1.0000
  C   C42       1.0  0.9214289530335319  0.46735268570320176  0.4059964903652666  1.0000
  C   C43       1.0  0.921442345983008  0.6993122200177795  0.6379820506827742  1.0000
  C   C44       1.0  0.921398683877719  0.22488076949303212  0.6482978705443518  1.0000
  O   O3        1.0  0.9852286336803013  0.47184995985506006  0.4595798043729784  1.0000
  O   O4        1.0  0.9852155463306034  0.4579088111230869  0.8371154231302025  1.0000
  O   O5        1.0  0.985239082466266  0.6537066498489346  0.6414553262295144  1.0000
  O   O6        1.0  0.9852050401794854  0.27605212795136547  0.6552397992379682  1.0000
  O   O7        1.0  0.8576341537563152  0.6481407032328969  0.6310397754553911  1.0000
  O   O8        1.0  0.8576106177697568  0.4523444249766699  0.8266998032308609  1.0000
  O   O9        1.0  0.8576237052250749  0.46628552898265174  0.4491626234141548  1.0000
  O   O10       1.0  0.8576001117165527  0.2704876877559981  0.64482271562489  1.0000
