data_image0
_chemical_formula_structural       NC9NC4H8C7ONH7C8NH11Zn2C4O8
_chemical_formula_sum              "N4 C32 H26 O9 Zn2"
_cell_length_a       16.32274767691083
_cell_length_b       10.297852080636378
_cell_length_c       9.275652972338538
_cell_angle_alpha    85.93999439630132
_cell_angle_beta     89.90519038886141
_cell_angle_gamma    89.50344002776104

_space_group_name_H-M_alt    "P 1"
_space_group_IT_number       1

loop_
  _space_group_symop_operation_xyz
  'x, y, z'

loop_
  _atom_site_type_symbol
  _atom_site_label
  _atom_site_symmetry_multiplicity
  _atom_site_fract_x
  _atom_site_fract_y
  _atom_site_fract_z
  _atom_site_occupancy
  N   N1        1.0  0.7642574013068391  0.4027536372804299  0.39841517317724556  1.0000
  C   C1        1.0  0.7116818965305838  0.35494755002648315  0.33816102160517914  1.0000
  C   C2        1.0  0.6463302293616725  0.2955720173914078  0.2633248835422186  1.0000
  C   C3        1.0  0.6574753085278437  0.2143568560199336  0.1609576004988953  1.0000
  C   C4        1.0  0.5779107654579575  0.1747234499608128  0.11100576930484607  1.0000
  C   C5        1.0  0.5192689100094431  0.23272607544329785  0.18411744145125053  1.0000
  C   C6        1.0  0.42925448706758507  0.21739652613917704  0.1647985994727854  1.0000
  C   C7        1.0  0.3739979098802407  0.2850022833653276  0.25000676989647963  1.0000
  C   C8        1.0  0.2892236395762466  0.2719009120770597  0.2334956632853571  1.0000
  C   C9        1.0  0.23356556536093362  0.3415849895560623  0.3213224377259425  1.0000
  N   N2        1.0  0.18883535574832988  0.3975995185540775  0.39192028921100075  1.0000
  C   C10       1.0  0.2586523623198973  0.1910844484150243  0.13163927453340052  1.0000
  C   C11       1.0  0.3125874722378086  0.12356824220436624  0.04654434731662159  1.0000
  C   C12       1.0  0.3972011745966254  0.1363167220733863  0.06261054722989944  1.0000
  C   C13       1.0  0.5574474655704261  0.31730026755557694  0.2907157152848019  1.0000
  H   H1        1.0  0.71622431342839  0.18277609462737177  0.1211492856178693  1.0000
  H   H2        1.0  0.5692823559422319  0.10834639857483876  0.027340911444184046  1.0000
  H   H3        1.0  0.39642693357262815  0.3480931581937774  0.3295229709162599  1.0000
  H   H4        1.0  0.19320645243060552  0.18029163410326257  0.1180377966892414  1.0000
  H   H5        1.0  0.2887652724196806  0.06104917417232381  0.9677491028195372  1.0000
  H   H6        1.0  0.4367114159554852  0.0823081057083508  0.9945405206517134  1.0000
  H   H7        1.0  0.5411650787190492  0.2832190030026321  0.40336231897477254  1.0000
  H   H8        1.0  0.540537853771694  0.4212367382800533  0.26611784890846724  1.0000
  C   C14       1.0  0.976637675405984  0.01873835610135255  0.39517494045953305  1.0000
  C   C15       1.0  0.9647768718616819  0.027519609164611276  0.24478197604708327  1.0000
  C   C16       1.0  0.9580396458853723  0.914888827039242  0.168654444036356  1.0000
  C   C17       1.0  0.9645695427899877  0.7922696195533786  0.24473542319611852  1.0000
  C   C18       1.0  0.9764629573350535  0.7816047453246346  0.395172820766021  1.0000
  C   C19       1.0  0.9822254809639257  0.8953560474957573  0.46944673411427534  1.0000
  C   C20       1.0  0.9457153785746456  0.9267616606028165  0.009786902708544211  1.0000
  O   O1        1.0  0.9672938120230415  0.029175460890359613  0.9376810265439044  1.0000
  N   N3        1.0  0.9087931895772018  0.824955593031124  0.9359346716704264  1.0000
  H   H9        1.0  0.9993509647311979  0.2094111868106168  0.6793367210771464  1.0000
  H   H10       1.0  0.9600384736749986  0.1223567399334109  0.18675380013539433  1.0000
  H   H11       1.0  0.9620031314034839  0.7047553024843836  0.18696561531183953  1.0000
  H   H12       1.0  0.9913647060251285  0.8878347023016177  0.5853564917159418  1.0000
  H   H13       1.0  0.00025280391622750317  0.5541745635486819  0.67918679158978  1.0000
  H   H14       1.0  0.9041805050928284  0.8334097598505965  0.8233883429276977  1.0000
  H   H15       1.0  0.881053700245199  0.7454873540315216  0.9917427529498223  1.0000
  C   C21       1.0  0.9747270737282905  0.3976620896250296  0.9719310762969133  1.0000
  C   C22       1.0  0.9215684197451165  0.4832731405697884  0.0388908563778907  1.0000
  C   C23       1.0  0.8748767765330696  0.5763852682532931  0.956904488723958  1.0000
  C   C24       1.0  0.8802374336195631  0.5826484046268973  0.8060370698471684  1.0000
  C   C25       1.0  0.9315922370708494  0.49711707131041455  0.7376968059661788  1.0000
  C   C26       1.0  0.978373614712622  0.40268101947530616  0.8184167267517486  1.0000
  C   C27       1.0  0.8173557542708688  0.6659474685113314  0.030327574777355704  1.0000
  C   C28       1.0  0.7331338687082892  0.6035050568410543  0.05240368942184448  1.0000
  N   N4        1.0  0.6775483458551844  0.6919598841404762  0.12146134003077845  1.0000
  H   H16       1.0  0.03482106584714126  0.20394678759888096  0.2676202436695021  1.0000
  H   H17       1.0  0.9176722773716767  0.479706592104699  0.15577800973070552  1.0000
  H   H18       1.0  0.84389395547033  0.6530537084874894  0.7410093898965848  1.0000
  H   H19       1.0  0.933070082410524  0.5026777157035571  0.6206542907419149  1.0000
  H   H20       1.0  0.09075232680973255  0.2823485931857683  0.546218245512764  1.0000
  H   H21       1.0  0.8430073132888762  0.6884595690957809  0.13664933704720525  1.0000
  H   H22       1.0  0.8107754692201402  0.7598051117598419  0.9641181547868761  1.0000
  H   H23       1.0  0.7075251892342992  0.5820360806760745  0.9456641103698082  1.0000
  H   H24       1.0  0.7389383978402856  0.5104041310509329  0.12050814726710189  1.0000
  H   H25       1.0  0.619693246578723  0.6490430705968424  0.1267494618804279  1.0000
  H   H26       1.0  0.6967311063779444  0.6982283535582812  0.22828778484418644  1.0000
  Zn  Zn1       1.0  0.8867814704316501  0.4012628330913638  0.39654921345115923  1.0000
  Zn  Zn2       1.0  0.06631134610081223  0.3990797338435965  0.3937980563170268  1.0000
  C   C29       1.0  0.9776836761613407  0.3965577309760933  0.6584128626643995  1.0000
  C   C30       1.0  0.9754111010658824  0.4037864518754591  0.1319345185189289  1.0000
  C   C31       1.0  0.976467049183023  0.6373727560114262  0.3894299272092767  1.0000
  C   C32       1.0  0.9766276674715763  0.1629698674546738  0.40091753175802114  1.0000
  O   O2        1.0  0.043771320375304956  0.4050077022356944  0.18458908559887027  1.0000
  O   O3        1.0  0.04558247688335282  0.39367857643986337  0.6036698160858062  1.0000
  O   O4        1.0  0.044599123234166704  0.5881397747314823  0.3864642066777322  1.0000
  O   O5        1.0  0.044754612295446944  0.21054651334018987  0.4017945878793967  1.0000
  O   O6        1.0  0.9083381429722465  0.5897960543411245  0.3885526828200434  1.0000
  O   O7        1.0  0.9093214959292891  0.3953364161813113  0.6057582153754018  1.0000
  O   O8        1.0  0.9075103320213106  0.40666548643806033  0.18667575204687623  1.0000
  O   O9        1.0  0.9084936244057279  0.21220428889279488  0.4038813623862043  1.0000
