data_image0
_chemical_formula_structural       NC8NH4C9H8C6H6Zn2C4O8
_chemical_formula_sum              "N2 C27 H18 Zn2 O8"
_cell_length_a       13.859017124695912
_cell_length_b       9.275152443626249
_cell_length_c       10.681121600428286
_cell_angle_alpha    85.36323627709002
_cell_angle_beta     89.99985505477505
_cell_angle_gamma    90.57357307376715

_space_group_name_H-M_alt    "P 1"
_space_group_IT_number       1

loop_
  _space_group_symop_operation_xyz
  'x, y, z'

loop_
  _atom_site_type_symbol
  _atom_site_label
  _atom_site_symmetry_multiplicity
  _atom_site_fract_x
  _atom_site_fract_y
  _atom_site_fract_z
  _atom_site_occupancy
  N   N1        1.0  0.9191693660232608  0.5787940338894478  0.6139343884301214  1.0000
  C   C1        1.0  0.8466617564905532  0.5559275488350235  0.5652069893489211  1.0000
  C   C2        1.0  0.7564666085541101  0.5274849876250267  0.5045963661509605  1.0000
  C   C3        1.0  0.6690370719374387  0.5552136076891001  0.5636840959363727  1.0000
  C   C4        1.0  0.581236296910241  0.5274862138442156  0.504595859168911  1.0000
  C   C5        1.0  0.5810474172145997  0.4720226977243633  0.38640175217969563  1.0000
  C   C6        1.0  0.6682951071338021  0.444400651141621  0.3275414673650767  1.0000
  C   C7        1.0  0.7559127603423003  0.47202034750829003  0.38640278299813563  1.0000
  C   C8        1.0  0.4914219239825466  0.55592847568749  0.565206553883866  1.0000
  N   N2        1.0  0.41922049377389903  0.5787943566035818  0.6139341997894364  1.0000
  H   H1        1.0  0.669324478009295  0.59814453604629  0.6551691639237867  1.0000
  H   H2        1.0  0.5136058780548379  0.45019925289768364  0.33989323451665276  1.0000
  H   H3        1.0  0.6680083541694701  0.4015574163124057  0.23624166984151573  1.0000
  H   H4        1.0  0.8230620648484066  0.4501948012756496  0.33989513978278385  1.0000
  C   C9        1.0  0.16635316702815306  0.15516191428265766  0.6152128229270528  1.0000
  C   C10       1.0  0.13154552950653464  0.23790128124685903  0.5088223520810027  1.0000
  C   C11       1.0  0.10570697277143837  0.172459908555747  0.4004399829091628  1.0000
  C   C12       1.0  0.11427033978086976  0.023117975077352023  0.39630214562484856  1.0000
  C   C13       1.0  0.14719115034744726  0.938690459885451  0.5017934797048444  1.0000
  C   C14       1.0  0.1720458570566381  0.002415436747256861  0.612666614040293  1.0000
  C   C15       1.0  0.08812868165938538  0.9559684387467121  0.28406538579841634  1.0000
  C   C16       1.0  0.06624115167828283  0.8997130615396145  0.1900846969191894  1.0000
  C   C17       1.0  0.039684960440310446  0.8314451119224112  0.07605561331866563  1.0000
  H   H5        1.0  0.3049995034111923  0.2368134795525125  0.8653151020383815  1.0000
  H   H6        1.0  0.12646278926454557  0.35441876361756663  0.5084284343295631  1.0000
  H   H7        1.0  0.07990925678567053  0.23869964843923341  0.3193335889055742  1.0000
  H   H8        1.0  0.15125365932506463  0.8223804325317932  0.4982999770248096  1.0000
  H   H9        1.0  0.26229914986305247  0.7071161143083053  0.7837281775494525  1.0000
  H   H10       1.0  0.05732416975175681  0.7147232961432239  0.08775494378442206  1.0000
  H   H11       1.0  0.9611514706218538  0.8440276205422214  0.05891151369376235  1.0000
  H   H12       1.0  0.08043296473403627  0.8837936675822007  0.9949949247723852  1.0000
  C   C18       1.0  0.1691995293324542  0.5787886389287369  0.24619450640655297  1.0000
  C   C19       1.0  0.09959782151221  0.4985562978391107  0.18501315300497903  1.0000
  C   C20       1.0  0.09959776189103686  0.4985563903400509  0.054131012774120364  1.0000
  C   C21       1.0  0.16919945395476876  0.5787887096449305  0.9816849418704053  1.0000
  C   C22       1.0  0.23874371274226558  0.6589545621515713  0.04286591475363033  1.0000
  C   C23       1.0  0.23874370024700586  0.6589545397819865  0.17375821348390508  1.0000
  H   H13       1.0  0.2395853113719948  0.6599255811388669  0.5392083958475862  1.0000
  H   H14       1.0  0.04504071709414825  0.43566639694288045  0.2382390005020496  1.0000
  H   H15       1.0  0.04504069739881511  0.43566646484865007  0.009734971072452577  1.0000
  H   H16       1.0  0.293307942130209  0.7218527503175578  0.9896843777172801  1.0000
  H   H17       1.0  0.29330789317564365  0.7218526997461987  0.21810874535367875  1.0000
  H   H18       1.0  0.2395856091395834  0.6599250785301483  0.6772793716445005  1.0000
  Zn  Zn1       1.0  0.06347329692296433  0.5787902754360492  0.6139415811696661  1.0000
  Zn  Zn2       1.0  0.27491647616934345  0.5787863471070369  0.6139373135814882  1.0000
  C   C24       1.0  0.16915872685359393  0.5730416434820209  0.8426787879227327  1.0000
  C   C25       1.0  0.16923336742162198  0.5845367992298831  0.3852002242246471  1.0000
  C   C26       1.0  0.17096484497862452  0.8422664576033589  0.6081576287926831  1.0000
  C   C27       1.0  0.16742716550036185  0.31531025189428874  0.6197214553300456  1.0000
  O   O1        1.0  0.2494862660853432  0.5864581499367245  0.4318502123435109  1.0000
  O   O2        1.0  0.24938630146352225  0.571116222968804  0.7960252035826593  1.0000
  O   O3        1.0  0.25084368299594995  0.7885186652044288  0.6066477038230399  1.0000
  O   O4        1.0  0.24802881247102526  0.36905571802220183  0.6212276181774322  1.0000
  O   O5        1.0  0.09036088846611312  0.7885209045237958  0.6066512765685865  1.0000
  O   O6        1.0  0.0889035185747451  0.5711201955053373  0.7960287043477215  1.0000
  O   O7        1.0  0.08900348292305482  0.5864620722019382  0.4318522076370639  1.0000
  O   O8        1.0  0.08754602923545797  0.3690596299692246  0.621229707391548  1.0000
