data_image0
_chemical_formula_structural       NC6NC2H4C6NH5C9H6Zn2C4O8
_chemical_formula_sum              "N3 C27 H15 Zn2 O8"
_cell_length_a       14.927258858638513
_cell_length_b       9.274771166103582
_cell_length_c       9.275155815604963
_cell_angle_alpha    85.94411296578332
_cell_angle_beta     90.35750032956715
_cell_angle_gamma    90.59705168739299

_space_group_name_H-M_alt    "P 1"
_space_group_IT_number       1

loop_
  _space_group_symop_operation_xyz
  'x, y, z'

loop_
  _atom_site_type_symbol
  _atom_site_label
  _atom_site_symmetry_multiplicity
  _atom_site_fract_x
  _atom_site_fract_y
  _atom_site_fract_z
  _atom_site_occupancy
  N   N1        1.0  0.847526176068762  0.564939858935378  0.4073840856140194  1.0000
  C   C1        1.0  0.7699996847582975  0.5649398305097544  0.407384096252412  1.0000
  C   C2        1.0  0.6735671777625415  0.5649399452073869  0.40738404619340296  1.0000
  C   C3        1.0  0.6258634380856983  0.5401520747925069  0.28077080462182796  1.0000
  C   C4        1.0  0.5321521263832614  0.5401520992853293  0.280770671147728  1.0000
  C   C5        1.0  0.4857511126955162  0.5649397677732857  0.40738406514299497  1.0000
  C   C6        1.0  0.38931853870822014  0.5649398824738319  0.4073840150780579  1.0000
  N   N2        1.0  0.3117920473977553  0.5649398540482079  0.4073840257164507  1.0000
  C   C7        1.0  0.5334547853808194  0.5897276381910799  0.5339973067086421  1.0000
  C   C8        1.0  0.6271660970832562  0.5897276136982572  0.5339974401827421  1.0000
  H   H1        1.0  0.661052835647184  0.5208657129440104  0.18225843595210126  1.0000
  H   H2        1.0  0.49594918139455507  0.5208659104886324  0.18225843065683756  1.0000
  H   H3        1.0  0.49826545516539955  0.609013990650384  0.632509783457331  1.0000
  H   H4        1.0  0.6633690431319903  0.6090139007958735  0.6325097904991237  1.0000
  C   C9        1.0  0.07691617204255952  0.14135006302600875  0.4081696282459357  1.0000
  C   C10       1.0  0.05579477802472255  0.22354849185039027  0.279286952716598  1.0000
  C   C11       1.0  0.043034283781415966  0.1573817386137022  0.14958657176563656  1.0000
  C   C12       1.0  0.05143845259678571  0.0076309903455729095  0.14782943435624984  1.0000
  C   C13       1.0  0.07089632161627993  0.9240978809115489  0.2749416388606407  1.0000
  C   C14       1.0  0.08241063036868565  0.9885186741335567  0.4066110192104817  1.0000
  N   N3        1.0  0.02245771577586876  0.24266746229092684  0.019287400886597528  1.0000
  H   H5        1.0  0.17897622163845917  0.2237276772846231  0.7235851819923218  1.0000
  H   H6        1.0  0.042044536671055156  0.9552840660510521  0.048038076683305946  1.0000
  H   H7        1.0  0.14752971742944232  0.6933010870842365  0.6212052745630187  1.0000
  H   H8        1.0  0.016285305800296315  0.3547409605376932  0.019240590783556884  1.0000
  H   H9        1.0  0.013157459922207517  0.19435816466873138  0.9218662067029331  1.0000
  C   C15       1.0  0.07799835979518548  0.5612882787709148  0.9841657820116847  1.0000
  C   C16       1.0  0.008373369849098202  0.63157412244968  0.05185134453792782  1.0000
  C   C17       1.0  0.9448109252733178  0.7114465947518381  0.9704196285872477  1.0000
  C   C18       1.0  0.9496959457156867  0.7227057655277496  0.8198171158039917  1.0000
  C   C19       1.0  0.01751316823409077  0.6516449149872519  0.7504246145126935  1.0000
  C   C20       1.0  0.08132841034189388  0.5685803762997965  0.8306147910921127  1.0000
  C   C21       1.0  0.8843445166757838  0.8059482319152161  0.7360665814006775  1.0000
  C   C22       1.0  0.8296244912944634  0.8756524296529966  0.665910296403248  1.0000
  C   C23       1.0  0.7632315850046099  0.9602266879726411  0.5807760300595599  1.0000
  H   H10       1.0  0.2851767987524022  0.4449083357267288  0.09733773268726884  1.0000
  H   H11       1.0  0.8922974591087314  0.7656629469270855  0.025132914186480226  1.0000
  H   H12       1.0  0.21952782498515033  0.48504640831474544  0.5571860809454097  1.0000
  H   H13       1.0  0.7814626582061479  0.9643711430259501  0.4647694156424573  1.0000
  H   H14       1.0  0.6961779679045654  0.9088608678796021  0.5958968204908434  1.0000
  H   H15       1.0  0.761686785331921  0.07160805376801616  0.6170758347929812  1.0000
  Zn  Zn1       1.0  0.9815032935135868  0.5649360640865486  0.40739240314154646  1.0000
  Zn  Zn2       1.0  0.17781491071738564  0.56493193551338  0.4073875524087076  1.0000
  C   C24       1.0  0.08065970526352029  0.5614555987046619  0.6706284113614676  1.0000
  C   C25       1.0  0.07866065504480368  0.568414222098103  0.14415168224330444  1.0000
  C   C26       1.0  0.08134484415963564  0.8283362653806544  0.4011624528388469  1.0000
  C   C27       1.0  0.07797543822363179  0.30153182304358395  0.41361772079370773  1.0000
  O   O1        1.0  0.1533821222087991  0.5707978940138441  0.19784258260043286  1.0000
  O   O2        1.0  0.1549342045257941  0.5590677015368092  0.6169334165364202  1.0000
  O   O3        1.0  0.15548646445952452  0.7745772279757738  0.3993377457783951  1.0000
  O   O4        1.0  0.15282979492900384  0.3552883769640718  0.41543814527949496  1.0000
  O   O5        1.0  0.006488342310428273  0.7745796226387704  0.39934181026483034  1.0000
  O   O6        1.0  0.005936093310215277  0.559071828581247  0.6169374009891455  1.0000
  O   O7        1.0  0.004384003909806865  0.570801955864336  0.1978448343796977  1.0000
  O   O8        1.0  0.0038316769845367915  0.35529242942828554  0.41544050513179465  1.0000
