data_image0
_chemical_formula_structural       NC9NC5H8C7NC2NH8C7F3H5Zn2C4O8
_chemical_formula_sum              "N4 C34 H21 F3 Zn2 O8"
_cell_length_a       17.807436237873137
_cell_length_b       9.273995741505848
_cell_length_c       9.272721663655245
_cell_angle_alpha    86.0144275597797
_cell_angle_beta     89.9168972107098
_cell_angle_gamma    88.97465214434487

_space_group_name_H-M_alt    "P 1"
_space_group_IT_number       1

loop_
  _space_group_symop_operation_xyz
  'x, y, z'

loop_
  _atom_site_type_symbol
  _atom_site_label
  _atom_site_symmetry_multiplicity
  _atom_site_fract_x
  _atom_site_fract_y
  _atom_site_fract_z
  _atom_site_occupancy
  N   N1        1.0  0.7080382902931762  0.5321716742014799  0.40176765171362194  1.0000
  C   C1        1.0  0.6471852710503203  0.49304142208944496  0.38943390996130156  1.0000
  C   C2        1.0  0.5714908033926557  0.44436769761109846  0.37409207455084603  1.0000
  C   C3        1.0  0.552427428120988  0.3644722415422501  0.2573205844793427  1.0000
  C   C4        1.0  0.4789309220888462  0.31708954426804725  0.24233261491751956  1.0000
  C   C5        1.0  0.4234466744233565  0.3491829998706033  0.3440790932681188  1.0000
  C   C6        1.0  0.3453399431322974  0.2989554504560228  0.3282421946157459  1.0000
  C   C7        1.0  0.2837821158349224  0.38986854048366215  0.3572602794570383  1.0000
  C   C8        1.0  0.2101421782752961  0.3422605211469223  0.34228695487460903  1.0000
  C   C9        1.0  0.1475520540172992  0.43616353591426876  0.3717162830995453  1.0000
  N   N2        1.0  0.09724254411478908  0.5116550695971143  0.3953766407363395  1.0000
  C   C10       1.0  0.1974748676024112  0.20345286785898065  0.2982667088458748  1.0000
  C   C11       1.0  0.2581751993367759  0.11252435066908495  0.2692392721464578  1.0000
  C   C12       1.0  0.3316923144600278  0.15969318669623367  0.2839866692565234  1.0000
  C   C13       1.0  0.4432055213152998  0.4296285576788317  0.46109531009664634  1.0000
  C   C14       1.0  0.5167529589693937  0.4767989786835763  0.47590995693975907  1.0000
  H   H1        1.0  0.5943137004583932  0.3390908293630044  0.17764081545814658  1.0000
  H   H2        1.0  0.46526683490069215  0.2570092653278775  0.15012576718995807  1.0000
  H   H3        1.0  0.2930062243998118  0.4982377831530176  0.3895825507873285  1.0000
  H   H4        1.0  0.1407534122690845  0.16560588392875952  0.2864124045416909  1.0000
  H   H5        1.0  0.2482512937145929  0.005058516336009949  0.23558643730340093  1.0000
  H   H6        1.0  0.377845247515978  0.08659512906723978  0.2626617638061288  1.0000
  H   H7        1.0  0.4020397337477838  0.4544191188257158  0.5422108570706592  1.0000
  H   H8        1.0  0.5309471394621167  0.5382281932104986  0.5669636065470229  1.0000
  C   C15       1.0  0.9003930129708262  0.09853704032410682  0.39755569984043326  1.0000
  C   C16       1.0  0.9129644874150363  0.1803884119139143  0.2669450758474592  1.0000
  C   C17       1.0  0.9322814326571182  0.11356349632077656  0.141632222154638  1.0000
  C   C18       1.0  0.9398404361762086  0.9627291354157411  0.14334621134719128  1.0000
  C   C19       1.0  0.9256863370325085  0.8796769786890869  0.27278829783130987  1.0000
  C   C20       1.0  0.9048949952694891  0.9452782788689591  0.3996009359574648  1.0000
  C   C21       1.0  0.9612212788179242  0.8938626400455086  0.008997417250599108  1.0000
  N   N3        1.0  0.9633396069878719  0.9673099011906455  0.8779348982137432  1.0000
  C   C22       1.0  0.9854386737167439  0.8677552503373758  0.7868824987280156  1.0000
  C   C23       1.0  0.9965152274092791  0.7366808398046385  0.8632503405178711  1.0000
  N   N4        1.0  0.9813171222985158  0.7532529382176535  0.0029204446704702517  1.0000
  H   H9        1.0  0.8404679381911693  0.3674469316897775  0.6060691584181204  1.0000
  H   H10       1.0  0.9096748352895997  0.2973799458885489  0.2623483435987344  1.0000
  H   H11       1.0  0.9424191698808878  0.18068656426178809  0.04351057941198344  1.0000
  H   H12       1.0  0.9282387669393094  0.7629913936856679  0.27474468721617473  1.0000
  H   H13       1.0  0.9070075290705245  0.6484641190679519  0.6393599065197857  1.0000
  H   H14       1.0  0.9932058527956346  0.8897307688678501  0.6717895702954033  1.0000
  H   H15       1.0  0.014758485190266237  0.6363709444837343  0.8202044029939985  1.0000
  H   H16       1.0  0.985795828856291  0.6729428889706756  0.08713497436279627  1.0000
  C   C24       1.0  0.9006445290437862  0.5196740277350502  0.9751620871565537  1.0000
  C   C25       1.0  0.9319803458477344  0.4000635046120684  0.05707473301658994  1.0000
  C   C26       1.0  0.969944082705705  0.2886817500246044  0.9902726643049825  1.0000
  C   C27       1.0  0.974260734325478  0.29509510070299433  0.8390685794496147  1.0000
  C   C28       1.0  0.9424638727307392  0.4117273684649468  0.7561876896598196  1.0000
  C   C29       1.0  0.9046434958233097  0.5241413652563656  0.821994554775594  1.0000
  C   C30       1.0  0.0014068832066984592  0.15952695659053262  0.07978437827628193  1.0000
  F   F1        1.0  0.026921141387046044  0.20009599603977346  0.21170324027652532  1.0000
  F   F2        1.0  0.06095330293392708  0.09673705984616299  0.009537425111687762  1.0000
  F   F3        1.0  0.9457192462678576  0.05865711748428071  0.10347478254433295  1.0000
  H   H17       1.0  0.8548656287592783  0.865501343612253  0.05299243849624924  1.0000
  H   H18       1.0  0.9282032118821936  0.39513912946289453  0.173969570023097  1.0000
  H   H19       1.0  0.0015685415694404181  0.2089393346809958  0.7845003440375402  1.0000
  H   H20       1.0  0.9456844492535221  0.41201883648184706  0.6394813424993222  1.0000
  H   H21       1.0  0.7711659971694556  0.7744166396861876  0.7035040843594698  1.0000
  Zn  Zn1       1.0  0.8203542484030172  0.5262472223033552  0.39993167359172754  1.0000
  Zn  Zn2       1.0  0.9849265612994288  0.5175678318007682  0.3972244442190884  1.0000
  C   C31       1.0  0.9038553771214114  0.5175534617345112  0.6619112576173525  1.0000
  C   C32       1.0  0.9014272400457755  0.5262633174488243  0.1352449765446806  1.0000
  C   C33       1.0  0.9040130255120766  0.7851960965045761  0.3934686759204591  1.0000
  C   C34       1.0  0.9012695266514483  0.2586189538781498  0.4036876318538345  1.0000
  O   O1        1.0  0.9641442266346768  0.5251746699927644  0.18794286196775833  1.0000
  O   O2        1.0  0.9660449603339575  0.5120535627993206  0.6071582300503864  1.0000
  O   O3        1.0  0.9661714285687404  0.7281784274901257  0.3903889635251061  1.0000
  O   O4        1.0  0.9640177017868218  0.30904981800685616  0.40471202133116035  1.0000
  O   O5        1.0  0.8412630517551429  0.7347652390606465  0.39244409739592023  1.0000
  O   O6        1.0  0.8411365923635414  0.51864210613383  0.6092132912252035  1.0000
  O   O7        1.0  0.8392358502608377  0.5317631539387473  0.18999618946952523  1.0000
  O   O8        1.0  0.8391093258655735  0.3156382922113212  0.40676545691107013  1.0000
