data_image0
_chemical_formula_structural       NC8NC6H8C8H4C6NO2H3Zn2C4O8
_chemical_formula_sum              "N3 C32 H15 O10 Zn2"
_cell_length_a       17.457602349358154
_cell_length_b       9.27514070457351
_cell_length_c       9.273395971720356
_cell_angle_alpha    85.10192813467344
_cell_angle_beta     92.78021970675468
_cell_angle_gamma    92.27341969939751

_space_group_name_H-M_alt    "P 1"
_space_group_IT_number       1

loop_
  _space_group_symop_operation_xyz
  'x, y, z'

loop_
  _atom_site_type_symbol
  _atom_site_label
  _atom_site_symmetry_multiplicity
  _atom_site_fract_x
  _atom_site_fract_y
  _atom_site_fract_z
  _atom_site_occupancy
  N   N1        1.0  0.7329610652599682  0.6295132722000668  0.47806269048019295  1.0000
  C   C1        1.0  0.6716153990317588  0.5786338648097777  0.4661156796240369  1.0000
  C   C2        1.0  0.5952988305857396  0.5153461168553328  0.4512642222276595  1.0000
  C   C3        1.0  0.5369250146239136  0.5590743940690504  0.5346409050621417  1.0000
  C   C4        1.0  0.4620587270349845  0.4981319598057093  0.5204792027636753  1.0000
  C   C5        1.0  0.4001023730554276  0.5442997949923165  0.6087778603071902  1.0000
  C   C6        1.0  0.3257359495418882  0.5654613585553978  0.5468571802922826  1.0000
  C   C7        1.0  0.267360876592391  0.6089841125851174  0.6303532596525854  1.0000
  C   C8        1.0  0.19156267732663637  0.6308443862313906  0.5659720852122451  1.0000
  N   N2        1.0  0.13063380246677536  0.6484129593545722  0.5142097683137956  1.0000
  C   C9        1.0  0.2828609351043679  0.6316093926840798  0.7763360097280929  1.0000
  C   C10       1.0  0.3564445624376464  0.6108753023636216  0.8386887500905642  1.0000
  C   C11       1.0  0.41480857711417385  0.5675471680588933  0.7557019992116185  1.0000
  C   C12       1.0  0.44685249501351604  0.3927256533391379  0.42134597293692533  1.0000
  C   C13       1.0  0.5052158117757296  0.3493022008062723  0.33841478354526444  1.0000
  C   C14       1.0  0.5792973553935258  0.41036301581324547  0.353188106764398  1.0000
  H   H1        1.0  0.5496478821573996  0.641805344872965  0.608941768432345  1.0000
  H   H2        1.0  0.3134228300997309  0.5500268987024539  0.4334106389163872  1.0000
  H   H3        1.0  0.23811750541408802  0.6652200815940665  0.841830378601974  1.0000
  H   H4        1.0  0.36825393816365326  0.6280440170788747  0.951725433054919  1.0000
  H   H5        1.0  0.4711468649246145  0.5503593607483608  0.806900226273553  1.0000
  H   H6        1.0  0.3901037528772311  0.3425015376731573  0.4093607168695732  1.0000
  H   H7        1.0  0.4930150233929091  0.26782515352549296  0.2627856016493224  1.0000
  H   H8        1.0  0.6240348979246938  0.3757804956473434  0.2882590445548301  1.0000
  C   C15       1.0  0.9294712127502934  0.21542230643904348  0.49491522394741655  1.0000
  C   C16       1.0  0.9405716477324939  0.30076185598589006  0.36424023962660046  1.0000
  C   C17       1.0  0.9583582322691022  0.23760885193645542  0.23934695324202626  1.0000
  C   C18       1.0  0.9654692283898213  0.0879883368523191  0.24273767219975917  1.0000
  C   C19       1.0  0.9533886138473299  0.0010459809037166588  0.3709576543334452  1.0000
  C   C20       1.0  0.9341308940733166  0.062493011727579706  0.49737038652662413  1.0000
  C   C21       1.0  0.9843070964216799  0.02317638253449972  0.11390487300374973  1.0000
  C   C22       1.0  7.973763782186992e-05  0.9688972591577701  0.006044309717790905  1.0000
  H   H9        1.0  0.9416359847594905  0.2888151763683111  0.850728915678749  1.0000
  H   H10       1.0  0.9673162525741953  0.30581385781520365  0.14036427610584967  1.0000
  H   H11       1.0  0.9393760438459926  0.7617294663006968  0.7368350242692904  1.0000
  H   H12       1.0  0.013924731967836614  0.9212498898627278  0.9113653796076333  1.0000
  C   C23       1.0  0.9322621060200419  0.6434092241565204  0.0722586084421466  1.0000
  C   C24       1.0  0.8640514811028558  0.673078923283656  0.1367241504288268  1.0000
  C   C25       1.0  0.7955510505865238  0.6891006909139763  0.0541145194061321  1.0000
  C   C26       1.0  0.7933170231555741  0.6757475553491175  0.9045850369868207  1.0000
  C   C27       1.0  0.8615002373124394  0.6485472572265552  0.8386852526583426  1.0000
  C   C28       1.0  0.9313399993700727  0.6345060885732265  0.9200269879700014  1.0000
  N   N3        1.0  0.722285481239721  0.6911685030569066  0.8200360993982097  1.0000
  O   O1        1.0  0.6557714957179959  0.7189956225416683  0.8848391402042388  1.0000
  O   O2        1.0  0.7197763510325066  0.6791662459697598  0.6867839790222113  1.0000
  H   H13       1.0  0.09928041273693934  0.4898105242658462  0.2034744303585902  1.0000
  H   H14       1.0  0.744040815951035  0.7105621620070719  0.10787275720865905  1.0000
  H   H15       1.0  0.0452475264439576  0.5353798712108953  0.6586807298833353  1.0000
  Zn  Zn1       1.0  0.8477207967044618  0.6349633583089398  0.48850227951558844  1.0000
  Zn  Zn2       1.0  0.01587397886825559  0.6429509238749131  0.5037819628531822  1.0000
  C   C29       1.0  0.9314809934984154  0.6304431079137438  0.7597637852002377  1.0000
  C   C30       1.0  0.9321156281584739  0.647473079825237  0.23252077097321378  1.0000
  C   C31       1.0  0.9332524371677744  0.9024388371853498  0.49115381809917014  1.0000
  C   C32       1.0  0.9303441174941943  0.375475614178155  0.5011308047953693  1.0000
  O   O3        1.0  0.9958796905300564  0.6518618941540057  0.29210475869012087  1.0000
  O   O4        1.0  0.99534130005594  0.6321155873328689  0.7117763049125069  1.0000
  O   O5        1.0  0.996770901356195  0.8517555219501685  0.4948717821964459  1.0000
  O   O6        1.0  0.9944500320249854  0.4322219682652466  0.5090091679921032  1.0000
  O   O7        1.0  0.8691446861653209  0.8456923111944925  0.48327506915487284  1.0000
  O   O8        1.0  0.867715094477575  0.6260541102285548  0.7001795199280522  1.0000
  O   O9        1.0  0.8682534866138492  0.6458003850173204  0.28050623809793906  1.0000
  O   O10       1.0  0.8668238279311824  0.42616044767590666  0.49741075559220665  1.0000
