data_image0
_chemical_formula_structural       NC8NH4C6NCH9C7ONH5Zn2C4O8
_chemical_formula_sum              "N4 C26 H18 O9 Zn2"
_cell_length_a       13.859017124695912
_cell_length_b       9.273386996610926
_cell_length_c       9.273042158839658
_cell_angle_alpha    86.06883900085258
_cell_angle_beta     90.09322216123502
_cell_angle_gamma    89.39861590222965

_space_group_name_H-M_alt    "P 1"
_space_group_IT_number       1

loop_
  _space_group_symop_operation_xyz
  'x, y, z'

loop_
  _atom_site_type_symbol
  _atom_site_label
  _atom_site_symmetry_multiplicity
  _atom_site_fract_x
  _atom_site_fract_y
  _atom_site_fract_z
  _atom_site_occupancy
  N   N1        1.0  0.8958850496987464  0.5620999492592493  0.40754793337758954  1.0000
  C   C1        1.0  0.8236341951111746  0.538641080374396  0.3514237835853571  1.0000
  C   C2        1.0  0.7337584117369775  0.5094616698267254  0.2816125536881977  1.0000
  C   C3        1.0  0.6460175252266687  0.5379086253120101  0.34966971837659844  1.0000
  C   C4        1.0  0.5585280826748708  0.5094628899852391  0.28161197238487246  1.0000
  C   C5        1.0  0.5589619670671749  0.45256247649813064  0.14547616939646013  1.0000
  C   C6        1.0  0.6465198106260915  0.424224859554017  0.07768097521673889  1.0000
  C   C7        1.0  0.7338273436484554  0.45256013861492694  0.14547735158583697  1.0000
  C   C8        1.0  0.46839434937625607  0.5386420020122611  0.35142328405537904  1.0000
  N   N2        1.0  0.3959361728006961  0.5621002697089209  0.40754771684242974  1.0000
  H   H1        1.0  0.6458228854718029  0.5819517466849509  0.45504209004460255  1.0000
  H   H2        1.0  0.4917654667072582  0.4301736231275684  0.091907727306475  1.0000
  H   H3        1.0  0.6467141169550046  0.38027168411318807  0.9725219991616849  1.0000
  H   H4        1.0  0.8012217168110979  0.4301691942928698  0.09190991215810218  1.0000
  C   C9        1.0  0.1488830808318775  0.1384535981984407  0.4082561051823618  1.0000
  C   C10       1.0  0.165692764738669  0.22055639318922893  0.27793405651026415  1.0000
  C   C11       1.0  0.17341745881538673  0.15468060841562978  0.147603955439793  1.0000
  C   C12       1.0  0.16444793937641466  0.004344750866721369  0.14426366515043298  1.0000
  C   C13       1.0  0.14933818669640408  0.921274273819527  0.27413300358310133  1.0000
  C   C14       1.0  0.14294744299137618  0.9857356604502988  0.4068520762950329  1.0000
  N   N3        1.0  0.1713542224659952  0.9334041959715568  0.011242770610728094  1.0000
  C   C15       1.0  0.1872851744626154  0.009819067898660949  0.8705903845802129  1.0000
  H   H5        1.0  0.16883649568892056  0.40309103723421524  0.6448897350888312  1.0000
  H   H6        1.0  0.17061237959261288  0.33718366251045584  0.2761657426197728  1.0000
  H   H7        1.0  0.18548615526895598  0.22225140779973082  0.049699571305872776  1.0000
  H   H8        1.0  0.14478153819635198  0.8048492490805123  0.27185923120913036  1.0000
  H   H9        1.0  0.17883081495785058  0.8580717585542749  0.7579071351866652  1.0000
  H   H10       1.0  0.16453562740293348  0.821068553095537  0.014231606214808902  1.0000
  H   H11       1.0  0.1274435429550378  0.08812878641242738  0.845547604512134  1.0000
  H   H12       1.0  0.2571242229442414  0.06737331481920966  0.8708229402119363  1.0000
  H   H13       1.0  0.18963084252073226  0.9314836237874075  0.7852619862289195  1.0000
  C   C16       1.0  0.1454851123695078  0.5576360150239285  0.9842965600631465  1.0000
  C   C17       1.0  0.05679790241142846  0.5668226079572338  0.05696218004721709  1.0000
  C   C18       1.0  0.9697553554438916  0.5899635303139192  0.9806677060766757  1.0000
  C   C19       1.0  0.9719471631594292  0.6021753391246019  0.8291487681678402  1.0000
  C   C20       1.0  0.05906961812221678  0.5908706357653876  0.7554772281656857  1.0000
  C   C21       1.0  0.14634546086090272  0.5665532234184087  0.8308116213811174  1.0000
  C   C22       1.0  0.877482302155212  0.5999227244614869  0.06051126016748509  1.0000
  O   O1        1.0  0.8714272314486095  0.5440949395570005  0.18797439871176835  1.0000
  N   N4        1.0  0.7948951648204032  0.6731122130795708  0.9968535464797292  1.0000
  H   H14       1.0  0.3792004431984186  0.6127412421127425  0.0841652042974721  1.0000
  H   H15       1.0  0.9062320571983703  0.6164392512014678  0.7665020247482475  1.0000
  H   H16       1.0  0.30392423029399795  0.5969757423734137  0.5478393594890028  1.0000
  H   H17       1.0  0.7991055206715072  0.7354098095257144  0.89908448086884  1.0000
  H   H18       1.0  0.7296799141520894  0.6729497880200133  0.053096303493360926  1.0000
  Zn  Zn1       1.0  0.0401890405828047  0.5620962777480332  0.4075562051120883  1.0000
  Zn  Zn2       1.0  0.25163226873837474  0.5620922974023803  0.4075512862406091  1.0000
  C   C23       1.0  0.1462209207056897  0.5591204899101938  0.6708116491294691  1.0000
  C   C24       1.0  0.14560268496085296  0.5650699069601122  0.14429598062012805  1.0000
  C   C25       1.0  0.14405861727666336  0.8255208256437369  0.40137384490035255  1.0000
  C   C26       1.0  0.14776492845959877  0.2986678387633135  0.4137338645668127  1.0000
  O   O2        1.0  0.22588379062725952  0.5675569846505895  0.19799139151542233  1.0000
  O   O3        1.0  0.22642033994871236  0.5566292985265351  0.6171120918197044  1.0000
  O   O4        1.0  0.22467317241166462  0.771750954531248  0.39953915612690594  1.0000
  O   O5        1.0  0.2276308858309266  0.3524353378289329  0.415564219122741  1.0000
  O   O6        1.0  0.06419035133503792  0.7717532373243305  0.39954327222405106  1.0000
  O   O7        1.0  0.06593750664715103  0.5566333137857218  0.6171161281933764  1.0000
  O   O8        1.0  0.06540095598089857  0.5675609313823439  0.19799369507139497  1.0000
  O   O9        1.0  0.06714805136273094  0.3524392753804804  0.41556663075828826  1.0000
