data_image0
_chemical_formula_structural       NC12NC2H8C9H8C9H10Zn2C4O8
_chemical_formula_sum              "N2 C36 H26 Zn2 O8"
_cell_length_a       19.240039667572717
_cell_length_b       9.275152443626249
_cell_length_c       10.29718717394978
_cell_angle_alpha    85.37052444745348
_cell_angle_beta     89.97407950640248
_cell_angle_gamma    90.57354334366605

_space_group_name_H-M_alt    "P 1"
_space_group_IT_number       1

loop_
  _space_group_symop_operation_xyz
  'x, y, z'

loop_
  _atom_site_type_symbol
  _atom_site_label
  _atom_site_symmetry_multiplicity
  _atom_site_fract_x
  _atom_site_fract_y
  _atom_site_fract_z
  _atom_site_occupancy
  N   N1        1.0  0.662442904576297  0.5785968304653564  0.562268786641511  1.0000
  C   C1        1.0  0.602294536229049  0.5785969237429587  0.5622687043989831  1.0000
  C   C2        1.0  0.5274764997498452  0.5785970540087706  0.562268566662498  1.0000
  C   C3        1.0  0.49063219435908023  0.5070008305193938  0.6659240203612322  1.0000
  C   C4        1.0  0.4179608308969622  0.5068776724305621  0.6660109612279794  1.0000
  C   C5        1.0  0.3811442653637731  0.57859715680319  0.5622683386138287  1.0000
  C   C6        1.0  0.4187033791732754  0.650316848908302  0.45852590994302345  1.0000
  C   C7        1.0  0.4913734509827293  0.6501934292376617  0.4586129741434308  1.0000
  C   C8        1.0  0.3039391745254764  0.5785970694128593  0.5622682434465309  1.0000
  C   C9        1.0  0.2661340375841512  0.45279012452188105  0.6045357087784751  1.0000
  C   C10       1.0  0.1934639443741251  0.452908859815543  0.6044439974954343  1.0000
  C   C11       1.0  0.1576068868950444  0.5785969259328536  0.5622683048121797  1.0000
  C   C12       1.0  0.08278884907022659  0.5785967996163952  0.5622685539168235  1.0000
  N   N2        1.0  0.022640531948917804  0.5785967542950166  0.5622687625216711  1.0000
  C   C13       1.0  0.19469734069187988  0.7042850762742616  0.5200925589670948  1.0000
  C   C14       1.0  0.2673686330888096  0.7044040116292352  0.5200006844374452  1.0000
  H   H1        1.0  0.5180599766853407  0.45156956205129145  0.7468538092371513  1.0000
  H   H2        1.0  0.39058444972280537  0.4523330718036811  0.7480537715402569  1.0000
  H   H3        1.0  0.3918932297166208  0.7048614795791486  0.3764830486785782  1.0000
  H   H4        1.0  0.5193754395154017  0.7056245863668955  0.377683461466614  1.0000
  H   H5        1.0  0.2927418036299625  0.3537585521694582  0.6360152135430246  1.0000
  H   H6        1.0  0.16526816441613248  0.35487624314519284  0.6369536196070944  1.0000
  H   H7        1.0  0.1674632970670207  0.8023176656904348  0.487582951493019  1.0000
  H   H8        1.0  0.2949473462955048  0.803435671926918  0.48852113462062147  1.0000
  C   C15       1.0  0.8404944285736377  0.15496469515414724  0.5635949336971711  1.0000
  C   C16       1.0  0.8154482390976232  0.23768900927751835  0.4532387325577952  1.0000
  C   C17       1.0  0.796863168906178  0.1722322942539849  0.34081638689017146  1.0000
  C   C18       1.0  0.8030325783973277  0.022889767425988704  0.33652431308491404  1.0000
  C   C19       1.0  0.8267198695785688  0.9384771791277805  0.4459478615415817  1.0000
  C   C20       1.0  0.8445956307698154  0.002217852165225184  0.5609538158139062  1.0000
  C   C21       1.0  0.784230137968967  0.9557243426546221  0.22010390365499474  1.0000
  C   C22       1.0  0.7684874899518185  0.8994556613679447  0.12262006418304393  1.0000
  C   C23       1.0  0.7493868988720421  0.8311715695830559  0.004340521721705845  1.0000
  H   H9        1.0  0.9403020773346682  0.23665160131376478  0.8230198486849771  1.0000
  H   H10       1.0  0.8117871294160168  0.3542064398605862  0.4528301302512461  1.0000
  H   H11       1.0  0.7783007218673812  0.23846055807049574  0.2566867327911708  1.0000
  H   H12       1.0  0.8296470530776677  0.8221666533428743  0.4423241389483541  1.0000
  H   H13       1.0  0.9095644142945085  0.7069427053541439  0.7383917482346354  1.0000
  H   H14       1.0  0.7620898884842763  0.7144513981010057  0.016475950814112347  1.0000
  H   H15       1.0  0.6928217973375244  0.843751710635447  0.986557354355857  1.0000
  H   H16       1.0  0.778758763237329  0.8835086026408012  0.9202582925628646  1.0000
  C   C24       1.0  0.8426366592923954  0.578539110153613  0.18082140035632685  1.0000
  C   C25       1.0  0.772393099121572  0.6181630903051343  0.17721598513505143  1.0000
  C   C26       1.0  0.7364052517055371  0.6384633812932137  0.05875242163278549  1.0000
  C   C27       1.0  0.7721207978853126  0.6183161389378584  0.9419927830101059  1.0000
  C   C28       1.0  0.8424534014136017  0.5786434309072117  0.9437273848859276  1.0000
  C   C29       1.0  0.8772520273382527  0.5590125726388855  0.06352986515435832  1.0000
  C   C30       1.0  0.6604317770547482  0.6813192526566214  0.06428507829827801  1.0000
  C   C31       1.0  0.611492170090717  0.623295031445952  0.9641941167262722  1.0000
  C   C32       1.0  0.6329301646482351  0.7824474531191745  0.9525984978548915  1.0000
  H   H17       1.0  0.869705690186764  0.5632838115512389  0.5097480520888531  1.0000
  H   H18       1.0  0.7452752861718486  0.633460482056424  0.26724645413105375  1.0000
  H   H19       1.0  0.7457554525242192  0.6331853457041061  0.8493393365126902  1.0000
  H   H20       1.0  0.9314462695914176  0.5284411219738706  0.06558417372829028  1.0000
  H   H21       1.0  0.975289159651036  0.5036943967808878  0.7397884683648681  1.0000
  H   H22       1.0  0.6360127720195498  0.6950950741753952  0.16031942228516916  1.0000
  H   H23       1.0  0.6347147999926259  0.5581823046289045  0.8898721021006617  1.0000
  H   H24       1.0  0.5573791064734164  0.6037753494246982  0.9993735519849896  1.0000
  H   H25       1.0  0.6691755440070402  0.8140109395109851  0.8712337077771681  1.0000
  H   H26       1.0  0.5913460470942576  0.8559457886958048  0.9809983859910888  1.0000
  Zn  Zn1       1.0  0.7663881478680852  0.5785929580716764  0.5622762817636013  1.0000
  Zn  Zn2       1.0  0.9186952479203148  0.5785888606913798  0.5622719053178906  1.0000
  C   C33       1.0  0.8424586649544248  0.572876664822739  0.7995397300335784  1.0000
  C   C34       1.0  0.8426264028030219  0.5843069741239264  0.32500857882065404  1.0000
  C   C35       1.0  0.8438180777033549  0.8420682347456776  0.556276757154399  1.0000
  C   C36       1.0  0.8412669296759224  0.31511367099700105  0.5682716263580552  1.0000
  O   O1        1.0  0.9004226808814335  0.586234873410769  0.37339747185975436  1.0000
  O   O2        1.0  0.900259946491098  0.5709445673728788  0.7511471448374643  1.0000
  O   O3        1.0  0.9013569099852343  0.7883201646833049  0.5547105684581692  1.0000
  O   O4        1.0  0.8993256654885513  0.3688592864081881  0.5698339508122392  1.0000
  O   O5        1.0  0.7857576783249195  0.7883225323578362  0.5547142362639093  1.0000
  O   O6        1.0  0.7846607232340236  0.5709486682543641  0.7511507379796383  1.0000
  O   O7        1.0  0.7848234578024044  0.5862389238075383  0.37339950341372496  1.0000
  O   O8        1.0  0.783726442333339  0.36886332650007936  0.569836079787676  1.0000
