data_image0
_chemical_formula_structural       NC4NH4C10H9C6H4Zn2C4O8
_chemical_formula_sum              "N2 C24 H17 Zn2 O8"
_cell_length_a       11.318664859524475
_cell_length_b       15.491143632010285
_cell_length_c       10.681121600428288
_cell_angle_alpha    82.99762469271862
_cell_angle_beta     89.15265362148361
_cell_angle_gamma    91.47903729037128

_space_group_name_H-M_alt    "P 1"
_space_group_IT_number       1

loop_
  _space_group_symop_operation_xyz
  'x, y, z'

loop_
  _atom_site_type_symbol
  _atom_site_label
  _atom_site_symmetry_multiplicity
  _atom_site_fract_x
  _atom_site_fract_y
  _atom_site_fract_z
  _atom_site_occupancy
  N   N1        1.0  0.09972781561690106  0.9801286951367245  0.5342340840214418  1.0000
  C   C1        1.0  0.03559386974054578  0.9912258089646016  0.615771368571221  1.0000
  C   C2        1.0  0.9541447209129158  0.005301374954312047  0.7193282848616841  1.0000
  C   C3        1.0  0.8565291467045314  0.06750156670642267  0.6735935123292347  1.0000
  C   C4        1.0  0.7758272913391709  0.028228013274588036  0.5885642483457196  1.0000
  N   N2        1.0  0.7122816609650497  0.9973146557619605  0.5215975331087701  1.0000
  H   H1        1.0  0.9150704150569671  0.9417237265288846  0.7619600141810663  1.0000
  H   H2        1.0  0.00553455244755696  0.03371315813189235  0.7928417498411482  1.0000
  H   H3        1.0  0.8956303816513705  0.12915157625722617  0.6241472760920684  1.0000
  H   H4        1.0  0.8045201486684014  0.08330499420305548  0.7563776594814691  1.0000
  C   C5        1.0  0.4095641591614344  0.7341059218885707  0.5444192464397044  1.0000
  C   C6        1.0  0.39380810181925474  0.675450987796875  0.4632270946873104  1.0000
  C   C7        1.0  0.4004751217221676  0.5800797552584963  0.4988028081505632  1.0000
  C   C8        1.0  0.46098457288535166  0.5433725413544689  0.6057443066272266  1.0000
  C   C9        1.0  0.4655523331969738  0.45307085809059927  0.6347188022795787  1.0000
  C   C10       1.0  0.41154628375640706  0.3973573097666512  0.5570397028023621  1.0000
  C   C11       1.0  0.3510369209820926  0.43406452614875574  0.4500982025075617  1.0000
  C   C12       1.0  0.3464689838927311  0.5243662044564708  0.4211237104914835  1.0000
  C   C13       1.0  0.41821339204818964  0.30198607970634966  0.5926154144474776  1.0000
  C   C14       1.0  0.40245671696958896  0.24333105734677546  0.5114233722122535  1.0000
  H   H5        1.0  0.41126493776355155  0.9505151701570107  0.5716579787726553  1.0000
  H   H6        1.0  0.42679896513316345  0.7135956928137065  0.6426678200835267  1.0000
  H   H7        1.0  0.3713037263324219  0.6979599709585185  0.36664259579128017  1.0000
  H   H8        1.0  0.5067496254817103  0.5836688090381305  0.6663181050523854  1.0000
  H   H9        1.0  0.5127658915195286  0.42658918443640753  0.717579202406259  1.0000
  H   H10       1.0  0.3052716907040445  0.3937683182285927  0.38952440521995796  1.0000
  H   H11       1.0  0.29925560144396585  0.5508479477864705  0.33826330422980955  1.0000
  H   H12       1.0  0.44071803261991543  0.27947711018062116  0.6891998135976054  1.0000
  H   H13       1.0  0.38522138165030717  0.2638412006318384  0.41317490626746456  1.0000
  C   C15       1.0  0.40601048556653896  0.9887184823325288  0.16017607911740694  1.0000
  C   C16       1.0  0.32208302246456877  0.9381228603520446  0.10362344775477839  1.0000
  C   C17       1.0  0.3220829478923648  0.9381229138775078  0.9727413057218453  1.0000
  C   C18       1.0  0.4060103920549316  0.9887185222282066  0.8956665139565851  1.0000
  C   C19       1.0  0.4898685860954993  0.03927222349285021  0.9522225948146325  1.0000
  C   C20       1.0  0.4898685711607933  0.03927220962377764  0.08311489466081488  1.0000
  H   H14       1.0  0.2562967148225901  0.898463620714609  0.16047750625578683  1.0000
  H   H15       1.0  0.25629668956759916  0.898463660835475  0.9319734748949382  1.0000
  H   H16       1.0  0.5556634839716935  0.07893668698878642  0.8954123702932058  1.0000
  H   H17       1.0  0.5556634248436718  0.078936654923069  0.12383674097560912  1.0000
  Zn  Zn1       1.0  0.27649767143941406  0.985085869843329  0.5305948199135712  1.0000
  Zn  Zn2       1.0  0.5355119359204368  0.9923503819828968  0.5252474783479807  1.0000
  C   C21       1.0  0.4060560148006181  0.9852642878751142  0.7568669589626361  1.0000
  C   C22       1.0  0.4059564057176333  0.9921731372820196  0.29897533293179435  1.0000
  C   C23       1.0  0.40379412580523555  0.14707650207809572  0.5126701177277857  1.0000
  C   C24       1.0  0.40821822086906284  0.8303598788848227  0.5431723102557768  1.0000
  O   O1        1.0  0.5042328723282972  0.9960856128821742  0.34352858730450725  1.0000
  O   O2        1.0  0.5043653908783996  0.9868647548007616  0.7082548779627591  1.0000
  O   O3        1.0  0.5025375618513124  0.1175301270008755  0.5110641698717553  1.0000
  O   O4        1.0  0.5060606128847985  0.8654202444056658  0.5407192029221571  1.0000
  O   O5        1.0  0.30594890608618336  0.11201600494248298  0.5151230971575314  1.0000
  O   O6        1.0  0.30777672056835415  0.9813516744585067  0.7123136709775408  1.0000
  O   O7        1.0  0.3076442025186834  0.9905725023275344  0.34758587665287183  1.0000
  O   O8        1.0  0.3094719431569011  0.8599071276493432  0.5447765865620128  1.0000
