data_image0
_chemical_formula_structural       NC9NC5H8C8H6C7NC2NH8Zn2C4O8
_chemical_formula_sum              "N4 C35 H22 Zn2 O8"
_cell_length_a       17.807436237873137
_cell_length_b       9.275140704573507
_cell_length_c       9.27399911348925
_cell_angle_alpha    85.20391567868208
_cell_angle_beta     89.04204372891122
_cell_angle_gamma    88.98377242316299

_space_group_name_H-M_alt    "P 1"
_space_group_IT_number       1

loop_
  _space_group_symop_operation_xyz
  'x, y, z'

loop_
  _atom_site_type_symbol
  _atom_site_label
  _atom_site_symmetry_multiplicity
  _atom_site_fract_x
  _atom_site_fract_y
  _atom_site_fract_z
  _atom_site_occupancy
  N   N1        1.0  0.7206859398050982  0.5540909297491328  0.3999110935495967  1.0000
  C   C1        1.0  0.6599262556600771  0.515135808898769  0.3875685080439344  1.0000
  C   C2        1.0  0.5843478867338204  0.4666799286852825  0.37221567195821703  1.0000
  C   C3        1.0  0.5661925155988192  0.38840846337912094  0.2553291815743812  1.0000
  C   C4        1.0  0.4928094445341885  0.34123856595048885  0.24033044695549277  1.0000
  C   C5        1.0  0.4365308827353049  0.37192139201557106  0.34218116647756913  1.0000
  C   C6        1.0  0.358543997956046  0.3219187144744551  0.3263329103608157  1.0000
  C   C7        1.0  0.29676648111201437  0.4124199011570444  0.3553719260341712  1.0000
  C   C8        1.0  0.2232398449281006  0.3650245056018713  0.3403878761442556  1.0000
  C   C9        1.0  0.1604270602195862  0.45850957992496927  0.36983824872188653  1.0000
  N   N2        1.0  0.1099385372121111  0.5336651016215199  0.393515525846371  1.0000
  C   C10       1.0  0.21090572705823157  0.22684181178562318  0.2963359742903591  1.0000
  C   C11       1.0  0.27182582030212904  0.1363253290602644  0.2672875985204941  1.0000
  C   C12       1.0  0.34523136700024903  0.1832847167644065  0.28204552906542557  1.0000
  C   C13       1.0  0.4553798545723381  0.45073951064915363  0.4593125834527454  1.0000
  C   C14       1.0  0.5288151971521514  0.4976995532724224  0.47413783474155907  1.0000
  H   H1        1.0  0.6087008109379889  0.36413177346837067  0.17556780586654974  1.0000
  H   H2        1.0  0.4798626010984759  0.28244029395794845  0.14803246725708963  1.0000
  H   H3        1.0  0.3057464799548226  0.5203295050541655  0.38771674698608516  1.0000
  H   H4        1.0  0.1542739587790013  0.18916317931001414  0.2844731955990183  1.0000
  H   H5        1.0  0.2621565226734489  0.029337425421792854  0.2336107084807979  1.0000
  H   H6        1.0  0.391545219545016  0.11049009766235862  0.26070591854105807  1.0000
  H   H7        1.0  0.4135807477456985  0.47440556612004214  0.5405113204177214  1.0000
  H   H8        1.0  0.5423012801421134  0.5578625480466983  0.5652812505333544  1.0000
  C   C15       1.0  0.9130373315301229  0.12056540847216235  0.3957413497707798  1.0000
  C   C16       1.0  0.9241716644941529  0.20456348801451396  0.2639003876652888  1.0000
  C   C17       1.0  0.9418400109083253  0.1394174049625736  0.1371250003592348  1.0000
  C   C18       1.0  0.9487948372940531  0.989098770829554  0.13975454387517128  1.0000
  C   C19       1.0  0.93670591046137  0.9035904343196377  0.2692457492437159  1.0000
  C   C20       1.0  0.9175942017608969  0.9671790833661759  0.39769769246201436  1.0000
  C   C21       1.0  0.9675004484840489  0.9221823078692597  0.008927838458248965  1.0000
  C   C22       1.0  0.9831623347124572  0.8661411303069099  0.8993978083693573  1.0000
  H   H9        1.0  0.9242201244001184  0.1934119142730426  0.7501956608586677  1.0000
  H   H10       1.0  0.9209557160125492  0.32159541086830745  0.25953244911576934  1.0000
  H   H11       1.0  0.9508121699171775  0.2065518279353098  0.03720032404459839  1.0000
  H   H12       1.0  0.9404927243667899  0.7867860364160867  0.2690052375028152  1.0000
  H   H13       1.0  0.9222402164698409  0.666339239422946  0.63656212731747  1.0000
  H   H14       1.0  0.9969101109541707  0.816947054628729  0.8032534447398065  1.0000
  C   C23       1.0  0.9166328266747282  0.5474934910035691  0.9728553274145965  1.0000
  C   C24       1.0  0.9752210127292287  0.47537388662895963  0.05021163126010909  1.0000
  C   C25       1.0  0.028782137682560317  0.39325267853539225  0.9804892156677695  1.0000
  C   C26       1.0  0.025191368220830235  0.380437374982036  0.8312206288836186  1.0000
  C   C27       1.0  0.9677466877721868  0.45493202947018285  0.7522927334294751  1.0000
  C   C28       1.0  0.9139987247363471  0.5402510027344769  0.8205836349801401  1.0000
  C   C29       1.0  0.08236951674407764  0.29119924940339814  0.7593787850581935  1.0000
  N   N3        1.0  0.1449952142847617  0.23753172243162313  0.8262678078680211  1.0000
  C   C30       1.0  0.18096681178597374  0.1634961293552164  0.7261807401869286  1.0000
  C   C31       1.0  0.13997838615586744  0.1728331444226674  0.601329348799661  1.0000
  N   N4        1.0  0.07796739056007729  0.2530814924174989  0.6223659380586763  1.0000
  H   H15       1.0  0.837660266240118  0.7336385586802472  0.2411665765284121  1.0000
  H   H16       1.0  0.978646469487092  0.47948506744654434  0.16631679389867804  1.0000
  H   H17       1.0  0.07254332380158801  0.33783724001790816  0.04437052799432495  1.0000
  H   H18       1.0  0.965867787336506  0.4511291121579708  0.6362092503567092  1.0000
  H   H19       1.0  0.7972470401323738  0.6277593610414103  0.5369349458680645  1.0000
  H   H20       1.0  0.23380376760580843  0.10584355196629813  0.7435494296984371  1.0000
  H   H21       1.0  0.15413624660126146  0.12394264746511975  0.5022885731764646  1.0000
  H   H22       1.0  0.03559362417014444  0.27716088293729846  0.5474091679801649  1.0000
  Zn  Zn1       1.0  0.8330157832633156  0.5481925592529051  0.3980738096808629  1.0000
  Zn  Zn2       1.0  0.9976085754385218  0.5395516202835873  0.3953646488506808  1.0000
  C   C32       1.0  0.9144640401628216  0.5358773861509196  0.6603316251966738  1.0000
  C   C33       1.0  0.9161621252368566  0.551868516653595  0.13310694962359304  1.0000
  C   C34       1.0  0.9167468777164048  0.8072004188817794  0.3915761039586248  1.0000
  C   C35       1.0  0.9138792219581742  0.28054375430709766  0.401862544737867  1.0000
  O   O1        1.0  0.9784662265325819  0.5500513350546569  0.18586073100548361  1.0000
  O   O2        1.0  0.9770820551478653  0.5311352110859875  0.6055212354144834  1.0000
  O   O3        1.0  0.9789246286602119  0.7502320227469095  0.3884992678480066  1.0000
  O   O4        1.0  0.9766235972476504  0.3309545375788854  0.4028825912952885  1.0000
  O   O5        1.0  0.8540007052867772  0.7567896449079698  0.3905558681531705  1.0000
  O   O6        1.0  0.8521581413321196  0.5376945658130481  0.6075777627603381  1.0000
  O   O7        1.0  0.8535423178886798  0.5566106543719243  0.1879155228496503  1.0000
  O   O8        1.0  0.8516996882089228  0.3375138456613651  0.40493749133304235  1.0000
