data_image0
_chemical_formula_structural       NC12NC2H8C7OC4NC3H8C7OC3FC3H8Zn2C4O8
_chemical_formula_sum              "N3 C45 H24 O10 F1 Zn2"
_cell_length_a       19.240039667572717
_cell_length_b       10.299371701877257
_cell_length_c       10.29938172300155
_cell_angle_alpha    85.59571719418345
_cell_angle_beta     89.98344622294186
_cell_angle_gamma    90.00851160782973

_space_group_name_H-M_alt    "P 1"
_space_group_IT_number       1

loop_
  _space_group_symop_operation_xyz
  'x, y, z'

loop_
  _atom_site_type_symbol
  _atom_site_label
  _atom_site_symmetry_multiplicity
  _atom_site_fract_x
  _atom_site_fract_y
  _atom_site_fract_z
  _atom_site_occupancy
  N   N1        1.0  0.6548115884991503  0.42091205693977707  0.5680048097088686  1.0000
  C   C1        1.0  0.5946632197012133  0.42091214090033957  0.5680047278046692  1.0000
  C   C2        1.0  0.5198451825906024  0.42091225815129096  0.5680045905457989  1.0000
  C   C3        1.0  0.4833503550039296  0.3564731867556925  0.6713912761110392  1.0000
  C   C4        1.0  0.4106795847100255  0.3563623272454984  0.6714777751202763  1.0000
  C   C5        1.0  0.37351294769583415  0.420912350658559  0.5680043629007645  1.0000
  C   C6        1.0  0.41072198905363283  0.4854625611083081  0.4645311452935752  1.0000
  C   C7        1.0  0.4833926552857947  0.4853514661291771  0.46461776671172833  1.0000
  C   C8        1.0  0.2963078572647106  0.4209122719727487  0.56800426745508  1.0000
  C   C9        1.0  0.2591045734075227  0.3076618079343794  0.6098308002664057  1.0000
  C   C10       1.0  0.18643390764020365  0.30776868518878686  0.609739516741489  1.0000
  C   C11       1.0  0.1499755703218301  0.4209121428149986  0.5680043283149063  1.0000
  C   C12       1.0  0.07515753311938758  0.4209120291352375  0.5680045769305269  1.0000
  N   N2        1.0  0.015009216231815498  0.42091198836474875  0.5680047853332024  1.0000
  C   C13       1.0  0.1864647438742736  0.5340556762555754  0.5262690870272559  1.0000
  C   C14       1.0  0.2591354627484255  0.5341627335900245  0.5261776409784291  1.0000
  H   H1        1.0  0.5110487695275427  0.30658322888524037  0.7521128273490232  1.0000
  H   H2        1.0  0.38356971743076235  0.30727074154704903  0.7533151392928592  1.0000
  H   H3        1.0  0.3836453255547802  0.5345541738463035  0.3826937302832778  1.0000
  H   H4        1.0  0.5111240121746489  0.5352413238071462  0.38389649122911984  1.0000
  H   H5        1.0  0.28618594388634155  0.21851407791042707  0.6409636173185317  1.0000
  H   H6        1.0  0.15870707268084086  0.21952040158634545  0.6419056463118631  1.0000
  H   H7        1.0  0.15876175538164672  0.6223039353247908  0.4941029719977163  1.0000
  H   H8        1.0  0.2862405711000314  0.6233105427794345  0.49504477918573636  1.0000
  C   C15       1.0  0.8348774052881834  0.03954156676727427  0.5678777887240185  1.0000
  C   C16       1.0  0.8382753952217614  0.04884730283258265  0.4312162234724272  1.0000
  C   C17       1.0  0.8392000682376962  0.9363719299129457  0.362225521335682  1.0000
  C   C18       1.0  0.8382839438989979  0.8135790687240753  0.43153361161333453  1.0000
  C   C19       1.0  0.8349500724577396  0.8022724929575884  0.5681429943043215  1.0000
  C   C20       1.0  0.8330832329114645  0.9158551376206872  0.6355088319060691  1.0000
  C   C21       1.0  0.8435180335343506  0.9460544025235718  0.217979047055282  1.0000
  O   O1        1.0  0.876977818627803  0.8602934429034894  0.16303451150163095  1.0000
  C   C22       1.0  0.8098662566866057  0.05294661388009691  0.13606886312929922  1.0000
  C   C23       1.0  0.8396514965918712  0.09756003887888465  0.016101509166900785  1.0000
  C   C24       1.0  0.8078322839747383  0.1974429929020507  0.937312652602611  1.0000
  C   C25       1.0  0.8389662107488151  0.24323990650991223  0.8151592025274867  1.0000
  N   N3        1.0  0.8639964997605318  0.28005100015478535  0.7169655425710775  1.0000
  C   C26       1.0  0.7457090904977667  0.25263176407943777  0.9774835255675427  1.0000
  C   C27       1.0  0.7153374042299432  0.20780726483591194  0.09571137216809555  1.0000
  C   C28       1.0  0.7469570625083866  0.10822178234369972  0.17448883143118143  1.0000
  H   H9        1.0  0.8409853229689989  0.14375743081482906  0.37833088674143367  1.0000
  H   H10       1.0  0.8395118964852956  0.7267279081162609  0.37852264187681883  1.0000
  H   H11       1.0  0.8304640111881706  0.9078772034850808  0.7408651578627907  1.0000
  H   H12       1.0  0.8342543291641817  0.47046861989695615  0.6206669854233295  1.0000
  H   H13       1.0  0.8878557955352769  0.055460761698499  0.9845253799558704  1.0000
  H   H14       1.0  0.7206631780246949  0.3298325019049274  0.9172455077057031  1.0000
  H   H15       1.0  0.6670146068879262  0.24992243073608655  0.1261345233025144  1.0000
  H   H16       1.0  0.7218334293910111  0.07353509089560827  0.2646429731382489  1.0000
  C   C29       1.0  0.834972238403794  0.4208058992892221  0.18664269147875  1.0000
  C   C30       1.0  0.8569543697012557  0.2903511793135114  0.19545856967509367  1.0000
  C   C31       1.0  0.868796664716205  0.2250096580454377  0.08269644210951976  1.0000
  C   C32       1.0  0.8568879225875342  0.2906443139990029  0.960192621593471  1.0000
  C   C33       1.0  0.8348552130911397  0.4210081453783623  0.949378117378783  1.0000
  C   C34       1.0  0.8242000613409071  0.485438533452702  0.063192617274622  1.0000
  C   C35       1.0  0.8913047826943964  0.08684094364542139  0.09189369030849615  1.0000
  O   O2        1.0  0.8698909876877396  0.013596700693085714  0.0076869685261404756  1.0000
  C   C36       1.0  0.938110522324855  0.03176772599176659  0.1965197483719092  1.0000
  C   C37       1.0  0.9324989568895276  0.899806622631593  0.24174701343881666  1.0000
  C   C38       1.0  0.9769371987837043  0.8465993858181358  0.3392849752170213  1.0000
  F   F1        1.0  0.9707704526868473  0.7195319664783708  0.3829095928345274  1.0000
  C   C39       1.0  0.027705681940394022  0.9242231108853827  0.3917798819374338  1.0000
  C   C40       1.0  0.03431802997644895  0.05497876383366385  0.34648713914109946  1.0000
  C   C41       1.0  0.9900176505058386  0.10859777175736407  0.24902029637922518  1.0000
  H   H17       1.0  0.7924682380849476  0.6663765568176161  0.3773734722218851  1.0000
  H   H18       1.0  0.8641501152902604  0.23896060924737483  0.2902462894112481  1.0000
  H   H19       1.0  0.8654976702861515  0.24009473155234407  0.8731492372087207  1.0000
  H   H20       1.0  0.8072531499001085  0.5860091004332978  0.05559217663783955  1.0000
  H   H21       1.0  0.89333977415616  0.8382902436414635  0.20235268338795517  1.0000
  H   H22       1.0  0.0621280995980813  0.8830145987651165  0.46718223143732546  1.0000
  H   H23       1.0  0.07402241221230943  0.11474740182693921  0.3865197853760544  1.0000
  H   H24       1.0  0.9968606025622878  0.20955687630900166  0.21379467624714166  1.0000
  Zn  Zn1       1.0  0.7587568508582708  0.4209085719202094  0.5680122898710256  1.0000
  Zn  Zn2       1.0  0.9110639700086982  0.4209048826719488  0.5680079003536862  1.0000
  C   C42       1.0  0.8348753084686701  0.4157962449929153  0.8052029732132078  1.0000
  C   C43       1.0  0.8349471757238621  0.4260188482190018  0.3308173449993854  1.0000
  C   C44       1.0  0.834933551447183  0.6580987555147901  0.5629177131969572  1.0000
  C   C45       1.0  0.8348888806143044  0.18371477740782938  0.5731026737130067  1.0000
  O   O3        1.0  0.8927385218821166  0.427761295685787  0.3792020080036309  1.0000
  O   O4        1.0  0.8926815415627538  0.4140500176464356  0.7568146044813593  1.0000
  O   O5        1.0  0.8927277941289583  0.6097123596033289  0.5611675433018171  1.0000
  O   O6        1.0  0.8926922173596316  0.2320989629945886  0.5748489718135434  1.0000
  O   O7        1.0  0.7771285515323938  0.6097144916002406  0.5611712184058353  1.0000
  O   O8        1.0  0.777082299122291  0.41405370993531626  0.7568182108826746  1.0000
  O   O9        1.0  0.7771392797230806  0.42776494230442846  0.37920405299348675  1.0000
  O   O10       1.0  0.7770929751819328  0.23210260035020622  0.5748511141676971  1.0000
