data_image0
_chemical_formula_structural       NC12NC2H8C12NH10C12NCOCH13Zn2C4O8
_chemical_formula_sum              "N4 C44 H31 O9 Zn2"
_cell_length_a       17.80743265337812
_cell_length_b       10.299770795358612
_cell_length_c       10.299158637457994
_cell_angle_alpha    85.57628442395506
_cell_angle_beta     91.51607039334635
_cell_angle_gamma    89.45311437677636

_space_group_name_H-M_alt    "P 1"
_space_group_IT_number       1

loop_
  _space_group_symop_operation_xyz
  'x, y, z'

loop_
  _atom_site_type_symbol
  _atom_site_label
  _atom_site_symmetry_multiplicity
  _atom_site_fract_x
  _atom_site_fract_y
  _atom_site_fract_z
  _atom_site_occupancy
  N   N1        1.0  0.7079209669710337  0.40612783758611437  0.6012702965480281  1.0000
  C   C1        1.0  0.6571186088427595  0.4356594957995885  0.5325708032724195  1.0000
  C   C2        1.0  0.5939154586308275  0.47239473642307533  0.4471172816439273  1.0000
  C   C3        1.0  0.6056742281438926  0.5263653970297788  0.3204961633408083  1.0000
  C   C4        1.0  0.5443777388204877  0.561597996159654  0.23743867722323486  1.0000
  C   C5        1.0  0.47116834092079124  0.5431231385347133  0.2803424011747997  1.0000
  C   C6        1.0  0.4584326939276702  0.4890338596272015  0.4074316624887176  1.0000
  C   C7        1.0  0.5205865028531274  0.45380450788841276  0.49047263695364407  1.0000
  C   C8        1.0  0.3806543837721539  0.4694460048513231  0.45319570468324377  1.0000
  C   C9        1.0  0.3618510308293371  0.4966823497359758  0.5802368870804906  1.0000
  C   C10       1.0  0.28861168717641555  0.4782490812521898  0.6231811711064787  1.0000
  C   C11       1.0  0.23323253592356663  0.43232552778450106  0.5399222443203393  1.0000
  C   C12       1.0  0.15785624529014483  0.4133399887650049  0.5842674680489075  1.0000
  N   N2        1.0  0.09725904543407171  0.39807689223411913  0.6199179772731358  1.0000
  C   C13       1.0  0.2513442713425022  0.40492048540900005  0.41342403371216285  1.0000
  C   C14       1.0  0.3245308070691088  0.4233684382691256  0.3702238651958807  1.0000
  H   H1        1.0  0.6621484998192045  0.5411755034639265  0.28605879583928306  1.0000
  H   H2        1.0  0.5536002215736756  0.6036562718473208  0.13965854979958703  1.0000
  H   H3        1.0  0.4245456069539859  0.572732632616042  0.21475080888995257  1.0000
  H   H4        1.0  0.512062185379062  0.4103608800149745  0.5881283980898229  1.0000
  H   H5        1.0  0.4035224635366601  0.5338873751618982  0.6458070555721638  1.0000
  H   H6        1.0  0.2751550539655294  0.5001332655395119  0.7211875523330573  1.0000
  H   H7        1.0  0.20895610684156402  0.3689829000892123  0.34826674326586216  1.0000
  H   H8        1.0  0.3374587277946994  0.3999488327030439  0.27252090160752895  1.0000
  C   C15       1.0  0.9025255177146561  0.020735184691326625  0.6106306213792017  1.0000
  C   C16       1.0  0.8807451232310735  0.030314852180377553  0.478175699834835  1.0000
  C   C17       1.0  0.8697777390305782  0.9180313502129869  0.4110279519538615  1.0000
  C   C18       1.0  0.88088264114178  0.7950303711061378  0.47811373281840863  1.0000
  C   C19       1.0  0.9026616760110729  0.7834594401112142  0.6105691397959498  1.0000
  C   C20       1.0  0.9133615167338616  0.8968688686315286  0.6760857437829699  1.0000
  C   C21       1.0  0.8467356747154261  0.929219480774475  0.27089834853808625  1.0000
  C   C22       1.0  0.7920413987418775  0.02151255882130431  0.22309110736549198  1.0000
  C   C23       1.0  0.7703864203626858  0.031912935527521384  0.09120160658812315  1.0000
  C   C24       1.0  0.8030158483974332  0.95044742575416  0.005019556085902318  1.0000
  C   C25       1.0  0.8575300147369785  0.8583558420824702  0.05192760294890842  1.0000
  C   C26       1.0  0.8792451795549391  0.8476981845505552  0.1837900130821386  1.0000
  N   N3        1.0  0.7808336016008056  0.9612177161034413  0.8701202657266623  1.0000
  H   H9        1.0  0.9107929031517192  0.3445378129155645  0.661117689291971  1.0000
  H   H10       1.0  0.8732549178102608  0.12535707610908256  0.42646418947428444  1.0000
  H   H11       1.0  0.8715064807223154  0.70817767575697  0.42725200595110113  1.0000
  H   H12       1.0  0.9301635334250166  0.8887105647850477  0.7782688213525051  1.0000
  H   H13       1.0  0.9109931627172624  0.4515972576180863  0.6610276561482995  1.0000
  H   H14       1.0  0.7653052239819166  0.08449967906440702  0.28801445776572177  1.0000
  H   H15       1.0  0.7280374973998589  0.10325829646849981  0.0562613700039134  1.0000
  H   H16       1.0  0.9221702900258426  0.7768506768500822  0.21731828944347817  1.0000
  H   H17       1.0  0.8048375231361515  0.9009028976016048  0.8051296644543227  1.0000
  H   H18       1.0  0.7402432625857757  0.029586334942921726  0.8342410796088053  1.0000
  C   C27       1.0  0.902664007972549  0.40195788419926876  0.22923019695146962  1.0000
  C   C28       1.0  0.9044339085214411  0.5386244035065175  0.21798924391697438  1.0000
  C   C29       1.0  0.9052723350060194  0.608057295559238  0.09512945757645364  1.0000
  C   C30       1.0  0.9042901591311393  0.5389872454081446  0.9826708482851099  1.0000
  C   C31       1.0  0.9025231926540185  0.4022367566271521  0.9919696431734507  1.0000
  C   C32       1.0  0.9017242813039369  0.33456285454617296  0.11563781128838024  1.0000
  C   C33       1.0  0.9071455728974113  0.7526336841020913  0.0842114903076423  1.0000
  C   C34       1.0  0.9532675943197366  0.81951378268506  0.16898187777771412  1.0000
  C   C35       1.0  0.9550365324933209  0.9555676626676854  0.15857693074304224  1.0000
  C   C36       1.0  0.9111949523258243  0.02745953472002771  0.06232122471297852  1.0000
  C   C37       1.0  0.8641783380049806  0.9609583226241343  0.9792910373110701  1.0000
  C   C38       1.0  0.8624402477569155  0.824931714172312  0.9894364724864381  1.0000
  N   N4        1.0  0.9109330608475107  0.16751077868311448  0.05106082531854805  1.0000
  C   C39       1.0  0.9753122455113775  0.24516732147501097  0.07736884318673343  1.0000
  O   O1        1.0  0.040075529468204474  0.19441549761462307  0.08899126522645928  1.0000
  C   C40       1.0  0.9665256159487602  0.38916401578195803  0.08153774723590268  1.0000
  H   H19       1.0  0.9020067646285735  0.3493877465325758  0.5610308491060678  1.0000
  H   H20       1.0  0.9041149332128666  0.5914481918391958  0.30492011549867226  1.0000
  H   H21       1.0  0.9059283151600515  0.5919669182122889  0.8877729771611889  1.0000
  H   H22       1.0  0.9003616873766511  0.22914872202767644  0.12359344702552977  1.0000
  H   H23       1.0  0.8996442078585891  0.1441025545593979  0.8022502610542888  1.0000
  H   H24       1.0  0.9884191762256461  0.7665599124756205  0.2428626824951572  1.0000
  H   H25       1.0  0.9897116600531626  0.004190161187840774  0.22726484258127222  1.0000
  H   H26       1.0  0.8290483027079558  0.014786753695056573  0.9059804771951473  1.0000
  H   H27       1.0  0.8253039205666236  0.7763133296176462  0.9243149256974098  1.0000
  H   H28       1.0  0.8622430256501719  0.2159725635999874  0.013777817833194868  1.0000
  H   H29       1.0  0.9137045083517903  0.4119709350295033  0.1304237080345303  1.0000
  H   H30       1.0  0.9645141309787116  0.43587290288130964  0.9807184524374873  1.0000
  H   H31       1.0  0.014461404252826606  0.42894037401591856  0.13648479617145104  1.0000
  Zn  Zn1       1.0  0.8202755275875329  0.4038010441409274  0.606659101620439  1.0000
  Zn  Zn2       1.0  0.9849044784767957  0.4003930961428226  0.6145397661270344  1.0000
  C   C41       1.0  0.9025472079104964  0.39701040436778406  0.8477958667256625  1.0000
  C   C42       1.0  0.9026345961658536  0.40718533735972917  0.3734032144131567  1.0000
  C   C43       1.0  0.9026330321790744  0.639286501271878  0.6054054324801994  1.0000
  C   C44       1.0  0.9025487154295899  0.1649076813486272  0.6157937153339477  1.0000
  O   O2        1.0  0.9651005531748733  0.40764075417446705  0.424779667676247  1.0000
  O   O3        1.0  0.965030815265921  0.3939674540224818  0.8024002817090131  1.0000
  O   O4        1.0  0.9650992769948294  0.5896084841999378  0.6066682506782406  1.0000
  O   O5        1.0  0.9650320352888911  0.21199973441449216  0.6205115986422636  1.0000
  O   O6        1.0  0.8401479145956574  0.5921944070336338  0.6006872664090945  1.0000
  O   O7        1.0  0.8400794531546546  0.3965549371275627  0.7964192280684245  1.0000
  O   O8        1.0  0.8401491913937591  0.4102281914519328  0.418797052637762  1.0000
  O   O9        1.0  0.8400806734850707  0.21458716243885353  0.61452908097242  1.0000
