data_image0
_chemical_formula_structural       NC6NCNCH5C6ClH5C6NCOH7Zn2C4O8
_chemical_formula_sum              "N4 C25 H17 Cl1 O9 Zn2"
_cell_length_a       14.933214217465613
_cell_length_b       10.30297070629231
_cell_length_c       9.27373355559583
_cell_angle_alpha    86.17407986501598
_cell_angle_beta     89.97675588165802
_cell_angle_gamma    90.03245333812676

_space_group_name_H-M_alt    "P 1"
_space_group_IT_number       1

loop_
  _space_group_symop_operation_xyz
  'x, y, z'

loop_
  _atom_site_type_symbol
  _atom_site_label
  _atom_site_symmetry_multiplicity
  _atom_site_fract_x
  _atom_site_fract_y
  _atom_site_fract_z
  _atom_site_occupancy
  N   N1        1.0  0.8430132565194992  0.406249519394246  0.4094087036162064  1.0000
  C   C1        1.0  0.7655228574686995  0.40713725469671425  0.40841837139997983  1.0000
  C   C2        1.0  0.6691242433763478  0.4082440325891503  0.40718354951948355  1.0000
  C   C3        1.0  0.6213132127789404  0.3229490280405598  0.5023557150883124  1.0000
  C   C4        1.0  0.5277796368871355  0.3239135310125268  0.5012795525171383  1.0000
  C   C5        1.0  0.4811547452880852  0.41012416883047204  0.4050857603830982  1.0000
  C   C6        1.0  0.384579512097665  0.4082459542183372  0.40718147904575597  1.0000
  N   N2        1.0  0.3070941158586844  0.40667910467440227  0.40892939828104646  1.0000
  C   C7        1.0  0.5290643730975926  0.4964962179374237  0.30871195788603356  1.0000
  N   N3        1.0  0.4837386577045953  0.5861021912991708  0.2087298876547865  1.0000
  C   C8        1.0  0.6230784418495011  0.4946711931048085  0.3107484381034378  1.0000
  H   H1        1.0  0.6563213348515302  0.25569965282876317  0.5773925241698088  1.0000
  H   H2        1.0  0.4917066644841536  0.2572298667861508  0.5756850121825825  1.0000
  H   H3        1.0  0.520084319645004  0.6493905382483751  0.13811270933516284  1.0000
  H   H4        1.0  0.41399643491971294  0.5908699938422086  0.20341004576201052  1.0000
  H   H5        1.0  0.6602759557573792  0.5606839083821336  0.2370914572755949  1.0000
  C   C9        1.0  0.07505795236412571  0.025216910196621097  0.4091752803614237  1.0000
  C   C10       1.0  0.16752803290081317  0.022427770625390135  0.4368395141349218  1.0000
  C   C11       1.0  0.21340921878553498  0.9040870291296679  0.4505656678198418  1.0000
  C   C12       1.0  0.1675280321777045  0.7873198012996181  0.43683944635451577  1.0000
  C   C13       1.0  0.07505796193074148  0.7877018528156596  0.40917536285398237  1.0000
  C   C14       1.0  0.02927367154774819  0.9072444960390542  0.3954780649742098  1.0000
  Cl  Cl1       1.0  0.3289263809165031  0.9021062452570006  0.48512478759376215  1.0000
  H   H6        1.0  0.04022609248372255  0.35357064074779854  0.3987538411323035  1.0000
  H   H7        1.0  0.2043056312023919  0.11184372534672217  0.4478421284936922  1.0000
  H   H8        1.0  0.2043055957769389  0.6966425314849045  0.4478420249833579  1.0000
  H   H9        1.0  0.9579579392656875  0.9084672375621677  0.3741425319343572  1.0000
  H   H10       1.0  0.04022608814966322  0.4605426766978788  0.39875411324324017  1.0000
  C   C15       1.0  0.07500672589969298  0.4023689123516961  0.9859483434054592  1.0000
  C   C16       1.0  0.9927028167841239  0.39484112234234403  0.0599848078144245  1.0000
  C   C17       1.0  0.9112132806318481  0.3978352790416375  0.985119484102261  1.0000
  C   C18       1.0  0.912003784477341  0.4125772997008262  0.8337709333207264  1.0000
  C   C19       1.0  0.9929612022989176  0.4181665545447144  0.7585318669434457  1.0000
  C   C20       1.0  0.0751092040328272  0.41054979657019297  0.8324022703554785  1.0000
  N   N4        1.0  0.8286439683781933  0.3932053635556485  0.06521924604003382  1.0000
  C   C21       1.0  0.7479664840054219  0.33334630748337735  0.01852014397823965  1.0000
  O   O1        1.0  0.7474955969922452  0.2646401701078178  0.9111697965052242  1.0000
  H   H11       1.0  0.28602539121515  0.4927127002724121  0.08204385654773416  1.0000
  H   H12       1.0  0.991656243857765  0.38856380093897935  0.17710583586226702  1.0000
  H   H13       1.0  0.850159269393774  0.4211640477404297  0.7732201929065958  1.0000
  H   H14       1.0  0.9912180196005048  0.42617408906426424  0.6414924959144269  1.0000
  H   H15       1.0  0.2179399554493866  0.46591118600561443  0.5471485199564273  1.0000
  H   H16       1.0  0.8283232694135578  0.4277250089624278  0.16863857660196074  1.0000
  H   H17       1.0  0.6867610037253882  0.34417768499676993  0.07900419699760786  1.0000
  Zn  Zn1       1.0  0.9769369694412336  0.4063700853663526  0.40927871791446613  1.0000
  Zn  Zn2       1.0  0.17317038970719434  0.40654800237811056  0.40907121942414437  1.0000
  C   C22       1.0  0.0750878369372421  0.4038314159153351  0.6724043365689962  1.0000
  C   C23       1.0  0.07502166509122038  0.4090883132368011  0.14594573996063254  1.0000
  C   C24       1.0  0.07505267092539963  0.6435204268007797  0.4034321249753121  1.0000
  C   C25       1.0  0.07505676415155693  0.16939774322768034  0.41491802846313663  1.0000
  O   O2        1.0  0.14949623913202403  0.4114052601982776  0.19956358324290038  1.0000
  O   O3        1.0  0.14954988829577065  0.40164852042885607  0.618628591855342  1.0000
  O   O4        1.0  0.14952048759261663  0.5952004415737229  0.4014316290320048  1.0000
  O   O5        1.0  0.14952557286092116  0.21785334723555083  0.4167604380747909  1.0000
  O   O6        1.0  0.0005817193226698182  0.5950647404495382  0.4015894993270481  1.0000
  O   O7        1.0  0.0006111200124934131  0.40151437836897297  0.6187863853047932  1.0000
  O   O8        1.0  0.0005574706985125295  0.4112710561497732  0.1997196439164162  1.0000
  O   O9        1.0  0.0005868044368297911  0.21771913494553208  0.41691660680298226  1.0000
