data_image0
_chemical_formula_structural       NC6NC2H4C7NH5C6OCH7Zn2C4O8
_chemical_formula_sum              "N3 C26 H16 O9 Zn2"
_cell_length_a       14.927258858638513
_cell_length_b       9.275154477615127
_cell_length_c       9.273891588657152
_cell_angle_alpha    86.29931945807607
_cell_angle_beta     89.68012649256188
_cell_angle_gamma    89.43371000992973

_space_group_name_H-M_alt    "P 1"
_space_group_IT_number       1

loop_
  _space_group_symop_operation_xyz
  'x, y, z'

loop_
  _atom_site_type_symbol
  _atom_site_label
  _atom_site_symmetry_multiplicity
  _atom_site_fract_x
  _atom_site_fract_y
  _atom_site_fract_z
  _atom_site_occupancy
  N   N1        1.0  0.8394592629984123  0.5636007451012559  0.4162804958181557  1.0000
  C   C1        1.0  0.7619327719688755  0.5636007166924313  0.4162805062930186  1.0000
  C   C2        1.0  0.6655002638919884  0.5636008313193439  0.41628045689310006  1.0000
  C   C3        1.0  0.6190400637408309  0.5387717049787357  0.2895102330908732  1.0000
  C   C4        1.0  0.5253287527097845  0.5387717294059435  0.28951009974452413  1.0000
  C   C5        1.0  0.4776842009272478  0.5636006539705809  0.4162804748169072  1.0000
  C   C6        1.0  0.3812516258588277  0.5636007686004043  0.41628042541107724  1.0000
  N   N2        1.0  0.3037251348292909  0.5636007401915797  0.4162804358859399  1.0000
  C   C7        1.0  0.524144334086872  0.5884297803140996  0.5430506986132222  1.0000
  C   C8        1.0  0.6178556451179188  0.5884297558868923  0.5430508319595713  1.0000
  H   H1        1.0  0.655197006120864  0.5194532436417345  0.19087572337494757  1.0000
  H   H2        1.0  0.49009334941155747  0.5194534410978464  0.19087571922340443  1.0000
  H   H3        1.0  0.48798745837732077  0.6077482323104763  0.6416853163651595  1.0000
  H   H4        1.0  0.6530910474273023  0.607748142498131  0.6416853228872144  1.0000
  C   C9        1.0  0.07419471360247899  0.14019638985042437  0.41461247086976444  1.0000
  C   C10       1.0  0.05005273968208379  0.22222895701245052  0.2875213149502156  1.0000
  C   C11       1.0  0.018600380085402008  0.15510474760391646  0.16716236769319104  1.0000
  C   C12       1.0  0.010770129399705789  0.005032168464045755  0.1724770887825866  1.0000
  C   C13       1.0  0.03575259583894064  0.9217657922525382  0.2966713029068311  1.0000
  C   C14       1.0  0.06899830145171171  0.9869941155410167  0.4179609477781938  1.0000
  C   C15       1.0  0.9932719697799327  0.240705308592446  0.03853943200025701  1.0000
  N   N3        1.0  0.972914963176041  0.30951255080435797  0.9351595381717925  1.0000
  H   H5        1.0  0.09031838903537673  0.22005933722318075  0.768432301874417  1.0000
  H   H6        1.0  0.05372633899982572  0.3391497741155798  0.28324439844035043  1.0000
  H   H7        1.0  0.9861196762904498  0.9520710992132563  0.07997367870962234  1.0000
  H   H8        1.0  0.0310489230626525  0.8052970520272492  0.2965444491696174  1.0000
  H   H9        1.0  0.0836604737095048  0.6903625269748959  0.655030298545669  1.0000
  C   C16       1.0  0.07308751659750869  0.5597766485779119  0.9929962558213172  1.0000
  C   C17       1.0  0.1460771954756488  0.6206762873605565  0.061810762805671646  1.0000
  C   C18       1.0  0.21391935639862936  0.6923423872603662  0.9822843972060409  1.0000
  C   C19       1.0  0.20901378993861008  0.7034701360020341  0.8308877863706425  1.0000
  C   C20       1.0  0.13791154224916266  0.6416974691134506  0.7607276292286724  1.0000
  C   C21       1.0  0.07010547408795126  0.5674137799452308  0.8395770956561055  1.0000
  O   O1        1.0  0.2844734264193507  0.7514668023030262  0.05772479243453699  1.0000
  C   C22       1.0  0.35777802044313667  0.8273475674032599  0.990948466858921  1.0000
  H   H10       1.0  0.8605480620619916  0.4712202599879936  0.10366333543762439  1.0000
  H   H11       1.0  0.2602810528702509  0.758527704798678  0.766183357696248  1.0000
  H   H12       1.0  0.13714310427423507  0.6491284671951054  0.6436758369898921  1.0000
  H   H13       1.0  0.9284084110550751  0.5020767736503122  0.5638760985120123  1.0000
  H   H14       1.0  0.3331322030792177  0.9249175264589915  0.9269387041045141  1.0000
  H   H15       1.0  0.3955699705190767  0.7557896879175372  0.9202528406480535  1.0000
  H   H16       1.0  0.40342381485648815  0.8618110666730203  0.0759282856849981  1.0000
  Zn  Zn1       1.0  0.9734363672639446  0.5635969553326874  0.41628879224411297  1.0000
  Zn  Zn2       1.0  0.16974807226886446  0.5635928265681974  0.4162839170831476  1.0000
  C   C23       1.0  0.07070240806990816  0.5602263063822501  0.6795324951959256  1.0000
  C   C24       1.0  0.07248416351845566  0.5669652959823637  0.1530403627498091  1.0000
  C   C25       1.0  0.06999615210948784  0.8268794822968459  0.41158393259644366  1.0000
  C   C26       1.0  0.07319036285095848  0.3003103884792495  0.4209889953507101  1.0000
  O   O2        1.0  0.14678098027608477  0.5693700146415663  0.20675075208476956  1.0000
  O   O3        1.0  0.14540164120374932  0.557817362632992  0.625817986484932  1.0000
  O   O4        1.0  0.14483032101861504  0.7731431880159929  0.40944763235841997  1.0000
  O   O5        1.0  0.14735223379073764  0.35404419859919  0.4231209981752695  1.0000
  O   O6        1.0  0.9958321387505381  0.7731455833046044  0.4094517111460787  1.0000
  O   O7        1.0  0.9964034485720571  0.557821489513032  0.6258219952652594  1.0000
  O   O8        1.0  0.9977827941167989  0.5693740756433288  0.20675302763064987  1.0000
  O   O9        1.0  0.9983540473104001  0.3540482502632376  0.42312338175125025  1.0000
