data_image0
_chemical_formula_structural       NC9NC4H8C8H6C6OCH7Zn2C4O8
_chemical_formula_sum              "N2 C32 H21 O9 Zn2"
_cell_length_a       16.32274767691083
_cell_length_b       9.27514070457351
_cell_length_c       9.273891588657152
_cell_angle_alpha    86.21671130185581
_cell_angle_beta     89.15205086511824
_cell_angle_gamma    90.11802364943966

_space_group_name_H-M_alt    "P 1"
_space_group_IT_number       1

loop_
  _space_group_symop_operation_xyz
  'x, y, z'

loop_
  _atom_site_type_symbol
  _atom_site_label
  _atom_site_symmetry_multiplicity
  _atom_site_fract_x
  _atom_site_fract_y
  _atom_site_fract_z
  _atom_site_occupancy
  N   N1        1.0  0.7856769564912218  0.5531520996956776  0.40179901006774643  1.0000
  C   C1        1.0  0.7332288391012673  0.49993518864242614  0.34141449121503276  1.0000
  C   C2        1.0  0.6680353881522674  0.43383937068324224  0.2664164359726866  1.0000
  C   C3        1.0  0.6793969145246821  0.34343204318646375  0.16382767842063672  1.0000
  C   C4        1.0  0.5999379695376776  0.2993128236846241  0.11376776706869629  1.0000
  C   C5        1.0  0.5411415119546183  0.36388035982503575  0.18703761325101365  1.0000
  C   C6        1.0  0.451167919888711  0.34681577592756146  0.16767696786921538  1.0000
  C   C7        1.0  0.3957312048603249  0.4220733347620443  0.25306949914718513  1.0000
  C   C8        1.0  0.3109918327820734  0.40748911860115533  0.23652266529535534  1.0000
  C   C9        1.0  0.25514808928297955  0.48506022546998395  0.3245394680573701  1.0000
  N   N2        1.0  0.2102686352594758  0.5474146269295012  0.39529007098111846  1.0000
  C   C10       1.0  0.2806358777617308  0.3175256353277057  0.13444589038205912  1.0000
  C   C11       1.0  0.3347508841023116  0.2423677640674107  0.0491668465658166  1.0000
  C   C12       1.0  0.4193306295229234  0.2565591472767319  0.06526781136765458  1.0000
  C   C13       1.0  0.5790946896627965  0.45802689568292665  0.2938665213238112  1.0000
  H   H1        1.0  0.7382301041441767  0.3082768739883939  0.1239332421805084  1.0000
  H   H2        1.0  0.5914864635762611  0.22542302573768327  0.02992189833810199  1.0000
  H   H3        1.0  0.4179921323687297  0.4923050007955894  0.3327577487364437  1.0000
  H   H4        1.0  0.21521871489828842  0.30551126482736657  0.12081498073000385  1.0000
  H   H5        1.0  0.31109525485951295  0.17277262413153904  0.9702011128512739  1.0000
  H   H6        1.0  0.45898477319004094  0.19643769213743312  0.9970505034254441  1.0000
  H   H7        1.0  0.5617413913501436  0.4204746878841321  0.40644057188665395  1.0000
  H   H8        1.0  0.5630698171943589  0.5733407234409427  0.2695317038863405  1.0000
  C   C14       1.0  0.9954910912552015  0.12686699532264048  0.39757455577068335  1.0000
  C   C15       1.0  0.0075999733800078415  0.20895308536803814  0.2659042549734807  1.0000
  C   C16       1.0  0.026837499387704078  0.14223320224728342  0.1392907923579183  1.0000
  C   C17       1.0  0.034424490760174065  0.9922256083034449  0.14191468523775042  1.0000
  C   C18       1.0  0.021273697710453277  0.9085513396087398  0.2712386319109794  1.0000
  C   C19       1.0  0.00046222653526650526  0.9736886018552208  0.3995268877618523  1.0000
  C   C20       1.0  0.05479233934170222  0.9237030244305596  0.011254931116207567  1.0000
  C   C21       1.0  0.07184599078143952  0.8663172274503851  0.9018646746929675  1.0000
  H   H9        1.0  0.007786927954214871  0.206417398654819  0.7515571716947846  1.0000
  H   H10       1.0  0.004090839303104942  0.32578534787851954  0.26154309277640464  1.0000
  H   H11       1.0  0.03659670114926872  0.20793877035562044  0.03949529643033323  1.0000
  H   H12       1.0  0.025404256232343107  0.791886677265448  0.2709972523442108  1.0000
  H   H13       1.0  0.00559592678051102  0.6772565766286034  0.6380743550944563  1.0000
  H   H14       1.0  0.08681543817394743  0.8159428556247845  0.8058430030096182  1.0000
  C   C22       1.0  0.9992964172526998  0.5464409610966543  0.9752459926149974  1.0000
  C   C23       1.0  0.06674799820837762  0.6064356796124093  0.04293155582582964  1.0000
  C   C24       1.0  0.1296155741595193  0.677259960706271  0.9623297361853904  1.0000
  C   C25       1.0  0.12525699305002425  0.6884478036238351  0.8109825962344863  1.0000
  C   C26       1.0  0.05952152669631806  0.6275567733186687  0.7419264360330207  1.0000
  C   C27       1.0  0.9966569022274058  0.5541145815364463  0.8218553913767432  1.0000
  O   O1        1.0  0.19481929875498483  0.7355096397348564  0.036678413870506306  1.0000
  C   C28       1.0  0.2627309070481434  0.810480879543984  0.9687427408399092  1.0000
  H   H15       1.0  0.8039028203022452  0.4605153932032056  0.08904644775123916  1.0000
  H   H16       1.0  0.17277538117637592  0.742869180200353  0.7454639013645172  1.0000
  H   H17       1.0  0.05890408396605662  0.6349969141242631  0.6248725261151642  1.0000
  H   H18       1.0  0.8663184265518118  0.49053180620272085  0.54825429660022  1.0000
  H   H19       1.0  0.2413115817475662  0.9083507712470764  0.9049092460656879  1.0000
  H   H20       1.0  0.2964716406216614  0.7384593664880021  0.8976414163668283  1.0000
  H   H21       1.0  0.3048717384196482  0.844378638281504  0.05302283084586134  1.0000
  Zn  Zn1       1.0  0.9082049008341119  0.5514925945704134  0.39992898662325715  1.0000
  Zn  Zn2       1.0  0.08774059081370565  0.549062407148049  0.3971718762251364  1.0000
  C   C29       1.0  0.9971202932847922  0.5469200731357464  0.6618148905835302  1.0000
  C   C30       1.0  0.9988271691259408  0.5536367226114105  0.13528608783437046  1.0000
  C   C31       1.0  0.9995362845599143  0.81356928193609  0.3934136504541945  1.0000
  C   C32       1.0  0.9964111061788032  0.28698578300480737  0.4036874017629253  1.0000
  O   O2        1.0  0.06680250693006905  0.5551231520363102  0.18795068224487155  1.0000
  O   O3        1.0  0.06540838491036306  0.5435880961860529  0.6070572957137212  1.0000
  O   O4        1.0  0.06735840528281245  0.7589107305498872  0.39032141288733047  1.0000
  O   O5        1.0  0.06485242569177085  0.3398005278365833  0.404686457953751  1.0000
  O   O6        1.0  0.9310930046893597  0.760754474712684  0.39241440582793063  1.0000
  O   O7        1.0  0.9291429947222393  0.5454335719859142  0.6091502157883915  1.0000
  O   O8        1.0  0.9305371219047879  0.5569685618810429  0.19004186910863585  1.0000
  O   O9        1.0  0.928587040265652  0.34164592834801355  0.4067777528683152  1.0000
