data_image0
_chemical_formula_structural       NC5NC4H6C10H6C7NH4Zn2C4O8
_chemical_formula_sum              "N3 C30 H16 Zn2 O8"
_cell_length_a       13.854160002989762
_cell_length_b       9.275150299802176
_cell_length_c       9.275157849593905
_cell_angle_alpha    85.78415629139576
_cell_angle_beta     89.74088443434586
_cell_angle_gamma    89.48388968248379

_space_group_name_H-M_alt    "P 1"
_space_group_IT_number       1

loop_
  _space_group_symop_operation_xyz
  'x, y, z'

loop_
  _atom_site_type_symbol
  _atom_site_label
  _atom_site_symmetry_multiplicity
  _atom_site_fract_x
  _atom_site_fract_y
  _atom_site_fract_z
  _atom_site_occupancy
  N   N1        1.0  0.9043188420912033  0.5636614170401368  0.40150837173494214  1.0000
  C   C1        1.0  0.8320166314819492  0.5883145638136067  0.342340063534732  1.0000
  C   C2        1.0  0.7420716661129224  0.6189837407192396  0.26873242419375654  1.0000
  C   C3        1.0  0.6544565723616644  0.590179669237773  0.34059727219724234  1.0000
  C   C4        1.0  0.5669292537269499  0.6189837548311397  0.26873240094819173  1.0000
  C   C5        1.0  0.47690849072117647  0.5883144173185924  0.34234015595887773  1.0000
  N   N2        1.0  0.40454527187562617  0.5636613535173255  0.401508372008087  1.0000
  C   C6        1.0  0.5670459567283307  0.6771987236695072  0.12501823392498723  1.0000
  C   C7        1.0  0.6546157022171406  0.7081527714107303  0.05303780058120333  1.0000
  C   C8        1.0  0.6547337470282384  0.766498319906819  0.8978373415233745  1.0000
  C   C9        1.0  0.7421230460504533  0.6771987214741739  0.12501814368627273  1.0000
  H   H1        1.0  0.6543922202040195  0.5450110778324306  0.45183002884511625  1.0000
  H   H2        1.0  0.4992135884886336  0.6984578130627355  0.06926494068710998  1.0000
  H   H3        1.0  0.7192513529674531  0.8344567361168931  0.8736729397281384  1.0000
  H   H4        1.0  0.5895428750967214  0.8344567386213331  0.8736730047792665  1.0000
  H   H5        1.0  0.655499083285067  0.6752491074745574  0.8268214520272683  1.0000
  H   H6        1.0  0.8100365471574731  0.6984579247679172  0.06926485465371446  1.0000
  C   C10       1.0  0.1569760241628564  0.1399790815235722  0.40392090916388734  1.0000
  C   C11       1.0  0.20807242073421772  0.22098119804750338  0.29489646417073234  1.0000
  C   C12       1.0  0.25090804270020817  0.1537283369775549  0.18033153836692797  1.0000
  C   C13       1.0  0.2430828991315499  0.004493257406041229  0.17331540914207766  1.0000
  C   C14       1.0  0.19409578439953562  0.922041062735988  0.2816921936334904  1.0000
  C   C15       1.0  0.1518973308857969  0.9873326699110822  0.39910840035773565  1.0000
  C   C16       1.0  0.3020238515672516  0.23844858488735857  0.06881436032364041  1.0000
  C   C17       1.0  0.3448206864457928  0.30940443396120254  0.9754512390070919  1.0000
  C   C18       1.0  0.39493379491676245  0.3924987141619996  0.8661270957120077  1.0000
  C   C19       1.0  0.4377223783350266  0.4634492534416766  0.7727818714495664  1.0000
  H   H7        1.0  0.11050037629890822  0.40450665739854647  0.6327590449263198  1.0000
  H   H8        1.0  0.21270319971355933  0.3374510011450802  0.2971227044149165  1.0000
  H   H9        1.0  0.2757123664262229  0.9514943845774072  0.08466622733978335  1.0000
  H   H10       1.0  0.19116308084331016  0.8059810869414163  0.27547057806415154  1.0000
  H   H11       1.0  0.08812147380354118  0.860159176600914  0.741499629199381  1.0000
  H   H12       1.0  0.47529432369159075  0.5257498521039998  0.690817054722937  1.0000
  C   C20       1.0  0.15574190459102324  0.5595776866415781  0.9783400441462727  1.0000
  C   C21       1.0  0.2386547546919875  0.6066120226409232  0.04776895260217052  1.0000
  C   C22       1.0  0.3165482560130475  0.664991417340761  0.9675592294963057  1.0000
  C   C23       1.0  0.31243548807386695  0.6772645877983174  0.8168305770688922  1.0000
  C   C24       1.0  0.23151409857834407  0.6290619356533522  0.7460667623098649  1.0000
  C   C25       1.0  0.15313150738014938  0.567734054592339  0.8246892907263494  1.0000
  C   C26       1.0  0.400395097884135  0.7140350099173027  0.04028431866147253  1.0000
  N   N3        1.0  0.46778649353569157  0.7534528341446305  0.09874304998474859  1.0000
  H   H13       1.0  0.921182869898613  0.5109316617881532  0.08645391920899814  1.0000
  H   H14       1.0  0.37226668715927713  0.7229017841941525  0.7537485901890566  1.0000
  H   H15       1.0  0.23125510443468045  0.636647262383042  0.6289592419503691  1.0000
  H   H16       1.0  0.996252047563183  0.5289236264117319  0.5475031996063491  1.0000
  Zn  Zn1       1.0  0.04867338725147817  0.563657616246749  0.4015167244716922  1.0000
  Zn  Zn2       1.0  0.26019076214997744  0.5636534619143367  0.4015119212755278  1.0000
  C   C27       1.0  0.1536572009743753  0.5604446507210905  0.6647437794157521  1.0000
  C   C28       1.0  0.1552092468431569  0.5668682491845232  0.13828499737930433  1.0000
  C   C29       1.0  0.152870079811526  0.8271094852969334  0.3942755882892586  1.0000
  C   C30       1.0  0.1559963059823013  0.30020168193007857  0.40875327518090954  1.0000
  O   O1        1.0  0.23530026120463676  0.5693071576628448  0.19196219776019863  1.0000
  O   O2        1.0  0.23410298778495184  0.5580014967786924  0.611062524874703  1.0000
  O   O3        1.0  0.23346629079533998  0.7733367375974737  0.3926575384370919  1.0000
  O   O4        1.0  0.23593688628909648  0.35397192612518175  0.41036707609194356  1.0000
  O   O5        1.0  0.0729271909318745  0.7733391520388198  0.3926615696493265  1.0000
  O   O6        1.0  0.07356387776470585  0.5580056439015555  0.6110664694058767  1.0000
  O   O7        1.0  0.07476115689372562  0.5693112378115485  0.19196441001535416  1.0000
  O   O8        1.0  0.07539778170285238  0.35397599699568216  0.4103693964470163  1.0000
