data_image0
_chemical_formula_structural       NC8NC6H8C7H7C7OH4Zn2C4O8
_chemical_formula_sum              "N2 C32 H19 O9 Zn2"
_cell_length_a       17.457602349358154
_cell_length_b       9.274341958901593
_cell_length_c       9.274081674992354
_cell_angle_alpha    86.03521128040593
_cell_angle_beta     92.53340075860572
_cell_angle_gamma    91.07026823974832

_space_group_name_H-M_alt    "P 1"
_space_group_IT_number       1

loop_
  _space_group_symop_operation_xyz
  'x, y, z'

loop_
  _atom_site_type_symbol
  _atom_site_label
  _atom_site_symmetry_multiplicity
  _atom_site_fract_x
  _atom_site_fract_y
  _atom_site_fract_z
  _atom_site_occupancy
  N   N1        1.0  0.7178800105310861  0.599763671430495  0.4742781289346498  1.0000
  C   C1        1.0  0.6571321728004779  0.5486674385648453  0.46255500406481853  1.0000
  C   C2        1.0  0.5815592101930384  0.48511016277031443  0.4479820171157787  1.0000
  C   C3        1.0  0.5225155289713977  0.5304333258423723  0.5310363124327295  1.0000
  C   C4        1.0  0.4483649931685186  0.46923403742554476  0.517142513238932  1.0000
  C   C5        1.0  0.385700825438029  0.5170909465653719  0.6051003167514077  1.0000
  C   C6        1.0  0.3112285415230475  0.5370539768081719  0.5432054316463857  1.0000
  C   C7        1.0  0.2521856603066965  0.5821739709455052  0.6263797298095326  1.0000
  C   C8        1.0  0.1762789933776724  0.6027881233756747  0.5620259415222513  1.0000
  N   N2        1.0  0.11526298992008523  0.6193548197393819  0.5102856710552278  1.0000
  C   C9        1.0  0.2671195921023788  0.6076058597205634  0.772012845750209  1.0000
  C   C10       1.0  0.3408033490321782  0.5880785147624814  0.8343373205294902  1.0000
  C   C11       1.0  0.3998318955230215  0.5431629021545805  0.7516706702420992  1.0000
  C   C12       1.0  0.4345560570982286  0.36194545721493077  0.418605339057424  1.0000
  C   C13       1.0  0.4935848592738526  0.31693562185036334  0.33599453112551214  1.0000
  C   C14       1.0  0.5669480138816436  0.37826504361268  0.35049839243626346  1.0000
  H   H1        1.0  0.5341491766599998  0.6145740722563635  0.6048755792875375  1.0000
  H   H2        1.0  0.29933120813662667  0.5194378734144467  0.43002204306337755  1.0000
  H   H3        1.0  0.2218582791041884  0.6424695632987121  0.8372569145699249  1.0000
  H   H4        1.0  0.3521783055425746  0.6074205215623535  0.9471046719724838  1.0000
  H   H5        1.0  0.45625423295670725  0.5269660037900948  0.8028463371307087  1.0000
  H   H6        1.0  0.3783978539377874  0.3115036073046582  0.40684142700959375  1.0000
  H   H7        1.0  0.48246202148352574  0.23402285821977542  0.260824312992212  1.0000
  H   H8        1.0  0.6122131647992708  0.342440655110955  0.2858224960101492  1.0000
  C   C15       1.0  0.9190121573699225  0.1861060344967897  0.4927499830369843  1.0000
  C   C16       1.0  0.928486345507015  0.26873902319584614  0.361633211331968  1.0000
  C   C17       1.0  0.9303276720293489  0.20270912881045144  0.23122398208189682  1.0000
  C   C18       1.0  0.921897519027873  0.05264769725623242  0.22871936706401308  1.0000
  C   C19       1.0  0.9148152285872315  0.9685152247444885  0.35898633301690874  1.0000
  C   C20       1.0  0.9141381778641929  0.033001781694054204  0.49182698651039425  1.0000
  C   C21       1.0  0.9255733526259421  0.9815839547848959  0.08873196260216872  1.0000
  H   H9        1.0  0.8541716873071589  0.26405031315181077  0.8208189170730309  1.0000
  H   H10       1.0  0.9375208933123378  0.2690460969557469  0.1318072400914303  1.0000
  H   H11       1.0  0.9115791424382313  0.8518353075580672  0.3568529571163426  1.0000
  H   H12       1.0  0.8735277113638291  0.7354312239823955  0.714864720443833  1.0000
  H   H13       1.0  0.9859466318887703  0.9548024798583722  0.07059183481554965  1.0000
  H   H14       1.0  0.9034931406615678  0.054509117030460366  0.9967809390184826  1.0000
  H   H15       1.0  0.8901793939153815  0.8807185097079018  0.09129027782016894  1.0000
  C   C22       1.0  0.9178909907239641  0.6058376418590751  0.06914011685268773  1.0000
  C   C23       1.0  0.9798039523394728  0.6716649279343521  0.1432405585483325  1.0000
  C   C24       1.0  0.037313423843714714  0.7479161567039412  0.06792691665113981  1.0000
  C   C25       1.0  0.032892129767498904  0.7587303912301385  0.9163973249348465  1.0000
  C   C26       1.0  0.9725906871799604  0.6921601196915173  0.84124054575944  1.0000
  C   C27       1.0  0.9152593671027837  0.6132701798813915  0.9154367779224613  1.0000
  C   C28       1.0  0.10099776869601063  0.8167021321763676  0.14910508483664553  1.0000
  O   O1        1.0  0.15338087553415192  0.8864866348167012  0.08447369176541453  1.0000
  H   H16       1.0  0.7367531120006147  0.5032089576708598  0.1641489448359629  1.0000
  H   H17       1.0  0.07646958739691455  0.8175292243168144  0.8557058963725375  1.0000
  H   H18       1.0  0.7945501848264511  0.5383083117322802  0.629453979793833  1.0000
  H   H19       1.0  0.1032859239176247  0.8076450610959709  0.2662248184523879  1.0000
  Zn  Zn1       1.0  0.8325561508537717  0.6054134596868566  0.48467745193462236  1.0000
  Zn  Zn2       1.0  0.0005868667041011279  0.613693312273007  0.4998981582749186  1.0000
  C   C29       1.0  0.9157881455819677  0.6061205957989633  0.7554747275942422  1.0000
  C   C30       1.0  0.9173566959552478  0.612988087261925  0.22910118827249248  1.0000
  C   C31       1.0  0.9150733871534776  0.8728698475216051  0.48625895046439416  1.0000
  C   C32       1.0  0.9180714067783099  0.3462371009048386  0.4983170389206131  1.0000
  O   O2        1.0  0.9809441989208453  0.6185237120022116  0.28856177069267575  1.0000
  O   O3        1.0  0.9797320755311165  0.6068680961098132  0.7075658954874704  1.0000
  O   O4        1.0  0.979154034794911  0.8222714611816098  0.4901721712078927  1.0000
  O   O5        1.0  0.9815221825961493  0.4031203534715976  0.5059553817250312  1.0000
  O   O6        1.0  0.8516207776211012  0.8159864156642617  0.47862022328284815  1.0000
  O   O7        1.0  0.8521988086221125  0.6005847824029047  0.6960138688424921  1.0000
  O   O8        1.0  0.8534109377392388  0.6122403328326285  0.27700801165301925  1.0000
  O   O9        1.0  0.8539889211348225  0.3968369649368282  0.4944017307309361  1.0000
