data_image0
_chemical_formula_structural       NC6NC3H6C10H5C6BrH3Zn2C4O8
_chemical_formula_sum              "N2 C29 H14 Br1 Zn2 O8"
_cell_length_a       14.934028789175542
_cell_length_b       9.275150299802176
_cell_length_c       9.275428193871798
_cell_angle_alpha    85.84136921910526
_cell_angle_beta     89.91643143648338
_cell_angle_gamma    89.44625895822752

_space_group_name_H-M_alt    "P 1"
_space_group_IT_number       1

loop_
  _space_group_symop_operation_xyz
  'x, y, z'

loop_
  _atom_site_type_symbol
  _atom_site_label
  _atom_site_symmetry_multiplicity
  _atom_site_fract_x
  _atom_site_fract_y
  _atom_site_fract_z
  _atom_site_occupancy
  N   N1        1.0  0.8354758681280996  0.5612640249908954  0.40116987788811004  1.0000
  C   C1        1.0  0.7579964130667914  0.5601581808793141  0.400497546455695  1.0000
  C   C2        1.0  0.6616080958392209  0.5587774283564075  0.3996582674901641  1.0000
  C   C3        1.0  0.6132054399413512  0.6663102227221225  0.4649149133353608  1.0000
  C   C4        1.0  0.5197003140583842  0.6652015853226334  0.46424200405035854  1.0000
  C   C5        1.0  0.47368496823042944  0.5566150326428723  0.39834595163966235  1.0000
  C   C6        1.0  0.37702533144021055  0.5589448805039945  0.39976111198244507  1.0000
  N   N2        1.0  0.29953420488417226  0.5607939120016683  0.40088454834221743  1.0000
  C   C7        1.0  0.5220909093380339  0.4475945397046663  0.3321859396919413  1.0000
  C   C8        1.0  0.4744773957085062  0.3295383984710478  0.26054446344461635  1.0000
  C   C9        1.0  0.6162203695450432  0.4498344340148101  0.3335452792866289  1.0000
  H   H1        1.0  0.6477453814354713  0.7510360962174121  0.5163316862211531  1.0000
  H   H2        1.0  0.4831641945611275  0.7492749452196696  0.5152626535953042  1.0000
  H   H3        1.0  0.4315152133753349  0.3776909873792016  0.17169629972827646  1.0000
  H   H4        1.0  0.43202821407175496  0.2675139741386683  0.3409810791322243  1.0000
  H   H5        1.0  0.5223914089166353  0.2530716579039889  0.21413394567879007  1.0000
  H   H6        1.0  0.6542428912934769  0.36687950344678266  0.28320364166634016  1.0000
  C   C10       1.0  0.06987029929248467  0.1373466036352202  0.4034380046482384  1.0000
  C   C11       1.0  0.11703642515121593  0.21819515120860242  0.29439651010266  1.0000
  C   C12       1.0  0.15652707388002363  0.1507911197213725  0.179819862556863  1.0000
  C   C13       1.0  0.14925253824687182  0.0015566006489087247  0.17280897640345683  1.0000
  C   C14       1.0  0.10404178507167816  0.919255365797647  0.2812016789737062  1.0000
  C   C15       1.0  0.0651484029003968  0.9847003051565675  0.3986289274480048  1.0000
  C   C16       1.0  0.2037058164855592  0.23535536705993734  0.0682859005710903  1.0000
  C   C17       1.0  0.2432063437059565  0.30618060902749544  0.9749087263134272  1.0000
  C   C18       1.0  0.2894596282514263  0.3891219541144402  0.8655681277049031  1.0000
  C   C19       1.0  0.32895253933276414  0.45994191136903323  0.7722088532223581  1.0000
  H   H7        1.0  0.12133719866659363  0.33466275813986446  0.2966198613464379  1.0000
  H   H8        1.0  0.17933102958779115  0.9484412388492781  0.08415101899116229  1.0000
  H   H9        1.0  0.1013076680734408  0.8031921223045563  0.27498242711248544  1.0000
  H   H10       1.0  0.0067243748262148986  0.8579182334150524  0.7410185366615678  1.0000
  H   H11       1.0  0.363630609641443  0.5221278481950515  0.6902316992220343  1.0000
  C   C20       1.0  0.06780484644770007  0.5565343355983325  0.9779050817193027  1.0000
  C   C21       1.0  0.15027559719866668  0.5591367921984399  0.05088443916311002  1.0000
  C   C22       1.0  0.2305333875869583  0.5749078322377774  0.9742083268248436  1.0000
  C   C23       1.0  0.2295842466129373  0.5884955556878291  0.8235745099120049  1.0000
  C   C24       1.0  0.14868993883159387  0.5838100433223026  0.7490988567535246  1.0000
  C   C25       1.0  0.06721390737233524  0.5655126128134127  0.8241618510946158  1.0000
  Br  Br1       1.0  0.3415263989401882  0.5803110895595232  0.07567268305473895  1.0000
  H   H12       1.0  0.8519878473565966  0.6282440019710118  0.0761971569096198  1.0000
  H   H13       1.0  0.2916831852743147  0.6013258150658991  0.7638832366040722  1.0000
  H   H14       1.0  0.9216452435208964  0.6076902995219959  0.5402765756930488  1.0000
  Zn  Zn1       1.0  0.9693931091557311  0.5611245825345428  0.401095874308125  1.0000
  Zn  Zn2       1.0  0.1656170515536072  0.5609216609915657  0.40097039933928547  1.0000
  C   C26       1.0  0.0673556182752248  0.5580678113189017  0.6642338178720137  1.0000
  C   C27       1.0  0.06765667495039485  0.5639802519187924  0.13783258549742272  1.0000
  C   C28       1.0  0.06604036504048305  0.8244715274881598  0.3937960968442431  1.0000
  C   C29       1.0  0.06897187083344075  0.297574803213132  0.4082703932260692  1.0000
  O   O1        1.0  0.14207294582793084  0.566395867422657  0.19145813534751088  1.0000
  O   O2        1.0  0.14186878571959746  0.5554970902343332  0.6105126268193719  1.0000
  O   O3        1.0  0.1408056972158258  0.7706214771094047  0.3921322458254741  1.0000
  O   O4        1.0  0.14313596739169476  0.35127148979160916  0.4098384082885649  1.0000
  O   O5        1.0  0.9918741263560381  0.7707747538052367  0.3922278653940763  1.0000
  O   O6        1.0  0.9929372052499014  0.555652099537306  0.6106081597223287  1.0000
  O   O7        1.0  0.9931413669077184  0.5665508080689741  0.19155193616346944  1.0000
  O   O8        1.0  0.9942043884498861  0.3514264212646403  0.4099323171925986  1.0000
