data_image0
_chemical_formula_structural       NC5NC4H6C12H9C12H10Zn2C4O8
_chemical_formula_sum              "N2 C37 H25 Zn2 O8"
_cell_length_a       13.854160002989762
_cell_length_b       14.994057918209652
_cell_length_c       14.389300134226545
_cell_angle_alpha    83.13641900786516
_cell_angle_beta     90.22201772561286
_cell_angle_gamma    89.99018036314698

_space_group_name_H-M_alt    "P 1"
_space_group_IT_number       1

loop_
  _space_group_symop_operation_xyz
  'x, y, z'

loop_
  _atom_site_type_symbol
  _atom_site_label
  _atom_site_symmetry_multiplicity
  _atom_site_fract_x
  _atom_site_fract_y
  _atom_site_fract_z
  _atom_site_occupancy
  N   N1        1.0  0.9045761451722816  0.01827450740869763  0.9703872246991176  1.0000
  C   C1        1.0  0.8320864023209976  0.03542817098121364  0.9321527129840097  1.0000
  C   C2        1.0  0.7419081380009757  0.056767811131587  0.8845875164115898  1.0000
  C   C3        1.0  0.6545275743705383  0.036637446342123674  0.9310307494154555  1.0000
  C   C4        1.0  0.5667657255675789  0.05676782060684154  0.8845875014067519  1.0000
  C   C5        1.0  0.4769782612127201  0.03542807743746581  0.9321527723076724  1.0000
  N   N2        1.0  0.40480257458150376  0.018274468134655122  0.9703872246403078  1.0000
  C   C6        1.0  0.566417054884268  0.09740314343831022  0.7917133462113001  1.0000
  C   C7        1.0  0.6537643693640693  0.1188662085908101  0.7452032220804946  1.0000
  C   C8        1.0  0.6533530252736192  0.15995397898071073  0.6448893582149716  1.0000
  C   C9        1.0  0.7414941436843691  0.09740314500172388  0.7917132877514368  1.0000
  H   H1        1.0  0.6548227565078292  0.005117650400237927  0.0029136354747166795  1.0000
  H   H2        1.0  0.4983962876777849  0.11234832581801107  0.7556782992142956  1.0000
  H   H3        1.0  0.7181373772236382  0.20274298773074229  0.6294891768205693  1.0000
  H   H4        1.0  0.5884288997346877  0.20274298717354602  0.629489218966435  1.0000
  H   H5        1.0  0.6531766078064323  0.10584862103444266  0.5985505059759264  1.0000
  H   H6        1.0  0.8092192465238454  0.11234839765037853  0.7556782439011034  1.0000
  C   C10       1.0  0.15473415941842705  0.7563066866282567  0.9703776126142882  1.0000
  C   C11       1.0  0.21076341057551584  0.7012186967581305  0.035632593833526134  1.0000
  C   C12       1.0  0.21071527515983282  0.6079934759946314  0.03567122643967746  1.0000
  C   C13       1.0  0.15471967202286585  0.5678037294365884  0.9704273092254039  1.0000
  C   C14       1.0  0.0987449118183521  0.6229908227089737  0.9051749896418624  1.0000
  C   C15       1.0  0.09872972497913435  0.7162140600695651  0.9051857804906975  1.0000
  C   C16       1.0  0.15469710906307818  0.46872891650604  0.9704349739671652  1.0000
  C   C17       1.0  0.15584091883199466  0.43074833233282767  0.885731623631939  1.0000
  C   C18       1.0  0.15585997117358108  0.3375239740769062  0.8857308448990824  1.0000
  C   C19       1.0  0.15465386444366236  0.28023507985995333  0.9704049275002784  1.0000
  C   C20       1.0  0.153469211731132  0.3181122579670197  0.05514328248289849  1.0000
  C   C21       1.0  0.15353165259756074  0.41133298404564755  0.055144277091549024  1.0000
  H   H7        1.0  0.25491463188138264  0.7301291859001374  0.0866071314016376  1.0000
  H   H8        1.0  0.25557121012829476  0.567409818774861  0.08602609142031953  1.0000
  H   H9        1.0  0.05387403537039925  0.5939754789133872  0.8548284769852252  1.0000
  H   H10       1.0  0.054586723934530124  0.7568047181075503  0.8541968173562194  1.0000
  H   H11       1.0  0.15803328745912548  0.4731565446320085  0.8193583721759291  1.0000
  H   H12       1.0  0.15706809415677814  0.310406724129091  0.8192981135094954  1.0000
  H   H13       1.0  0.15573647412352587  0.07727006068052711  0.8847161749632024  1.0000
  H   H14       1.0  0.15224542340441394  0.27573076139007835  0.12156971662116628  1.0000
  H   H15       1.0  0.1513561980715634  0.4385229878546829  0.12151512520492118  1.0000
  C   C22       1.0  0.15358806165697111  0.02944530383391618  0.6962667160038963  1.0000
  C   C23       1.0  0.20612831066169393  0.08229127170628228  0.6267263293592402  1.0000
  C   C24       1.0  0.20825440303376586  0.06024088023610807  0.5350805102539573  1.0000
  C   C25       1.0  0.1579554989600175  0.9848508471309554  0.5109688572887063  1.0000
  C   C26       1.0  0.10549205409471019  0.9320178951758021  0.5806016895230641  1.0000
  C   C27       1.0  0.10329993325356623  0.954108340385021  0.6722351472930919  1.0000
  C   C28       1.0  0.1602433148696789  0.9613788025388837  0.413586007158089  1.0000
  C   C29       1.0  0.15360076796714914  0.02889010286196967  0.33694989218012483  1.0000
  C   C30       1.0  0.15579991183046227  0.00709645497793065  0.24451584749408428  1.0000
  C   C31       1.0  0.16476692360837752  0.9166422485009061  0.22940258002398234  1.0000
  C   C32       1.0  0.17134328104088173  0.849354185439325  0.3050843104365939  1.0000
  C   C33       1.0  0.16908345951594117  0.8713552855198977  0.3966062589977729  1.0000
  H   H16       1.0  0.09671030249963715  0.014954492309542825  0.9284697304994909  1.0000
  H   H17       1.0  0.24587445787633277  0.14063521336611304  0.6431229147266135  1.0000
  H   H18       1.0  0.2503728687826172  0.10156149161337667  0.48330595000871984  1.0000
  H   H19       1.0  0.06502815202748467  0.8741850219216862  0.5639368822427433  1.0000
  H   H20       1.0  0.061956593496143894  0.9122036648723247  0.7241628091530683  1.0000
  H   H21       1.0  0.14539020584206108  0.09831279602008912  0.34939609020610973  1.0000
  H   H22       1.0  0.1455703303461775  0.10409204013781403  0.01733638539319116  1.0000
  H   H23       1.0  0.16671957571128207  0.8977622517956185  0.1591183364595386  1.0000
  H   H24       1.0  0.17849114054269624  0.7798506303920341  0.29274660076874714  1.0000
  H   H25       1.0  0.17554568425791306  0.8180662300298926  0.4541082174988105  1.0000
  Zn  Zn1       1.0  0.04893071490530932  0.018271887712490727  0.9703926210411646  1.0000
  Zn  Zn2       1.0  0.2604480380723442  0.018269475251574168  0.9703894943756713  1.0000
  C   C34       1.0  0.15538023352761443  0.007767006640755785  0.14088482138916247  1.0000
  C   C35       1.0  0.15400082940971016  0.02877547815275266  0.7998973856739644  1.0000
  C   C36       1.0  0.15464904390793355  0.18135310417328387  0.9666799010393423  1.0000
  C   C37       1.0  0.15473194721841366  0.8551883067986855  0.9741023557370709  1.0000
  O   O1        1.0  0.23440908044496034  0.02854587114203561  0.8346755983369021  1.0000
  O   O2        1.0  0.23550873561749047  0.007994120618389998  0.10610396690719238  1.0000
  O   O3        1.0  0.23491721259418474  0.14816705011683196  0.9654322612603617  1.0000
  O   O4        1.0  0.2350005310083753  0.8883729508791568  0.9753472339930942  1.0000
  O   O5        1.0  0.07437814978877651  0.14816841208690332  0.9654348814198987  1.0000
  O   O6        1.0  0.07496967244255881  0.007996556411995252  0.1061065373495999  1.0000
  O   O7        1.0  0.07387001281106452  0.028548321598984298  0.8346770464568747  1.0000
  O   O8        1.0  0.07446146365386896  0.888375392102537  0.9753487520998629  1.0000
