data_image0
_chemical_formula_structural       NC9NC4H8C7NC2NH8C6NO2H3Zn2C4O8
_chemical_formula_sum              "N5 C32 H19 O10 Zn2"
_cell_length_a       16.32274767691083
_cell_length_b       9.273995741505848
_cell_length_c       9.273395971720356
_cell_angle_alpha    85.10796789348095
_cell_angle_beta     89.35243876569035
_cell_angle_gamma    90.10890436374608

_space_group_name_H-M_alt    "P 1"
_space_group_IT_number       1

loop_
  _space_group_symop_operation_xyz
  'x, y, z'

loop_
  _atom_site_type_symbol
  _atom_site_label
  _atom_site_symmetry_multiplicity
  _atom_site_fract_x
  _atom_site_fract_y
  _atom_site_fract_z
  _atom_site_occupancy
  N   N1        1.0  0.7824082598778145  0.5845184925684899  0.3995950417134808  1.0000
  C   C1        1.0  0.7298468407381332  0.5324739404193843  0.33911520224687236  1.0000
  C   C2        1.0  0.6645126681090141  0.467834201594453  0.2639987580410905  1.0000
  C   C3        1.0  0.6756817029440763  0.3794186242116082  0.1612480583852449  1.0000
  C   C4        1.0  0.5961288287844971  0.3362713123171819  0.11110912428681341  1.0000
  C   C5        1.0  0.5374698506525988  0.39941632172164576  0.18449463078908268  1.0000
  C   C6        1.0  0.4474599316632712  0.3827276224287768  0.1651034232387676  1.0000
  C   C7        1.0  0.3921834417636238  0.4563272946241655  0.2506307519056816  1.0000
  C   C8        1.0  0.3074130223721356  0.4420643332844186  0.23405779771661317  1.0000
  C   C9        1.0  0.2517344279505901  0.5179266036554895  0.32221354052233675  1.0000
  N   N2        1.0  0.2069877257822139  0.5789073900208437  0.39307582775011335  1.0000
  C   C10       1.0  0.27686553713816076  0.35408265919789983  0.13181988810191433  1.0000
  C   C11       1.0  0.3308205313207914  0.28058047119241136  0.04640622600812348  1.0000
  C   C12       1.0  0.4154304874435483  0.29445925609271284  0.06253260732797394  1.0000
  C   C13       1.0  0.5756234756372278  0.49148878567080856  0.29149217455388055  1.0000
  H   H1        1.0  0.734440036780305  0.3450380016146968  0.12129064677681221  1.0000
  H   H2        1.0  0.5875199993284811  0.2640093732572444  0.027130900172204434  1.0000
  H   H3        1.0  0.4145938911240048  0.5250118221782467  0.33044479446967445  1.0000
  H   H4        1.0  0.2114227982163671  0.34233293117022057  0.1181674610795742  1.0000
  H   H5        1.0  0.3070167359305375  0.21251844214249083  0.9673158398293359  1.0000
  H   H6        1.0  0.4549566325403559  0.23566223243954826  0.9942076140789298  1.0000
  H   H7        1.0  0.55849386924767  0.4517353799859236  0.40422920433842147  1.0000
  H   H8        1.0  0.5595404781803642  0.6072906557272539  0.2671336684643919  1.0000
  C   C14       1.0  0.9922529814854992  0.1582672526098519  0.39531842046603005  1.0000
  C   C15       1.0  0.006790275027957372  0.2426738247663587  0.2645442611118882  1.0000
  C   C16       1.0  0.028652001588720163  0.17857643316533345  0.1390722602420611  1.0000
  C   C17       1.0  0.03688644875051915  0.02800233022232534  0.14078600542967057  1.0000
  C   C18       1.0  0.020630224366175117  0.9423533587709216  0.2703906886900027  1.0000
  C   C19       1.0  0.9971507769988277  0.005147204466670507  0.39736476340766885  1.0000
  C   C20       1.0  0.06105648867988699  0.9620855551044368  0.0062663808891843  1.0000
  N   N3        1.0  0.06419447319283411  0.037697606688478234  0.8750430086997322  1.0000
  C   C21       1.0  0.08887463239651681  0.940431474933365  0.783872477694588  1.0000
  C   C22       1.0  0.10047472334365423  0.8085639355160218  0.8603302364066479  1.0000
  N   N4        1.0  0.08301514540464011  0.8223368586122619  0.00017576208878899866  1.0000
  H   H9        1.0  0.9255712055944297  0.4215819521996732  0.6041052878292941  1.0000
  H   H10       1.0  0.0032309805977217532  0.35961333276519336  0.2599429282094825  1.0000
  H   H11       1.0  0.04032951663071116  0.2476454769196148  0.040827546489524476  1.0000
  H   H12       1.0  0.023402033284408257  0.8257337466932767  0.2723486795601011  1.0000
  H   H13       1.0  0.9979416123185578  0.7046006375780539  0.6374161375831224  1.0000
  H   H14       1.0  0.09807350423723471  0.9645326879529466  0.6686364677872105  1.0000
  H   H15       1.0  0.12064597108018194  0.7096324782998877  0.8172260387631707  1.0000
  H   H16       1.0  0.08736885435029107  0.7408579427408719  0.08449184130587839  1.0000
  C   C23       1.0  0.9951937123964233  0.5861309079030095  0.9724084383943395  1.0000
  C   C24       1.0  0.922364920497052  0.620008560760972  0.04419583821657125  1.0000
  C   C25       1.0  0.849227957247417  0.6402545907907969  0.9689376902297174  1.0000
  C   C26       1.0  0.8468439816866841  0.6270376413115348  0.8196464701538603  1.0000
  C   C27       1.0  0.9196432830130318  0.5956313604851574  0.7464280349160854  1.0000
  C   C28       1.0  0.9942100229769415  0.5772835973637933  0.8202747967877433  1.0000
  N   N5        1.0  0.7710046944833784  0.6468388032497827  0.742720526663363  1.0000
  O   O1        1.0  0.699987512794497  0.6787690839060925  0.8146631858805747  1.0000
  O   O2        1.0  0.7683268782314332  0.6349898438037844  0.6097363312529236  1.0000
  H   H17       1.0  0.1735272898640059  0.42221952536506785  0.08568748237710477  1.0000
  H   H18       1.0  0.7942303334228058  0.664893651099858  0.028225032657637213  1.0000
  H   H19       1.0  0.11583412224385392  0.47112470756030134  0.5466961503525307  1.0000
  Zn  Zn1       1.0  0.904932696468999  0.5828952924411415  0.3977220650908119  1.0000
  Zn  Zn2       1.0  0.0844632132097809  0.5805186339797785  0.39496060239014286  1.0000
  C   C29       1.0  0.9943609277641574  0.5732114626864566  0.6599960285722319  1.0000
  C   C30       1.0  0.9950369527401565  0.5902042557122198  0.13268675484286452  1.0000
  C   C31       1.0  0.9962274455737976  0.845128993531462  0.3912252808229386  1.0000
  C   C32       1.0  0.9931703635606504  0.3182849924235065  0.40145757631450985  1.0000
  O   O3        1.0  0.0631152018573784  0.5906630881018609  0.18542964609909052  1.0000
  O   O4        1.0  0.0625421809907265  0.5709477180373752  0.6051568328228694  1.0000
  O   O5        1.0  0.0640484975487674  0.7905245595560721  0.3881225701678557  1.0000
  O   O6        1.0  0.0616088242229691  0.371086258838862  0.40246380147876026  1.0000
  O   O7        1.0  0.9277870241908746  0.7923276683947442  0.39021886693695684  1.0000
  O   O8        1.0  0.9262807177377628  0.5727525601324417  0.6072530568043808  1.0000
  O   O9        1.0  0.9268537403819611  0.5924678980584485  0.18752413429108516  1.0000
  O   O10       1.0  0.9253473625589835  0.37289105735243777  0.40455839788086134  1.0000
