data_image0
_chemical_formula_structural       NC10NC3NCH9C13OH12C15H11Zn2C4O8
_chemical_formula_sum              "N3 C46 H32 O9 Zn2"
_cell_length_a       19.437513618241372
_cell_length_b       10.29915010939255
_cell_length_c       10.299157797200024
_cell_angle_alpha    85.5240492146119
_cell_angle_beta     90.36969697792763
_cell_angle_gamma    89.50394211810362

_space_group_name_H-M_alt    "P 1"
_space_group_IT_number       1

loop_
  _space_group_symop_operation_xyz
  'x, y, z'

loop_
  _atom_site_type_symbol
  _atom_site_label
  _atom_site_symmetry_multiplicity
  _atom_site_fract_x
  _atom_site_fract_y
  _atom_site_fract_z
  _atom_site_occupancy
  N   N1        1.0  0.6473068146567117  0.41100770559472255  0.5751483757563391  1.0000
  C   C1        1.0  0.5883698602867106  0.4280200625890649  0.5721674821145595  1.0000
  C   C2        1.0  0.5149248731408556  0.4492754365498654  0.5684673733751917  1.0000
  C   C3        1.0  0.4731766535203705  0.34808193978681995  0.5568352471614508  1.0000
  C   C4        1.0  0.397283185386363  0.3581499922161605  0.5496106618085275  1.0000
  C   C5        1.0  0.35771172256530576  0.43898151063583074  0.6153350812647526  1.0000
  C   C6        1.0  0.2815288311069059  0.4303755744238247  0.6068928126186497  1.0000
  C   C7        1.0  0.24841467115488103  0.3090201603152751  0.6115699519014308  1.0000
  C   C8        1.0  0.1766792577884767  0.30265045247484434  0.6044031923663946  1.0000
  C   C9        1.0  0.1370875495874939  0.41716330999561685  0.5929216788004894  1.0000
  C   C10       1.0  0.0632376774966168  0.4104554563360818  0.5855869103962419  1.0000
  N   N2        1.0  0.0038674783813134024  0.40506293194102005  0.5796902148714342  1.0000
  C   C11       1.0  0.16948535509657964  0.5382078641830932  0.5889899489391097  1.0000
  C   C12       1.0  0.2412051462726143  0.5448315601484948  0.596218663825316  1.0000
  C   C13       1.0  0.386403035080265  0.5312410596840025  0.7052353246659269  1.0000
  N   N3        1.0  0.4433724341510114  0.5944656568556148  0.6848123937464239  1.0000
  C   C14       1.0  0.4871854766219613  0.5852447562112721  0.5717001672934403  1.0000
  H   H1        1.0  0.4955731948595857  0.2530230403844542  0.5447394800044638  1.0000
  H   H2        1.0  0.3725653891619451  0.28865375363262896  0.4913079728293974  1.0000
  H   H3        1.0  0.2778826707252046  0.21909766260352453  0.6226162942569884  1.0000
  H   H4        1.0  0.1521022254413507  0.2084158102625173  0.6083165934390549  1.0000
  H   H5        1.0  0.1393327787316429  0.6274745658727567  0.5802560825006686  1.0000
  H   H6        1.0  0.2653005848446869  0.6394790381253748  0.5922896881528428  1.0000
  H   H7        1.0  0.3564182766254921  0.5515975036167249  0.7896017391206258  1.0000
  H   H8        1.0  0.5299279876462009  0.6555603039501454  0.5774445476872969  1.0000
  H   H9        1.0  0.45749031014335206  0.6133885282955076  0.48104105955125426  1.0000
  C   C15       1.0  0.8256553191095922  0.026634468975641035  0.577564316484827  1.0000
  C   C16       1.0  0.8244166268778068  0.014811195829926618  0.7143670624393842  1.0000
  C   C17       1.0  0.8237286642661342  0.8916830210277924  0.7834644857051543  1.0000
  C   C18       1.0  0.8242839017563656  0.7795581695329441  0.714001956092974  1.0000
  C   C19       1.0  0.8255255724442643  0.7894259617329676  0.577285651972099  1.0000
  C   C20       1.0  0.8262059171476629  0.9134243838500156  0.50986581576579  1.0000
  C   C21       1.0  0.8224122507527721  0.8801572155224521  0.928096075462788  1.0000
  C   C22       1.0  0.7801207407902105  0.787962327012408  0.995582652391639  1.0000
  C   C23       1.0  0.7788592030634937  0.7771983448885673  0.13168054345842406  1.0000
  C   C24       1.0  0.8203176269922693  0.8574627549453525  0.2027579531879912  1.0000
  C   C25       1.0  0.8619510399633887  0.9506220636195298  0.1359056016277822  1.0000
  C   C26       1.0  0.8632285481609266  0.9615615765880438  0.999807625263273  1.0000
  C   C27       1.0  0.817515346973128  0.8482745827836724  0.3488168526210728  1.0000
  O   O1        1.0  0.7661009887629878  0.9322955172400198  0.3884048855837393  1.0000
  H   H10       1.0  0.8275464249240142  0.25625173947713353  0.319337029068904  1.0000
  H   H11       1.0  0.8230302058480852  0.10159096078206886  0.7673610000230184  1.0000
  H   H12       1.0  0.8246874932388878  0.684412166522661  0.7668436222420268  1.0000
  H   H13       1.0  0.8271617080870991  0.9217519482681961  0.40441241472286804  1.0000
  H   H14       1.0  0.825956854847623  0.4657467647715561  0.5246991766342146  1.0000
  H   H15       1.0  0.7472070007682277  0.7255190647952274  0.9430517340363295  1.0000
  H   H16       1.0  0.7454016142576777  0.7064104881889446  0.18163279232524113  1.0000
  H   H17       1.0  0.8935976338470515  0.014639184819351222  0.1891666273341679  1.0000
  H   H18       1.0  0.8967093575247297  0.03279422193922142  0.9506623614052284  1.0000
  H   H19       1.0  0.8681314741769275  0.8752470489445726  0.38963389612790844  1.0000
  H   H20       1.0  0.8063424339929429  0.7464275091789994  0.3864892684611765  1.0000
  H   H21       1.0  0.7663760243659709  0.9225828720815578  0.4850405754862626  1.0000
  C   C28       1.0  0.8255106579791495  0.40813782847760605  0.19603189088173936  1.0000
  C   C29       1.0  0.7538523989336441  0.3913517548647902  0.19530079810615897  1.0000
  C   C30       1.0  0.7176668793803513  0.382729270878113  0.07778970689175191  1.0000
  C   C31       1.0  0.7540568551581462  0.39113959749773874  0.9600361836577296  1.0000
  C   C32       1.0  0.8256702083827815  0.40792262478887337  0.9588180225734161  1.0000
  C   C33       1.0  0.860978934737627  0.4163179757609843  0.07734087713123672  1.0000
  C   C34       1.0  0.6419080511895531  0.3649879884117837  0.07806307458708717  1.0000
  C   C35       1.0  0.6109652395485183  0.27851789493176504  0.9965934741368363  1.0000
  C   C36       1.0  0.539672992366444  0.26191566140927913  0.9968829497099159  1.0000
  C   C37       1.0  0.4980538835987664  0.330795530382711  0.07915812436649183  1.0000
  C   C38       1.0  0.5286283499655331  0.4181173800173161  0.15964601039991155  1.0000
  C   C39       1.0  0.5999199027403103  0.4347238238101456  0.15950447518386013  1.0000
  C   C40       1.0  0.4212515745109346  0.3152595263518376  0.07712296469363178  1.0000
  C   C41       1.0  0.3902935725128033  0.4095506266439384  0.9792836583516236  1.0000
  C   C42       1.0  0.3648507024979678  0.48708590330129925  0.8988328612602544  1.0000
  H   H22       1.0  0.9608167372333323  0.43902497833696086  0.40476743878545896  1.0000
  H   H23       1.0  0.7261804641320786  0.3831875707627259  0.2864891788436561  1.0000
  H   H24       1.0  0.7262853363331236  0.38636417185032323  0.8690520275554233  1.0000
  H   H25       1.0  0.9162164820922457  0.42925945109075825  0.07711700781186903  1.0000
  H   H26       1.0  0.8532179364820731  0.4143364522337686  0.6308771637477985  1.0000
  H   H27       1.0  0.641981906776682  0.22263072900587663  0.9336365811817662  1.0000
  H   H28       1.0  0.5169058946595264  0.19513417157513624  0.9330582022470866  1.0000
  H   H29       1.0  0.49720995154092684  0.47370204053796455  0.222252899120172  1.0000
  H   H30       1.0  0.6221254816545374  0.5036220722386628  0.2216800637498566  1.0000
  H   H31       1.0  0.4075374287662553  0.21523995252846004  0.0535394279481447  1.0000
  H   H32       1.0  0.3993482684908893  0.33107088538011914  0.17405966778114723  1.0000
  Zn  Zn1       1.0  0.7502025277465382  0.40928868070678903  0.5764665631209105  1.0000
  Zn  Zn2       1.0  0.9009717755485265  0.4067712833789383  0.5783827019539634  1.0000
  C   C43       1.0  0.8256394140210954  0.40278923846185677  0.8146370072842353  1.0000
  C   C44       1.0  0.82553653541739  0.4132723368544313  0.3402124055906213  1.0000
  C   C45       1.0  0.8255454727096669  0.6452436904526655  0.5721627624221217  1.0000
  C   C46       1.0  0.8256304255617204  0.17081632527022414  0.5826867196120149  1.0000
  O   O2        1.0  0.8827613648861699  0.4140345193890618  0.38932787020345194  1.0000
  O   O3        1.0  0.8828449551595472  0.400115429905147  0.766975474197505  1.0000
  O   O4        1.0  0.8827683253440501  0.5959004786402358  0.5711757956297714  1.0000
  O   O5        1.0  0.8828379432323831  0.21824948083145854  0.5851274507331039  1.0000
  O   O6        1.0  0.7683363086125354  0.5978104841147489  0.5697218136810538  1.0000
  O   O7        1.0  0.768412938144984  0.40202699583353874  0.7655214224287912  1.0000
  O   O8        1.0  0.768329347598398  0.41594604049743644  0.38787225695222355  1.0000
  O   O9        1.0  0.7684059259637485  0.22016099262282718  0.5836719348592412  1.0000
