data_image0
_chemical_formula_structural       NC8NH4C6ClH5C8H10Zn2C4O8
_chemical_formula_sum              "N2 C26 H19 Cl1 Zn2 O8"
_cell_length_a       13.859017124695912
_cell_length_b       9.276545438789551
_cell_length_c       9.275657083861814
_cell_angle_alpha    85.88220868425292
_cell_angle_beta     89.50282398356396
_cell_angle_gamma    89.40963735980037

_space_group_name_H-M_alt    "P 1"
_space_group_IT_number       1

loop_
  _space_group_symop_operation_xyz
  'x, y, z'

loop_
  _atom_site_type_symbol
  _atom_site_label
  _atom_site_symmetry_multiplicity
  _atom_site_fract_x
  _atom_site_fract_y
  _atom_site_fract_z
  _atom_site_occupancy
  N   N1        1.0  0.9069914476309233  0.5698992304979897  0.4108341842389464  1.0000
  C   C1        1.0  0.8351228492209674  0.5467548956357475  0.3546505359249203  1.0000
  C   C2        1.0  0.7457225434561069  0.5179667247859125  0.28476529842306103  1.0000
  C   C3        1.0  0.6575181261888534  0.5460322704416103  0.35289461278086276  1.0000
  C   C4        1.0  0.5704922185242021  0.5179679474631651  0.28476471977062956  1.0000
  C   C5        1.0  0.5718533109741298  0.46183047272966626  0.1484846002010345  1.0000
  C   C6        1.0  0.659872901015353  0.4338727975467107  0.08061753371492196  1.0000
  C   C7        1.0  0.7467186791726452  0.4618281296516325  0.14848577731983953  1.0000
  C   C8        1.0  0.47988300702041653  0.5467558195021213  0.3546500383896123  1.0000
  N   N2        1.0  0.4070425722557032  0.5698995519536041  0.41083396839189285  1.0000
  H   H1        1.0  0.6566058052908007  0.5894848585249146  0.458378690811555  1.0000
  H   H2        1.0  0.5050216603204825  0.4397418296478948  0.09485937292134516  1.0000
  H   H3        1.0  0.6607834351581996  0.3905089590931172  0.9753470791986286  1.0000
  H   H4        1.0  0.8144778949191639  0.4397373912670226  0.0948615481604611  1.0000
  C   C9        1.0  0.15993510796753463  0.14646304513788855  0.41059645168440295  1.0000
  C   C10       1.0  0.161068495277509  0.22943131520268456  0.2775419883500252  1.0000
  C   C11       1.0  0.15340671289546481  0.16368358903105995  0.14738348245578803  1.0000
  C   C12       1.0  0.14442388046980748  0.014097028025046088  0.1482769832476325  1.0000
  C   C13       1.0  0.1447932460807555  0.9295778035687263  0.2788892296626426  1.0000
  C   C14       1.0  0.15410816926505636  0.9933247731150133  0.4110841938906853  1.0000
  Cl  Cl1       1.0  0.1536092326249987  0.2694599570550378  0.9828100987855328  1.0000
  H   H5        1.0  0.2079750905619009  0.4105858323252811  0.6372358492726776  1.0000
  H   H6        1.0  0.16560617844022274  0.34613722912294853  0.27468791715664054  1.0000
  H   H7        1.0  0.13807428886227835  0.9628583650817868  0.047578591286373095  1.0000
  H   H8        1.0  0.14009130748298215  0.8133037237322316  0.2762384610104409  1.0000
  H   H9        1.0  0.12041699937453923  0.695786096956578  0.6441859001022407  1.0000
  C   C15       1.0  0.1594943891150289  0.5677202010340054  0.9875191839917776  1.0000
  C   C16       1.0  0.20872033677513938  0.6776385126284111  0.05252284765817559  1.0000
  C   C17       1.0  0.2493838955773322  0.793728330247105  0.968851102643409  1.0000
  C   C18       1.0  0.24226032260603403  0.7989160962956965  0.8182152066373984  1.0000
  C   C19       1.0  0.19511396158956873  0.6896433790802019  0.7517593101106486  1.0000
  C   C20       1.0  0.15454886049787156  0.572067560788734  0.8341614761446804  1.0000
  C   C21       1.0  0.30303151883212487  0.9093588903460852  0.040117572336370026  1.0000
  C   C22       1.0  0.4092991569531015  0.8682130419900167  0.05793844745320942  1.0000
  H   H10       1.0  0.11776595461263574  0.3376873076652578  0.28521377564676453  1.0000
  H   H11       1.0  0.21372762109637256  0.6749652087806972  0.16924633200080863  1.0000
  H   H12       1.0  0.27418312048660254  0.887046677915291  0.751879717575112  1.0000
  H   H13       1.0  0.19259228556447885  0.695262691577043  0.6347882270103185  1.0000
  H   H14       1.0  0.041766925657564125  0.4058831230700026  0.5662314194469092  1.0000
  H   H15       1.0  0.2970270000123598  0.014039167922438983  0.9743375521972748  1.0000
  H   H16       1.0  0.27082658453143305  0.9256895412246179  0.14800348481027714  1.0000
  H   H17       1.0  0.41687390875611086  0.7656355681791169  0.12662755460570563  1.0000
  H   H18       1.0  0.4433461568737296  0.8549422344439551  0.9507559781338841  1.0000
  H   H19       1.0  0.4475063558986286  0.9547709163704662  0.11055488983553972  1.0000
  Zn  Zn1       1.0  0.05129538134381196  0.5698955162307184  0.4108424488237079  1.0000
  Zn  Zn2       1.0  0.2627386427764371  0.5698915644236666  0.4108375204405873  1.0000
  C   C23       1.0  0.1555210459507399  0.5655014604232964  0.6741246230194424  1.0000
  C   C24       1.0  0.1585152737784139  0.5742874402844325  0.14755548872716395  1.0000
  C   C25       1.0  0.15523815478542913  0.8332203499235007  0.40524752676377157  1.0000
  C   C26       1.0  0.15879810426412266  0.3065668187661179  0.41643266084195185  1.0000
  O   O1        1.0  0.2384283327791723  0.5764836753696343  0.20126326062736824  1.0000
  O   O2        1.0  0.2360885398220156  0.5633011360849074  0.6204126949932938  1.0000
  O   O3        1.0  0.23585901117726982  0.7794875328407647  0.4032925383054773  1.0000
  O   O4        1.0  0.23865778983305086  0.36029728837511366  0.41838330923650835  1.0000
  O   O5        1.0  0.07537616213202414  0.7794897922821515  0.403296660021887  1.0000
  O   O6        1.0  0.07560567930119788  0.5633051275472838  0.6204167408446866  1.0000
  O   O7        1.0  0.07794548279225014  0.5764876076845042  0.20126557328835792  1.0000
  O   O8        1.0  0.07817493928182184  0.3603012109315271  0.41838572997027473  1.0000
