data_image0
_chemical_formula_structural       NC12NC2H8C7OC3FC3H9C7OC4NC3H9Zn2C4O8
_chemical_formula_sum              "N3 C45 H26 O10 F1 Zn2"
_cell_length_a       19.240039667572717
_cell_length_b       10.299378350833068
_cell_length_c       10.299375074045738
_cell_angle_alpha    85.53063417163439
_cell_angle_beta     89.99323599274587
_cell_angle_gamma    90.01886762376958

_space_group_name_H-M_alt    "P 1"
_space_group_IT_number       1

loop_
  _space_group_symop_operation_xyz
  'x, y, z'

loop_
  _atom_site_type_symbol
  _atom_site_label
  _atom_site_symmetry_multiplicity
  _atom_site_fract_x
  _atom_site_fract_y
  _atom_site_fract_z
  _atom_site_occupancy
  N   N1        1.0  0.65481831221692  0.4218808195658397  0.5672212834836676  1.0000
  C   C1        1.0  0.5946699434196282  0.4218809035819145  0.5672212015333064  1.0000
  C   C2        1.0  0.5198519063078276  0.42188102092499774  0.567221064208823  1.0000
  C   C3        1.0  0.48336028572133066  0.3573734683343674  0.670645211650818  1.0000
  C   C4        1.0  0.4106895125985365  0.3572625493477728  0.6707317705253355  1.0000
  C   C5        1.0  0.37351967140121833  0.4218811135811618  0.5672208365060352  1.0000
  C   C6        1.0  0.41072550861177204  0.48649986473414164  0.4637100970151391  1.0000
  C   C7        1.0  0.4833961720034338  0.486388710191432  0.4637967784226531  1.0000
  C   C8        1.0  0.2963145809537596  0.42188103495327967  0.5672207410949739  1.0000
  C   C9        1.0  0.259104155975889  0.30859952654146006  0.6091060957728351  1.0000
  C   C10       1.0  0.18643349221493996  0.308706466174672  0.609014754137214  1.0000
  C   C11       1.0  0.14998229400393706  0.421880905751723  0.5672208020225444  1.0000
  C   C12       1.0  0.07516425681320191  0.4218807919088652  0.5672210507075752  1.0000
  N   N2        1.0  0.015015939940720898  0.42188075100374833  0.5672212591411263  1.0000
  C   C13       1.0  0.1864786066662608  0.5350554211797959  0.5254267970061821  1.0000
  C   C14       1.0  0.25914932754936676  0.5351625410037184  0.5253352927483016  1.0000
  H   H1        1.0  0.5110612450646547  0.3074300583607368  0.7513958005799608  1.0000
  H   H2        1.0  0.3835823693452575  0.3081168296743748  0.7525978284832229  1.0000
  H   H3        1.0  0.38364612108490875  0.5356456114805819  0.3818439882034442  1.0000
  H   H4        1.0  0.5111249840880693  0.5363320197926711  0.3830464653129013  1.0000
  H   H5        1.0  0.28617974146624214  0.21942850336174735  0.6402851259317104  1.0000
  H   H6        1.0  0.1587010537203906  0.22043426409316608  0.6412266981449235  1.0000
  H   H7        1.0  0.15878122170777406  0.6233275987178515  0.49321486755232474  1.0000
  H   H8        1.0  0.28626022089301406  0.6243336433804887  0.4941562178069639  1.0000
  C   C15       1.0  0.8348472030906811  0.0404958025899147  0.5672852728349906  1.0000
  C   C16       1.0  0.7623324485643801  0.04050966635903788  0.5512597505807819  1.0000
  C   C17       1.0  0.725669673188878  0.923228275272804  0.5446543400918742  1.0000
  C   C18       1.0  0.7625023944634083  0.8052656607610265  0.5512666261229244  1.0000
  C   C19       1.0  0.8349937067196902  0.8032558208926264  0.5671684736674223  1.0000
  C   C20       1.0  0.8707252048845855  0.9213908313666811  0.5754277340140119  1.0000
  C   C21       1.0  0.6491850651819758  0.9232058214853371  0.5263592315332692  1.0000
  O   O1        1.0  0.6223435854857342  0.8385412204730531  0.4596951193195276  1.0000
  C   C22       1.0  0.6031505148638087  0.019131185555925745  0.5837008353226569  1.0000
  C   C23       1.0  0.5412425636927234  0.059154029586506715  0.5199170163943286  1.0000
  C   C24       1.0  0.4970889594766507  0.1483899756368641  0.5739804476874808  1.0000
  F   F1        1.0  0.4377904822172971  0.18710448246140482  0.5112580381397298  1.0000
  C   C25       1.0  0.5139979752094085  0.19764080606475132  0.6925910630752184  1.0000
  C   C26       1.0  0.5749080565396536  0.15736514376653488  0.7575895018788585  1.0000
  C   C27       1.0  0.6192053479487585  0.0682006488946039  0.7039308016344139  1.0000
  H   H9        1.0  0.9718125442324034  0.24794511563638563  0.5955311441881035  1.0000
  H   H10       1.0  0.7343679437288511  0.13202451758450873  0.5424462085816144  1.0000
  H   H11       1.0  0.7343660255825409  0.7147994207847744  0.5452140383804807  1.0000
  H   H12       1.0  0.9266286918046689  0.9205761403879837  0.5877814786221192  1.0000
  H   H13       1.0  0.8629070390037963  0.47511232778225004  0.5721811206294252  1.0000
  H   H14       1.0  0.527400645095128  0.02218787143449163  0.4277543392714318  1.0000
  H   H15       1.0  0.4797991765178347  0.26661260703387873  0.7344720042907754  1.0000
  H   H16       1.0  0.587675465546041  0.19481838249793193  0.8499657594376852  1.0000
  H   H17       1.0  0.6655212497346401  0.03661815036086957  0.7570854426403224  1.0000
  C   C28       1.0  0.834944114670288  0.42201815955491867  0.1858400876093105  1.0000
  C   C29       1.0  0.8884607404890084  0.5151328008322205  0.1773823158091297  1.0000
  C   C30       1.0  0.91491330002374  0.5631775184014265  0.055858853232158445  1.0000
  C   C31       1.0  0.8883481648275318  0.5148950557000889  0.9421570360259945  1.0000
  C   C32       1.0  0.8348967857917688  0.42173346385265315  0.9486136872817932  1.0000
  C   C33       1.0  0.8083794811871684  0.3760854000038694  0.0709330569089659  1.0000
  C   C34       1.0  0.9719220299456846  0.6605002552033665  0.0468663916852694  1.0000
  O   O2        1.0  0.016336268373112743  0.6558150438424176  0.957232165829543  1.0000
  C   C35       1.0  0.9785352587737716  0.7631498488130715  0.1394771706461726  1.0000
  C   C36       1.0  0.04463721270663634  0.8097127180010865  0.17122658673080293  1.0000
  C   C37       1.0  0.05139100521658713  0.9077284425097772  0.25742830929625016  1.0000
  C   C38       1.0  0.11927255140114856  0.9540819748673659  0.29020886612352137  1.0000
  N   N3        1.0  0.17384166599184891  0.9913393754146764  0.31655698027498236  1.0000
  C   C39       1.0  0.9920495254154106  0.9605816336848267  0.3116136558695912  1.0000
  C   C40       1.0  0.9261794934087145  0.9160304950089982  0.27936297842002533  1.0000
  C   C41       1.0  0.9192875252795707  0.8182847658343252  0.1934367733120104  1.0000
  H   H18       1.0  0.7346826021708688  0.244836227917719  0.4092360053854096  1.0000
  H   H19       1.0  0.9101658953118611  0.5493354743491061  0.2655603246443785  1.0000
  H   H20       1.0  0.9090429532550903  0.5511323580444226  0.848406322781436  1.0000
  H   H21       1.0  0.7671223038763824  0.3043001459654196  0.07664956226812558  1.0000
  H   H22       1.0  0.8147638158734617  0.38514525799315363  0.6236991799678226  1.0000
  H   H23       1.0  0.09083472321013564  0.7689909661142875  0.12985215203165246  1.0000
  H   H24       1.0  0.9967005154193378  0.03646265671174831  0.3782812279510468  1.0000
  H   H25       1.0  0.8803284383314518  0.9577309838475362  0.32058844450781154  1.0000
  H   H26       1.0  0.8676574608462423  0.7868899776640175  0.1681382742728268  1.0000
  Zn  Zn1       1.0  0.75876357492202  0.42187732963666025  0.5672287657666015  1.0000
  Zn  Zn2       1.0  0.9110706933143713  0.42187364304981745  0.5672243778768953  1.0000
  C   C42       1.0  0.8349032049018708  0.41661335939713906  0.8044339082522602  1.0000
  C   C43       1.0  0.8349327268303841  0.4271392518901418  0.3300193625648036  1.0000
  C   C44       1.0  0.8349627686720428  0.6590798514105313  0.5620151322835216  1.0000
  C   C45       1.0  0.8348731107844161  0.1846711994838235  0.5724382080158603  1.0000
  O   O3        1.0  0.8927286615535961  0.4288508722389057  0.3784055800201913  1.0000
  O   O4        1.0  0.8927048487266118  0.41489796139002394  0.7560439867766  1.0000
  O   O5        1.0  0.8927521679721794  0.6106927196129242  0.5602891098444367  1.0000
  O   O6        1.0  0.8926812903437501  0.23305612334422612  0.5741603595731992  1.0000
  O   O7        1.0  0.7771529259176974  0.610694849344926  0.5602927840649634  1.0000
  O   O8        1.0  0.777105606972982  0.4149016515176266  0.7560475915094746  1.0000
  O   O9        1.0  0.7771294199343389  0.42885451769148913  0.3784076232861542  1.0000
  O   O10       1.0  0.7770820487138274  0.23305975947126378  0.5741625002129835  1.0000
