data_image0
_chemical_formula_structural       NC8NC6H8C10ClC2H7C10OH6Zn2C4O8
_chemical_formula_sum              "N2 C40 H21 Cl1 O9 Zn2"
_cell_length_a       17.457602349358154
_cell_length_b       10.299769246903264
_cell_length_c       10.298964903136534
_cell_angle_alpha    85.56198586416822
_cell_angle_beta     92.87248841423785
_cell_angle_gamma    91.7063087843894

_space_group_name_H-M_alt    "P 1"
_space_group_IT_number       1

loop_
  _space_group_symop_operation_xyz
  'x, y, z'

loop_
  _atom_site_type_symbol
  _atom_site_label
  _atom_site_symmetry_multiplicity
  _atom_site_fract_x
  _atom_site_fract_y
  _atom_site_fract_z
  _atom_site_occupancy
  N   N1        1.0  0.7227483610595619  0.4528345696030134  0.6264923767319786  1.0000
  C   C1        1.0  0.6616621179163771  0.40690980896854256  0.6158740389603227  1.0000
  C   C2        1.0  0.5856682491562367  0.3497851209830358  0.6026743695200052  1.0000
  C   C3        1.0  0.527144565838181  0.3899459411625011  0.6775780249951479  1.0000
  C   C4        1.0  0.4525891587106313  0.33493949366293446  0.6649929211794118  1.0000
  C   C5        1.0  0.3904748468357961  0.3773434025644613  0.7443187275479539  1.0000
  C   C6        1.0  0.3159336493334084  0.395812203329567  0.6885528915392278  1.0000
  C   C7        1.0  0.2574099245666211  0.43578909840364854  0.7635644986944055  1.0000
  C   C8        1.0  0.18143076472626601  0.4548637690580186  0.7055831036836608  1.0000
  N   N2        1.0  0.120356435509987  0.4701934246146207  0.6589662128712155  1.0000
  C   C9        1.0  0.2729352625894531  0.45754032738942835  0.894850498740301  1.0000
  C   C10       1.0  0.34669181593444454  0.439460506558365  0.951003971748495  1.0000
  C   C11       1.0  0.4052039536379834  0.39966365997698033  0.87645011955948  1.0000
  C   C12       1.0  0.4378460033220493  0.23909482565905793  0.576071131841251  1.0000
  C   C13       1.0  0.4963580070453095  0.19921267944896792  0.5015675144221261  1.0000
  C   C14       1.0  0.5701286503067158  0.25433149635109636  0.514702603908904  1.0000
  H   H1        1.0  0.5395004695576827  0.465139051848003  0.7442157862107993  1.0000
  H   H2        1.0  0.30358942727449606  0.3808430337814739  0.586522014592686  1.0000
  H   H3        1.0  0.22807804955307642  0.48842228890338  0.9536910006256849  1.0000
  H   H4        1.0  0.3585226347771876  0.4559873282381681  0.05266163555784509  1.0000
  H   H5        1.0  0.4616851010003737  0.3846715162314161  0.9225585076267728  1.0000
  H   H6        1.0  0.38135315100550365  0.19375972900590366  0.5654167010382152  1.0000
  H   H7        1.0  0.4845161666824497  0.1251360334362577  0.4337314135861563  1.0000
  H   H8        1.0  0.6149857246792619  0.22257983857215868  0.4563732175488674  1.0000
  C   C15       1.0  0.921483930455729  0.08014586590054167  0.6427184631859494  1.0000
  C   C16       1.0  0.9285741707325581  0.09000285917117412  0.5070815414369158  1.0000
  C   C17       1.0  0.9322401831004787  0.9778612519525272  0.4383698543394876  1.0000
  C   C18       1.0  0.9287198068948052  0.8547210599313837  0.507115380602579  1.0000
  C   C19       1.0  0.9216282219333933  0.8428724019357967  0.6427519177270806  1.0000
  C   C20       1.0  0.9180501984264672  0.9561435328053347  0.7097939159716229  1.0000
  C   C21       1.0  0.9397423931607514  0.9893421852816285  0.29487752485597624  1.0000
  C   C22       1.0  0.9894876816825257  0.9085718526924486  0.23644895523332748  1.0000
  C   C23       1.0  0.9964806762064252  0.9195708544304625  0.1013749384197906  1.0000
  C   C24       1.0  0.9539515124911895  0.011086865605086874  0.02309362169489692  1.0000
  Cl  Cl1       1.0  0.9628097587343033  0.024643128637169553  0.8536482222681858  1.0000
  C   C25       1.0  0.9043524398123098  0.09178373581270671  0.08004313390498807  1.0000
  C   C26       1.0  0.8972233731024176  0.08117138949686999  0.21508574527397736  1.0000
  H   H9        1.0  0.9323191660607304  0.18516837487645704  0.45479581510545253  1.0000
  H   H10       1.0  0.9304661274553216  0.7679598138320906  0.4543667174166821  1.0000
  H   H11       1.0  0.9125801434356872  0.947771222741994  0.8144314658869255  1.0000
  H   H12       1.0  0.02369696766657903  0.8381278042496092  0.29535089954017474  1.0000
  H   H13       1.0  0.035126686680948975  0.8571066438805071  0.05774088465276983  1.0000
  H   H14       1.0  0.8711389591805271  0.16256117639324044  0.019770017015727784  1.0000
  H   H15       1.0  0.8577471681630137  0.14355520385712262  0.25692667081887505  1.0000
  C   C27       1.0  0.9215695672392816  0.4615120239381527  0.2613452331213044  1.0000
  C   C28       1.0  0.0017734145962007288  0.47838843575721723  0.26589606319515746  1.0000
  C   C29       1.0  0.042410098523503206  0.48693883690198453  0.15093287934203614  1.0000
  C   C30       1.0  0.0017155078761264034  0.4783758908418736  0.030643305170759305  1.0000
  C   C31       1.0  0.9215425474223369  0.46150628724932014  0.024125142806476367  1.0000
  C   C32       1.0  0.8819194480010725  0.4531688868520612  0.14001576336379262  1.0000
  C   C33       1.0  0.12708529080422948  0.5047554205551892  0.15407226969136345  1.0000
  C   C34       1.0  0.17610681889220348  0.5150700680088367  0.26312791178705  1.0000
  C   C35       1.0  0.24883794376913215  0.5303728574804157  0.21710486220372616  1.0000
  C   C36       1.0  0.24023592767907134  0.5285627449198431  0.08349318854195585  1.0000
  O   O1        1.0  0.1673213390414554  0.5132211608964082  0.04901082651357757  1.0000
  H   H16       1.0  0.03225814277891326  0.48480321688263683  0.3592303479584946  1.0000
  H   H17       1.0  0.03268642972028046  0.48489241476400247  0.941728434357199  1.0000
  H   H18       1.0  0.8200677822555138  0.4401540573263161  0.1357739438015948  1.0000
  H   H19       1.0  0.16168827461818003  0.5120361320379558  0.3641888325699123  1.0000
  H   H20       1.0  0.30197232321814615  0.5415526369364387  0.2743065611194684  1.0000
  H   H21       1.0  0.2859800187627295  0.5381873560847346  0.016059059858477998  1.0000
  Zn  Zn1       1.0  0.8374894616468503  0.45784047743425726  0.6358711230980006  1.0000
  Zn  Zn2       1.0  0.005615318282311322  0.46517686890120064  0.6495980991522856  1.0000
  C   C37       1.0  0.9215449726295837  0.45633361105773096  0.879943074660252  1.0000
  C   C38       1.0  0.9215616435341247  0.4666854540067498  0.40552642503363145  1.0000
  C   C39       1.0  0.9215971605513171  0.6987007368340818  0.6375698452409895  1.0000
  C   C40       1.0  0.9215093979452147  0.22431676542653192  0.6478997189427742  1.0000
  O   O2        1.0  0.9853618695925433  0.47120016099356066  0.4591242657759313  1.0000
  O   O3        1.0  0.9853483814178952  0.4573860757237587  0.8367633172128462  1.0000
  O   O4        1.0  0.9853896636834574  0.6531005573973219  0.6410451494601921  1.0000
  O   O5        1.0  0.9853205299622202  0.275485686107525  0.6548423314648607  1.0000
  O   O6        1.0  0.8577841925938383  0.6475316577257958  0.6306268860942505  1.0000
  O   O7        1.0  0.8577429106223495  0.45181873635396297  0.8263449846658498  1.0000
  O   O8        1.0  0.8577563988947534  0.46563277638188577  0.44870437174419675  1.0000
  O   O9        1.0  0.8577150592560885  0.26991829220618646  0.6444225348056768  1.0000
