data_image0
_chemical_formula_structural       NC9NC5H8C7F3H5C6ClH5Zn2C4O8
_chemical_formula_sum              "N2 C31 H18 F3 Cl1 Zn2 O8"
_cell_length_a       17.807436237873137
_cell_length_b       9.27228830945605
_cell_length_c       10.302974078461048
_cell_angle_alpha    85.262103223369
_cell_angle_beta     89.39214410348853
_cell_angle_gamma    87.81380667828488

_space_group_name_H-M_alt    "P 1"
_space_group_IT_number       1

loop_
  _space_group_symop_operation_xyz
  'x, y, z'

loop_
  _atom_site_type_symbol
  _atom_site_label
  _atom_site_symmetry_multiplicity
  _atom_site_fract_x
  _atom_site_fract_y
  _atom_site_fract_z
  _atom_site_occupancy
  N   N1        1.0  0.6993652679348576  0.5426781418132214  0.5504620637515725  1.0000
  C   C1        1.0  0.6389817909577465  0.5035603338047205  0.5396229329749237  1.0000
  C   C2        1.0  0.5638713822593759  0.45490208852063385  0.5261402309088516  1.0000
  C   C3        1.0  0.546194128537349  0.3755158557000953  0.42153967466471354  1.0000
  C   C4        1.0  0.47326643744914804  0.3281485073506891  0.4083668099133737  1.0000
  C   C5        1.0  0.4169694706910379  0.3597477195010035  0.49976400389706244  1.0000
  C   C6        1.0  0.33946546817774076  0.3095361714325695  0.485846116084394  1.0000
  C   C7        1.0  0.2768150401457371  0.4004184343843924  0.5113556058983018  1.0000
  C   C8        1.0  0.2037462214970008  0.3528253831009476  0.4981974629399091  1.0000
  C   C9        1.0  0.1400300978243184  0.4466994258493365  0.5240568811300221  1.0000
  N   N2        1.0  0.08881535656182309  0.5221676616301761  0.5448471571824944  1.0000
  C   C10       1.0  0.1927457819292782  0.2140632912950079  0.45950581679912306  1.0000
  C   C11       1.0  0.2545389204661488  0.12316562980145762  0.433988011364713  1.0000
  C   C12       1.0  0.3274905949744601  0.1703200996503702  0.44694571378700854  1.0000
  C   C13       1.0  0.43533526219801555  0.43968350228664077  0.6045811725443202  1.0000
  C   C14       1.0  0.5083169287141776  0.4868392040029297  0.6175994180083464  1.0000
  H   H1        1.0  0.5887194728949904  0.35052116123063537  0.3499663359713696  1.0000
  H   H2        1.0  0.46066521080588785  0.268474380615908  0.32575006531586115  1.0000
  H   H3        1.0  0.2847473405799143  0.5087629091958644  0.5397213744210441  1.0000
  H   H4        1.0  0.1364781205302999  0.1762279474182931  0.44908964493255565  1.0000
  H   H5        1.0  0.24590352077349484  0.015732808892559236  0.40441800597331934  1.0000
  H   H6        1.0  0.3745126607016768  0.0972362269720437  0.42824204931362453  1.0000
  H   H7        1.0  0.3935299230352771  0.464078965380502  0.677451357339914  1.0000
  H   H8        1.0  0.5214394279979835  0.547870175089098  0.6991685961853551  1.0000
  C   C15       1.0  0.8963051834592793  0.1084816498707133  0.5496235684223598  1.0000
  C   C16       1.0  0.9320097925070179  0.18861096483291373  0.44656577472991427  1.0000
  C   C17       1.0  0.9602932029894359  0.121505192077666  0.3390885207898344  1.0000
  C   C18       1.0  0.952596915042221  0.9727058272290547  0.33090087875690943  1.0000
  C   C19       1.0  0.919633508524516  0.8907496938726825  0.43557169563258835  1.0000
  C   C20       1.0  0.8918826949055115  0.9563527189845366  0.5456968916588525  1.0000
  C   C21       1.0  0.9850782420619746  0.8994539678723863  0.21639528321736987  1.0000
  F   F1        1.0  0.9844274617597195  0.9940882408947328  0.1051890026986275  1.0000
  F   F2        1.0  0.9436975956686692  0.7812801965635476  0.1922438947090468  1.0000
  F   F3        1.0  0.05835751323907012  0.8530373793500405  0.24345334816820194  1.0000
  H   H9        1.0  0.7699657244938032  0.19771192120196715  0.7849673583916632  1.0000
  H   H10       1.0  0.936749851454059  0.3046255976267248  0.44784081857322156  1.0000
  H   H11       1.0  0.9876741554750398  0.1865404732466429  0.26165381155226664  1.0000
  H   H12       1.0  0.9172323309314017  0.7744373395369812  0.4326870268880831  1.0000
  H   H13       1.0  0.8568853721137482  0.8285084394752242  0.8606174175883965  1.0000
  C   C22       1.0  0.8940939362001079  0.532417195196089  0.16641772583855063  1.0000
  C   C23       1.0  0.8818043255298712  0.3831628916090925  0.1765342765280946  1.0000
  C   C24       1.0  0.8757065944828414  0.3091069693558701  0.0645970413300363  1.0000
  C   C25       1.0  0.8818043587141229  0.3831629713705523  0.9414263766948339  1.0000
  C   C26       1.0  0.8940939346719872  0.5324171207768442  0.928902745284727  1.0000
  C   C27       1.0  0.9001788469970817  0.6063167510444556  0.042055386829300545  1.0000
  Cl  Cl1       1.0  0.860353953609759  0.12265288638589555  0.07873855920573525  1.0000
  H   H14       1.0  0.8987236537289045  0.5886386924104006  0.4899099286465891  1.0000
  H   H15       1.0  0.8769164706002722  0.32380096914237866  0.27108309454757684  1.0000
  H   H16       1.0  0.8769165232200656  0.32380094577696816  0.8558821278119804  1.0000
  H   H17       1.0  0.9096569299032189  0.7214261515648094  0.0333248747488164  1.0000
  H   H18       1.0  0.8987235108007686  0.5886386871658523  0.596882300285992  1.0000
  Zn  Zn1       1.0  0.8117521698272768  0.5367554081672639  0.5488492491470534  1.0000
  Zn  Zn2       1.0  0.9764284978536087  0.5280786273683964  0.5464706993597931  1.0000
  C   C28       1.0  0.8941222464065124  0.5266660358505504  0.7848033825251102  1.0000
  C   C29       1.0  0.8940602100335818  0.5381697264733883  0.3105166589962531  1.0000
  C   C30       1.0  0.89271475597082  0.7960872281880134  0.5412656991995186  1.0000
  C   C31       1.0  0.8954676533238191  0.26874680261775885  0.5540544203819517  1.0000
  O   O1        1.0  0.9565427323436397  0.5368012372189745  0.35797495924417966  1.0000
  O   O2        1.0  0.9566252523982933  0.521447960156894  0.7355394493462781  1.0000
  O   O3        1.0  0.9554878436248747  0.7390090246537724  0.5388810522077001  1.0000
  O   O4        1.0  0.9576800848703168  0.31924018601018683  0.5546332598041785  1.0000
  O   O5        1.0  0.8305005266146119  0.7455938524880044  0.540686689507514  1.0000
  O   O6        1.0  0.8316379263375278  0.5280345224718228  0.7373450093908314  1.0000
  O   O7        1.0  0.8315554065952875  0.5433877492234686  0.3597789586379074  1.0000
  O   O8        1.0  0.8326927591727492  0.3258266876891215  0.5564373565813321  1.0000
