data_image0
_chemical_formula_structural       NC8NH4C6ClH5C8H10Zn2C4O8
_chemical_formula_sum              "N2 C26 H19 Cl1 Zn2 O8"
_cell_length_a       14.927258825633057
_cell_length_b       9.276545438789551
_cell_length_c       9.275657083861812
_cell_angle_alpha    85.88220868425292
_cell_angle_beta     89.50283437808949
_cell_angle_gamma    89.40960858786079

_space_group_name_H-M_alt    "P 1"
_space_group_IT_number       1

loop_
  _space_group_symop_operation_xyz
  'x, y, z'

loop_
  _atom_site_type_symbol
  _atom_site_label
  _atom_site_symmetry_multiplicity
  _atom_site_fract_x
  _atom_site_fract_y
  _atom_site_fract_z
  _atom_site_occupancy
  N   N1        1.0  0.8420842831718586  0.5698985287697149  0.4108344804347541  1.0000
  C   C1        1.0  0.7645578589413882  0.569898502370989  0.41083449007222406  1.0000
  C   C2        1.0  0.6681252168986488  0.5698985023641381  0.4108345451581723  1.0000
  C   C3        1.0  0.6221254838503654  0.48113404860525694  0.32103640659047894  1.0000
  C   C4        1.0  0.5284141730243029  0.4811339586387337  0.321036378070958  1.0000
  C   C5        1.0  0.4803092196265313  0.569898554949599  0.41083445736397867  1.0000
  C   C6        1.0  0.526308953198738  0.658663018466936  0.5006324878588952  1.0000
  C   C7        1.0  0.6200203310163234  0.6586631084305243  0.500632516384339  1.0000
  C   C8        1.0  0.3838765788063572  0.569898457059795  0.410834402364165  1.0000
  N   N2        1.0  0.306350153877245  0.5698985383024784  0.4108344140146196  1.0000
  H   H1        1.0  0.6586405840884002  0.4120700982428176  0.2511684338301512  1.0000
  H   H2        1.0  0.4935369278297228  0.41207007507099713  0.25116853105517856  1.0000
  H   H3        1.0  0.4897938529607032  0.7277269688293753  0.570500460619223  1.0000
  H   H4        1.0  0.6548975086954574  0.7277269822427398  0.5705004714669724  1.0000
  C   C9        1.0  0.0769264985574396  0.14646214771017374  0.41059683048391316  1.0000
  C   C10       1.0  0.0779787771020377  0.22943041689808186  0.2775423675196653  1.0000
  C   C11       1.0  0.07086529599716629  0.16368269665428548  0.14738385912332252  1.0000
  C   C12       1.0  0.06252530335029993  0.01409614259817981  0.14827735698164735  1.0000
  C   C13       1.0  0.06286823599485335  0.9295769178560864  0.278889603517281  1.0000
  C   C14       1.0  0.07151655393979303  0.993323880195531  0.4110845707872943  1.0000
  Cl  Cl1       1.0  0.07105332277704157  0.26945906452157625  0.982810475519205  1.0000
  H   H5        1.0  0.12152858870088189  0.4105848977296152  0.6372362437605842  1.0000
  H   H6        1.0  0.08219172936670938  0.34613632730759547  0.2746882978081495  1.0000
  H   H7        1.0  0.056630108515523636  0.9628574845675226  0.047578962946805296  1.0000
  H   H8        1.0  0.05850278293135869  0.8133028416574245  0.2762388333295698  1.0000
  H   H9        1.0  0.04023643027315528  0.6957852301035443  0.6441862659963391  1.0000
  C   C15       1.0  0.07651731893401313  0.5677193039472694  0.9875195626473624  1.0000
  C   C16       1.0  0.12222050274803276  0.6776375774561569  0.05252324238945727  1.0000
  C   C17       1.0  0.15997404921707847  0.7937273636139485  0.9688515106541719  1.0000
  C   C18       1.0  0.1533602615624905  0.7989151351739625  0.8182156123218185  1.0000
  C   C19       1.0  0.10958784262247545  0.6896424544350355  0.7517597003985017  1.0000
  C   C20       1.0  0.07192570792008035  0.5720666675282939  0.8341618531852064  1.0000
  C   C21       1.0  0.2097824795946592  0.9093578822064139  0.04011799786681335  1.0000
  C   C22       1.0  0.30844527085383655  0.8682119516323638  0.05793890768742971  1.0000
  H   H10       1.0  0.03777510262357863  0.3376864428633053  0.2852141406751121  1.0000
  H   H11       1.0  0.1268694500333647  0.6749642697343683  0.16924672836731625  1.0000
  H   H12       1.0  0.1829985634894984  0.8870456920952754  0.751880133684546  1.0000
  H   H13       1.0  0.10724662567547338  0.6952617688828666  0.6347886164746686  1.0000
  H   H14       1.0  0.9672148035308455  0.4058823170675765  0.5662317596562874  1.0000
  H   H15       1.0  0.20420766305218696  0.014038164428390667  0.974337975766825  1.0000
  H   H16       1.0  0.17988223181830953  0.9256885580015133  0.14800389982356865  1.0000
  H   H17       1.0  0.3154779495620019  0.7656344719609709  0.12662801731360918  1.0000
  H   H18       1.0  0.34005576023298384  0.8549411177445515  0.9507564494868186  1.0000
  H   H19       1.0  0.34391824231358625  0.9547697964523677  0.11055536254706834  1.0000
  Zn  Zn1       1.0  0.9760613729193963  0.5698947028562416  0.4108427921447888  1.0000
  Zn  Zn2       1.0  0.17237308864735557  0.5698905874581053  0.4108379328126035  1.0000
  C   C23       1.0  0.07282832072015455  0.5655005664106878  0.6741250003774539  1.0000
  C   C24       1.0  0.07560827217449884  0.5742865439552265  0.14755586706299906  1.0000
  C   C25       1.0  0.07256567413756664  0.833219456129761  0.4052479040293995  1.0000
  C   C26       1.0  0.07587086241990804  0.30656592221808876  0.4164330392701512  1.0000
  O   O1        1.0  0.14980250099605597  0.5764827172126645  0.2012636650603774  1.0000
  O   O2        1.0  0.14763015099182564  0.5633001797382067  0.6204130986621972  1.0000
  O   O3        1.0  0.1474170481397723  0.7794865766716474  0.403292941899424  1.0000
  O   O4        1.0  0.15001553738051054  0.36029633004061523  0.4183837137444504  1.0000
  O   O5        1.0  0.9984188571947183  0.7794889602766666  0.40329701120701844  1.0000
  O   O6        1.0  0.9986319493924278  0.5633042953642247  0.6204170921047711  1.0000
  O   O7        1.0  0.0008043091767151465  0.5764867736911679  0.20126592531255105  1.0000
  O   O8        1.0  0.0010173450372457091  0.3603003767606623  0.41838608206940164  1.0000
