data_image0
_chemical_formula_structural       NC5N2C2NH4C10H6C6H6Zn2C4O8
_chemical_formula_sum              "N4 C27 H16 Zn2 O8"
_cell_length_a       13.87973921873968
_cell_length_b       9.275150299802176
_cell_length_c       10.681121600428286
_cell_angle_alpha    85.23622488855405
_cell_angle_beta     89.99986795653135
_cell_angle_gamma    89.48389152441209

_space_group_name_H-M_alt    "P 1"
_space_group_IT_number       1

loop_
  _space_group_symop_operation_xyz
  'x, y, z'

loop_
  _atom_site_type_symbol
  _atom_site_label
  _atom_site_symmetry_multiplicity
  _atom_site_fract_x
  _atom_site_fract_y
  _atom_site_fract_z
  _atom_site_occupancy
  N   N1        1.0  0.8977311405237917  0.5790663164147002  0.610886195671402  1.0000
  C   C1        1.0  0.8244743152175136  0.6036144634801726  0.5615608533404415  1.0000
  C   C2        1.0  0.7334919968200991  0.6341056622118239  0.5002934491525315  1.0000
  C   C3        1.0  0.6472370454476358  0.6033939180279395  0.5640354268000434  1.0000
  C   C4        1.0  0.560612596056403  0.634105597551111  0.5002934841365956  1.0000
  C   C5        1.0  0.46999719435238374  0.6036143187073753  0.5615607643757653  1.0000
  N   N2        1.0  0.3970357095248959  0.5790662917792  0.6108861862422958  1.0000
  N   N3        1.0  0.5618979202151371  0.6927760057340204  0.37946054968488707  1.0000
  C   C6        1.0  0.6465150249616336  0.7234135052746525  0.3192315271012256  1.0000
  C   C7        1.0  0.6461509170075098  0.7839603527476903  0.18536414306551574  1.0000
  N   N4        1.0  0.7315008191576398  0.6927759590470774  0.3794605592547038  1.0000
  H   H1        1.0  0.647519487393311  0.556449779628629  0.6604629113796294  1.0000
  H   H2        1.0  0.7107441168973767  0.8518661046641438  0.16557322761470084  1.0000
  H   H3        1.0  0.6466935649574779  0.6939727532472151  0.12306602218101582  1.0000
  H   H4        1.0  0.5807393090033417  0.8518640399094268  0.1655725723120196  1.0000
  C   C8        1.0  0.1499301233829091  0.15536074450502557  0.612982713288678  1.0000
  C   C9        1.0  0.2005967108439253  0.23741354510518445  0.51823879476862  1.0000
  C   C10       1.0  0.24300069070552066  0.17126476193204068  0.41868011388103654  1.0000
  C   C11       1.0  0.2351683683795105  0.02209729720097298  0.4125829903739102  1.0000
  C   C12       1.0  0.1866051816369747  0.9386006601475984  0.5067640818596162  1.0000
  C   C13       1.0  0.1448459739316159  0.002760711331841088  0.6088005695815766  1.0000
  C   C14       1.0  0.29367898055924013  0.25705971667942173  0.3217699720900713  1.0000
  C   C15       1.0  0.33610951668791844  0.32891531937535673  0.24063598463088454  1.0000
  C   C16       1.0  0.3857937055166485  0.4130631718274249  0.14563162374393834  1.0000
  C   C17       1.0  0.42821606048968364  0.48491329225274615  0.06451318909985804  1.0000
  H   H5        1.0  0.10424462738475813  0.4176829779824099  0.8118465672800756  1.0000
  H   H6        1.0  0.20522580938066026  0.35386189391249245  0.520173431436479  1.0000
  H   H7        1.0  0.26746478688200703  0.9699527486635436  0.33554548926526584  1.0000
  H   H8        1.0  0.183658728947653  0.8226006426339919  0.5013574026310152  1.0000
  H   H9        1.0  0.08224173612152508  0.8722875502434183  0.9063438048389102  1.0000
  H   H10       1.0  0.46546642695828544  0.5480037974616143  0.9932845035266166  1.0000
  C   C18       1.0  0.1473880849848923  0.5790607221900095  0.2431464114202402  1.0000
  C   C19       1.0  0.07891001608168002  0.4988145622000275  0.18211995537034809  1.0000
  C   C20       1.0  0.07890995537386392  0.49881465471701114  0.051237814960857664  1.0000
  C   C21       1.0  0.14738800882096492  0.5790607929184918  0.978636846747519  1.0000
  C   C22       1.0  0.21580955950829622  0.659240452873576  0.03966305064265829  1.0000
  C   C23       1.0  0.21580954731600155  0.6592404305001325  0.17055534941612271  1.0000
  H   H11       1.0  0.2166375603368007  0.6602116391059369  0.5360036570774818  1.0000
  H   H12       1.0  0.025233672946822775  0.43591382939658546  0.23546721873244536  1.0000
  H   H13       1.0  0.02523365241783492  0.43591389731411323  0.006963189171721226  1.0000
  H   H14       1.0  0.2694929116473006  0.7221494743741916  0.9863600817417747  1.0000
  H   H15       1.0  0.2694928634085674  0.722149423794127  0.2147844494758049  1.0000
  H   H16       1.0  0.21663786404781682  0.6602111364100685  0.6740746338449943  1.0000
  Zn  Zn1       1.0  0.041819677819800775  0.5790624428453786  0.6108934460849091  1.0000
  Zn  Zn2       1.0  0.2529472287692831  0.5790583461142993  0.6108892599557303  1.0000
  C   C24       1.0  0.14742038577470343  0.5733127329812826  0.8396417898702832  1.0000
  C   C25       1.0  0.14734881539810907  0.5848098764601228  0.38214103005280475  1.0000
  C   C26       1.0  0.14580205186617556  0.8425841011455574  0.6046007816824273  1.0000
  C   C27       1.0  0.1489670876640743  0.31553677478194375  0.6171821135626667  1.0000
  O   O1        1.0  0.22745747921706783  0.5867314957560374  0.428787336249296  1.0000
  O   O2        1.0  0.22755265449797354  0.5713869158775342  0.7929919513794786  1.0000
  O   O3        1.0  0.2262447493198767  0.7888269510924477  0.6031946669308755  1.0000
  O   O4        1.0  0.22876531228971242  0.3692914708640678  0.6185845267522474  1.0000
  O   O5        1.0  0.06600152225189082  0.7888293180985791  0.6031981792832253  1.0000
  O   O6        1.0  0.06730941702506876  0.5713910164005378  0.7929953884046574  1.0000
  O   O7        1.0  0.06721424210999105  0.5867355459990287  0.4287892679000346  1.0000
  O   O8        1.0  0.0685220752406066  0.3692955107870837  0.6185865523434722  1.0000
