data_image0
_chemical_formula_structural       NC10NC3NH7C6SCOC6H10C7OC3OC4H12Zn2C4O8
_chemical_formula_sum              "N3 C44 H29 S1 O11 Zn2"
_cell_length_a       19.210446455230148
_cell_length_b       10.302038109246572
_cell_length_c       10.299374482448636
_cell_angle_alpha    85.55445882342694
_cell_angle_beta     89.97251480092041
_cell_angle_gamma    89.9653702289085

_space_group_name_H-M_alt    "P 1"
_space_group_IT_number       1

loop_
  _space_group_symop_operation_xyz
  'x, y, z'

loop_
  _atom_site_type_symbol
  _atom_site_label
  _atom_site_symmetry_multiplicity
  _atom_site_fract_x
  _atom_site_fract_y
  _atom_site_fract_z
  _atom_site_occupancy
  N   N1        1.0  0.6559526775496113  0.42018872931593454  0.5675117258024456  1.0000
  C   C1        1.0  0.5957242914827632  0.42239562592695984  0.5677432508967524  1.0000
  C   C2        1.0  0.520920054380243  0.4251317736541944  0.5680300819474748  1.0000
  C   C3        1.0  0.485317262955815  0.5413289474334677  0.583161800798371  1.0000
  C   C4        1.0  0.4126518045225563  0.5414804595285148  0.5831092271742573  1.0000
  C   C5        1.0  0.3757533498005071  0.4258405386202045  0.5681166865179015  1.0000
  C   C6        1.0  0.2984311243160502  0.42448444528405993  0.5679658626823116  1.0000
  C   C7        1.0  0.2606953933776197  0.5280448453928293  0.5046194731106697  1.0000
  C   C8        1.0  0.1879169316109615  0.5266429979639358  0.5045101606429931  1.0000
  C   C9        1.0  0.1518728198359452  0.42193820783382874  0.5676962824843925  1.0000
  C   C10       1.0  0.0769432063188641  0.42063649123131186  0.5675592314714597  1.0000
  N   N2        1.0  0.016705278848125404  0.41958986687646505  0.5674490773266252  1.0000
  C   C11       1.0  0.1888849079781799  0.3185034747113673  0.6310176838712798  1.0000
  C   C12       1.0  0.2616651872564527  0.31963111092197916  0.6311771978100225  1.0000
  C   C13       1.0  0.4139661195172479  0.31146308550698354  0.553273445934928  1.0000
  N   N3        1.0  0.4847362554045044  0.3139073976261635  0.5534394232055986  1.0000
  H   H1        1.0  0.5134242329312161  0.6307367825556498  0.595225572486932  1.0000
  H   H2        1.0  0.3853888026024441  0.6314696553064123  0.596567862402904  1.0000
  H   H3        1.0  0.28743706253208257  0.6092906223911769  0.4536408866979133  1.0000
  H   H4        1.0  0.15978464336860712  0.6070609396071154  0.45486186983906074  1.0000
  H   H5        1.0  0.1615037956182406  0.23712240618012473  0.6805663256755601  1.0000
  H   H6        1.0  0.2891524043526104  0.23933195690286224  0.6822632788661285  1.0000
  H   H7        1.0  0.38769485964285205  0.22061119976916596  0.5397684177879662  1.0000
  C   C14       1.0  0.8362663813964767  0.03861099050464878  0.5674402535198233  1.0000
  C   C15       1.0  0.7767722325635443  0.0434979028963922  0.4879285437104069  1.0000
  C   C16       1.0  0.7474979257694803  0.9289704866150442  0.4478828272124457  1.0000
  C   C17       1.0  0.7769961348051481  0.8083649455157913  0.4878744969982483  1.0000
  C   C18       1.0  0.8363982443922844  0.8011576477431587  0.5675318078502796  1.0000
  C   C19       1.0  0.8657628652819057  0.9169344140524138  0.6068165946142909  1.0000
  S   S1        1.0  0.6719807802567611  0.9366547709271139  0.3452836687338581  1.0000
  C   C20       1.0  0.7231822815895921  0.9450984816992994  0.19884825465374534  1.0000
  O   O1        1.0  0.739974293903533  0.8398137049786881  0.15249385169967256  1.0000
  C   C21       1.0  0.7461505167603109  0.07124184154373368  0.13334467712985587  1.0000
  C   C22       1.0  0.7953826475249365  0.0735231045307525  0.03182644066973528  1.0000
  C   C23       1.0  0.8177648518401527  0.19183655179821232  0.9700975409660297  1.0000
  C   C24       1.0  0.7912916961392211  0.3091084092359131  0.008604602904298988  1.0000
  C   C25       1.0  0.7422691368638378  0.3082996977879249  0.10876971686662285  1.0000
  C   C26       1.0  0.7196548591443654  0.19029019858982626  0.17081883940375575  1.0000
  H   H8        1.0  0.9483252384816343  0.23670385485316345  0.717479287617099  1.0000
  H   H9        1.0  0.7530950463297655  0.13606659066378346  0.4566558851499452  1.0000
  H   H10       1.0  0.7535432860955842  0.7206598416283273  0.45611325324394825  1.0000
  H   H11       1.0  0.9116289628205426  0.9122466347575184  0.6681114946871143  1.0000
  H   H12       1.0  0.8591043639565871  0.4711027835603212  0.597495373897899  1.0000
  H   H13       1.0  0.8169208649016176  0.9839301889489183  0.0005241526854462518  1.0000
  H   H14       1.0  0.8557492962588892  0.19254520277189327  0.8923909268762409  1.0000
  H   H15       1.0  0.8086990406155238  0.400595177418567  0.960725805565756  1.0000
  H   H16       1.0  0.7216435077434407  0.39927439951690014  0.13831113766228964  1.0000
  H   H17       1.0  0.6812628425174749  0.19297019840639118  0.24739315111249693  1.0000
  C   C27       1.0  0.8363968006179149  0.41997167591173085  0.18610348016977252  1.0000
  C   C28       1.0  0.9091088040045302  0.4345118049142789  0.18372123962728026  1.0000
  C   C29       1.0  0.9456950499042455  0.4433166257722827  0.06523210754901454  1.0000
  C   C30       1.0  0.9089424065020992  0.4344482255718967  0.9484824101071284  1.0000
  C   C31       1.0  0.8362677918979039  0.4197969387128222  0.9488685089800032  1.0000
  C   C32       1.0  0.8003958624416009  0.41298442073790875  0.0681852311192106  1.0000
  C   C33       1.0  0.02255536400725333  0.45731167057328004  0.06268144284418908  1.0000
  O   O2        1.0  0.05669717072438463  0.40372574249307636  0.9768219560719427  1.0000
  C   C34       1.0  0.060680575974290774  0.5321118937168725  0.1574516329737079  1.0000
  C   C35       1.0  0.1285880055081332  0.49529009535512536  0.1955997152461948  1.0000
  C   C36       1.0  0.16578148539257276  0.5654756387026942  0.2838050287590219  1.0000
  O   O3        1.0  0.23312266595682446  0.5234816594277898  0.31908154368726027  1.0000
  C   C37       1.0  0.2767468120952661  0.5852651663753186  0.4074737208267066  1.0000
  C   C38       1.0  0.13468291707935157  0.6748877521708689  0.33373821426949335  1.0000
  C   C39       1.0  0.06758844586520385  0.7130410956289155  0.2950795965734805  1.0000
  C   C40       1.0  0.030796691307743988  0.6426219318676611  0.2071152178804836  1.0000
  H   H18       1.0  0.6992989547902054  0.39054541357728567  0.39807472815492884  1.0000
  H   H19       1.0  0.9374601743244342  0.4375559898453502  0.2743079676795681  1.0000
  H   H20       1.0  0.9371336778413416  0.4402556106041029  0.8570846050876022  1.0000
  H   H21       1.0  0.7443402201099807  0.40177419237168754  0.0692180489860954  1.0000
  H   H22       1.0  0.8084149021517268  0.41308522364380235  0.6216437550034617  1.0000
  H   H23       1.0  0.1527139455180071  0.41095809752673973  0.15770689630242396  1.0000
  H   H24       1.0  0.3268439520499897  0.5318375535253204  0.4174173026869312  1.0000
  H   H25       1.0  0.2516104372032115  0.5835063843381318  0.5047125746478744  1.0000
  H   H26       1.0  0.2874662352976918  0.6872287460517468  0.36982256225679366  1.0000
  H   H27       1.0  0.16197050060590423  0.7312666995134045  0.40193120082798384  1.0000
  H   H28       1.0  0.04411634200316562  0.7978609410062519  0.3330012916952416  1.0000
  H   H29       1.0  0.9793278053783816  0.6754263255666655  0.1769039144143687  1.0000
  Zn  Zn1       1.0  0.7600580828926236  0.4200124456036649  0.5675011457249941  1.0000
  Zn  Zn2       1.0  0.9125998539371114  0.4197555681188984  0.5674702922912993  1.0000
  C   C41       1.0  0.8362897366454626  0.4146575308359768  0.8046890013204551  1.0000
  C   C42       1.0  0.8363698661973497  0.4251121182825899  0.330282564026557  1.0000
  C   C43       1.0  0.8363705923365092  0.6570212799224475  0.5623391240324627  1.0000
  C   C44       1.0  0.8362889581730467  0.18274680933601317  0.5726325103789451  1.0000
  O   O4        1.0  0.8942496329136861  0.4267341496386208  0.37865867226391003  1.0000
  O   O5        1.0  0.8941856444694529  0.41283955600863775  0.7562891020638727  1.0000
  O   O6        1.0  0.8942501558653374  0.6085513495086975  0.5605898618081124  1.0000
  O   O7        1.0  0.8941850694837021  0.23102236553653707  0.5743578151531676  1.0000
  O   O8        1.0  0.7784728152910143  0.6087456482751008  0.5606136228668233  1.0000
  O   O9        1.0  0.7784083041733669  0.4130354147242217  0.7563127940618848  1.0000
  O   O10       1.0  0.7784722929201489  0.4269299634665918  0.3786808028000255  1.0000
  O   O11       1.0  0.7784077294692455  0.23121817005560666  0.5743800430594834  1.0000
