data_image0
_chemical_formula_structural       NC12NC2H8C7OC3OC4H12C6SCOC6H10Zn2C4O8
_chemical_formula_sum              "N2 C45 H30 O11 S1 Zn2"
_cell_length_a       17.80743265337812
_cell_length_b       10.299371110280156
_cell_length_c       10.302041481415108
_cell_angle_alpha    85.5593769261431
_cell_angle_beta     91.53022125456708
_cell_angle_gamma    89.44795274300792

_space_group_name_H-M_alt    "P 1"
_space_group_IT_number       1

loop_
  _space_group_symop_operation_xyz
  'x, y, z'

loop_
  _atom_site_type_symbol
  _atom_site_label
  _atom_site_symmetry_multiplicity
  _atom_site_fract_x
  _atom_site_fract_y
  _atom_site_fract_z
  _atom_site_occupancy
  N   N1        1.0  0.7076501531000001  0.4071239258237977  0.6021424227282601  1.0000
  C   C1        1.0  0.6568363009347152  0.4367041791772881  0.5334698504887114  1.0000
  C   C2        1.0  0.5936188535156157  0.47349986605080385  0.4480498158743782  1.0000
  C   C3        1.0  0.6053564591986552  0.5275600893079389  0.3214781311351471  1.0000
  C   C4        1.0  0.5440460951538797  0.5628514359066665  0.2384530028259335  1.0000
  C   C5        1.0  0.47084387689005114  0.5443462297215268  0.281339901377778  1.0000
  C   C6        1.0  0.4581294682744541  0.4901670577051387  0.4083795789387754  1.0000
  C   C7        1.0  0.5202971493347562  0.45487897014516543  0.4913882005156489  1.0000
  C   C8        1.0  0.3803588109830209  0.4705468320681061  0.454125721793673  1.0000
  C   C9        1.0  0.3615729715410034  0.4976939932070061  0.5811500700452394  1.0000
  C   C10       1.0  0.2883408116117191  0.4792303479628099  0.6240775365387736  1.0000
  C   C11       1.0  0.2329514659234221  0.43336500961728874  0.5408183407762601  1.0000
  C   C12       1.0  0.1575825911199909  0.4143481032862826  0.5851462180981652  1.0000
  N   N2        1.0  0.0969913530824076  0.3990597895945608  0.6207827819929836  1.0000
  C   C13       1.0  0.2510457757274541  0.4060487674495654  0.4143367775907336  1.0000
  C   C14       1.0  0.3242250892758288  0.42452727728035494  0.37115348850994634  1.0000
  H   H1        1.0  0.6618249688934456  0.5423945553463412  0.2870542611491158  1.0000
  H   H2        1.0  0.5532522172412363  0.6049788773695537  0.14071120255629133  1.0000
  H   H3        1.0  0.424210104233348  0.5740021322878737  0.21577458140521769  1.0000
  H   H4        1.0  0.5117892374938656  0.4113662525165975  0.5890051040127957  1.0000
  H   H5        1.0  0.403252385368292  0.5348531802159893  0.6467208682943042  1.0000
  H   H6        1.0  0.2748976493635998  0.5010457383740519  0.7220712822862239  1.0000
  H   H7        1.0  0.2086496331304925  0.3701567404962587  0.3491792772735025  1.0000
  H   H8        1.0  0.33713965403193025  0.40117623929497137  0.27346247589679096  1.0000
  C   C15       1.0  0.9022737040814919  0.021721484012414246  0.6113455526552496  1.0000
  C   C16       1.0  0.8936229076863816  0.03123686715530516  0.47497744906015105  1.0000
  C   C17       1.0  0.8884110757076243  0.9188667604649213  0.40632467308376  1.0000
  C   C18       1.0  0.8936601857453125  0.7959681026209501  0.475290248467668  1.0000
  C   C19       1.0  0.9023749988445532  0.7844521205406523  0.6115911993436141  1.0000
  C   C20       1.0  0.9064346375375566  0.8979313305298532  0.6788584143101744  1.0000
  C   C21       1.0  0.8800599118714311  0.9287701384753563  0.2622107787833958  1.0000
  O   O1        1.0  0.9108580788656887  0.8431164902020557  0.19967702345390337  1.0000
  C   C22       1.0  0.8367614207460847  0.03576161872113848  0.18904326038994324  1.0000
  C   C23       1.0  0.8577651159103844  0.08053233476323385  0.06293543600404172  1.0000
  C   C24       1.0  0.8171327504881092  0.180412148083948  0.9916252047090843  1.0000
  O   O2        1.0  0.8411229310863128  0.22176798890295446  0.8667048340444623  1.0000
  C   C25       1.0  0.8053157095636906  0.3220240199731248  0.7835741879466798  1.0000
  C   C26       1.0  0.754110505731125  0.23555524475189382  0.04708259765272671  1.0000
  C   C27       1.0  0.7323355792049714  0.19051120993425893  0.17163678696168172  1.0000
  C   C28       1.0  0.7731012922898273  0.09091020592145016  0.24220139731269172  1.0000
  H   H9        1.0  0.9197450933645646  0.21108074820652245  0.8685162090752889  1.0000
  H   H10       1.0  0.8917647097971322  0.12622887492021292  0.4218709251345303  1.0000
  H   H11       1.0  0.8902080719483328  0.7091982302793963  0.42241461119765594  1.0000
  H   H12       1.0  0.9131042512299947  0.8897918560978743  0.7839882533289737  1.0000
  H   H13       1.0  0.9063477333493216  0.45256800266487174  0.6638563251279732  1.0000
  H   H14       1.0  0.9063404866847594  0.03864653004100282  0.019898617089449507  1.0000
  H   H15       1.0  0.8359652952875491  0.3345141545288066  0.6911922186539359  1.0000
  H   H16       1.0  0.8064207347769113  0.41544090345005696  0.8306353732169688  1.0000
  H   H17       1.0  0.7464414838640733  0.2950172202031869  0.7609958043337008  1.0000
  H   H18       1.0  0.7214804272684321  0.31274863441387085  0.9946435790416595  1.0000
  H   H19       1.0  0.6834763223614363  0.23256473904312888  0.2134385622761783  1.0000
  H   H20       1.0  0.7543568144431454  0.05611549842937657  0.3376605586506318  1.0000
  C   C29       1.0  0.902338450162843  0.4032157749314322  0.23018205271272074  1.0000
  C   C30       1.0  0.9367958892689836  0.525601098829058  0.2209576432671594  1.0000
  C   C31       1.0  0.9542749421514938  0.5859654702370201  0.09942833916146387  1.0000
  C   C32       1.0  0.9368671359077575  0.5251957586493052  0.9858555148883505  1.0000
  C   C33       1.0  0.9023102677777185  0.40295779855551994  0.992754712723419  1.0000
  C   C34       1.0  0.8852802325255261  0.34254557136833097  0.11549892861260891  1.0000
  S   S1        1.0  0.9989640853788091  0.7415735210548053  0.08909478310223662  1.0000
  C   C35       1.0  0.0914989019659127  0.6698558771241732  0.09607140950628268  1.0000
  O   O3        1.0  0.12089660783071343  0.6460741172040956  0.9904112899488324  1.0000
  C   C36       1.0  0.13290337085299253  0.6376554621765798  0.2215683275893232  1.0000
  C   C37       1.0  0.19953842032165525  0.5625515744787846  0.22492758436468407  1.0000
  C   C38       1.0  0.23869024758751078  0.5308437550190741  0.34274436004711073  1.0000
  C   C39       1.0  0.2120044169800519  0.5737442078398969  0.45841767423354773  1.0000
  C   C40       1.0  0.14617678662271216  0.6486725605172473  0.45647729057330855  1.0000
  C   C41       1.0  0.10680077177076774  0.6807591598911746  0.338949305651397  1.0000
  H   H21       1.0  0.83727963456723  0.1726562864100491  0.4548714607410358  1.0000
  H   H22       1.0  0.9502981188568066  0.5742494539661267  0.307933863292732  1.0000
  H   H23       1.0  0.9506877482908299  0.5735059874745907  0.892561173183839  1.0000
  H   H24       1.0  0.8587177469926666  0.248194954305909  0.12168981950435498  1.0000
  H   H25       1.0  0.8893768612182682  0.3563088126589231  0.6680614298543253  1.0000
  H   H26       1.0  0.221234620285919  0.5276441287240381  0.13663679393752637  1.0000
  H   H27       1.0  0.28974998866991286  0.47280143855570045  0.3443239195210057  1.0000
  H   H28       1.0  0.2423802716876566  0.5490637633685  0.5495264422523409  1.0000
  H   H29       1.0  0.12564695295078132  0.6821688036024054  0.5461775228057186  1.0000
  H   H30       1.0  0.056311271917296915  0.7397317269127451  0.3406246032730078  1.0000
  Zn  Zn1       1.0  0.8200056157834872  0.4047933204781828  0.607529111952325  1.0000
  Zn  Zn2       1.0  0.9846358861065158  0.4013797978598581  0.6154066801141012  1.0000
  C   C42       1.0  0.9023132122267115  0.3978329152836966  0.8486103788177389  1.0000
  C   C43       1.0  0.9023300876336127  0.40834180436122836  0.37432562723803  1.0000
  C   C44       1.0  0.9023521701112354  0.6402816159696785  0.6063705160242667  1.0000
  C   C45       1.0  0.9022910733625225  0.16589154450836285  0.6165655560645933  1.0000
  O   O4        1.0  0.9648036099497487  0.4087610668587338  0.4256910218550496  1.0000
  O   O5        1.0  0.964790255684322  0.39482188850278166  0.803223502080415  1.0000
  O   O6        1.0  0.9648208724080225  0.5906022974951239  0.6076130591219142  1.0000
  O   O7        1.0  0.9647729370537232  0.2129806683543829  0.621301364774884  1.0000
  O   O8        1.0  0.8398685086560486  0.5931924511499422  0.601634424596486  1.0000
  O   O9        1.0  0.8398378921386833  0.397413602490767  0.7972447988268383  1.0000
  O   O10       1.0  0.8398512465058047  0.41135273611761497  0.4197107575267876  1.0000
  O   O11       1.0  0.8398205736018731  0.21557232829155604  0.6153211977902315  1.0000
