data_image0
_chemical_formula_structural       NC8NH4C9H8C6BrH4Zn2C4O8
_chemical_formula_sum              "N2 C27 H16 Br1 Zn2 O8"
_cell_length_a       13.859017124695912
_cell_length_b       9.275152443626249
_cell_length_c       9.27656775626242
_cell_angle_alpha    85.92079402595407
_cell_angle_beta     90.18619718657982
_cell_angle_gamma    90.57357307376715

_space_group_name_H-M_alt    "P 1"
_space_group_IT_number       1

loop_
  _space_group_symop_operation_xyz
  'x, y, z'

loop_
  _atom_site_type_symbol
  _atom_site_label
  _atom_site_symmetry_multiplicity
  _atom_site_fract_x
  _atom_site_fract_y
  _atom_site_fract_z
  _atom_site_occupancy
  N   N1        1.0  0.9155930396216784  0.5631689704740748  0.4052503559083127  1.0000
  C   C1        1.0  0.842959703657004  0.5397531833560577  0.3491866301412155  1.0000
  C   C2        1.0  0.7526081681944945  0.5106273609618801  0.2794505592321008  1.0000
  C   C3        1.0  0.6653310897344049  0.5390220746922714  0.3474344521004511  1.0000
  C   C4        1.0  0.5773778552425104  0.5106285814658802  0.2794499759195672  1.0000
  C   C5        1.0  0.576884011119638  0.4538326678017747  0.1434607352361481  1.0000
  C   C6        1.0  0.6639798297357581  0.4255470915309727  0.07573853112422846  1.0000
  C   C7        1.0  0.7517493569070562  0.4538303292060777  0.14346192125312096  1.0000
  C   C8        1.0  0.4877198700254107  0.5397541052995437  0.349186129113172  1.0000
  N   N2        1.0  0.415644166885586  0.5631692910616699  0.4052501388661593  1.0000
  H   H1        1.0  0.6658545455727818  0.5829843106419241  0.4526933795240877  1.0000
  H   H2        1.0  0.5093224706856015  0.43148493427492585  0.08994996246229373  1.0000
  H   H3        1.0  0.6634575050397437  0.38167463765598647  0.9706927682173534  1.0000
  H   H4        1.0  0.818778662395138  0.4314805041308818  0.08995215458253591  1.0000
  C   C9        1.0  0.16278013924317736  0.13955126260935535  0.4067212696529129  1.0000
  C   C10       1.0  0.12769799303554308  0.2210912939577786  0.28431280348779475  1.0000
  C   C11       1.0  0.10157978811849944  0.15442813105898653  0.15961254166769084  1.0000
  C   C12       1.0  0.11013247868043674  0.005039551902760171  0.15485171759025462  1.0000
  C   C13       1.0  0.1433254779804043  0.9218012363930485  0.27622567425907896  1.0000
  C   C14       1.0  0.16846625954365724  0.9867760817607834  0.40379170724111346  1.0000
  C   C15       1.0  0.08370122727848649  0.9366247749693775  0.025716753636794158  1.0000
  C   C16       1.0  0.061571208329998635  0.8793099571331344  0.9175864682516118  1.0000
  C   C17       1.0  0.03472079925787419  0.8097565621173999  0.7863893308505374  1.0000
  H   H5        1.0  0.30207178951065017  0.22402222108745645  0.6944785859516469  1.0000
  H   H6        1.0  0.12261423640699753  0.3376043357090849  0.2838595780497879  1.0000
  H   H7        1.0  0.07557280142015421  0.21975356173580904  0.06629488636255365  1.0000
  H   H8        1.0  0.14737897302263203  0.8054518269203467  0.2722061948714414  1.0000
  H   H9        1.0  0.25916092538520563  0.6934051296352228  0.6006080521867336  1.0000
  H   H10       1.0  0.05239019518103394  0.6931666324328672  0.7998500955795933  1.0000
  H   H11       1.0  0.9561430742346713  0.8221458059728277  0.7666640403975703  1.0000
  H   H12       1.0  0.07525965076824082  0.8611913238063581  0.6931242623502136  1.0000
  C   C18       1.0  0.16467436051099082  0.559018058209553  0.9821440894515763  1.0000
  C   C19       1.0  0.07916376271944237  0.5937457802070005  0.052634877619230705  1.0000
  C   C20       1.0  0.9980206206403872  0.6403561047905977  0.973772748978711  1.0000
  C   C21       1.0  0.0008644216638935565  0.6531827659125078  0.8232325522975903  1.0000
  C   C22       1.0  0.08447293132234068  0.6168967306767674  0.7510200908065539  1.0000
  C   C23       1.0  0.166572063046121  0.5673092994283867  0.8283689421864415  1.0000
  Br  Br1       1.0  0.8898130610319684  0.7181364347043142  0.7157577706371738  1.0000
  H   H13       1.0  0.29653372094214664  0.42799193298756144  0.2734312896505757  1.0000
  H   H14       1.0  0.933154171963154  0.6678599548851095  0.029995057971420994  1.0000
  H   H15       1.0  0.08437052726012717  0.624265486543593  0.6339441480803703  1.0000
  H   H16       1.0  0.3252338735606386  0.5524135089428204  0.5490256572151502  1.0000
  Zn  Zn1       1.0  0.059896989080088  0.5631652931041478  0.4052586315763136  1.0000
  Zn  Zn2       1.0  0.27134015731523675  0.5631613166667806  0.4052537214662362  1.0000
  C   C24       1.0  0.1661726067368301  0.559995206733487  0.6684341811427053  1.0000
  C   C25       1.0  0.16506686114430846  0.5663332245296618  0.14207830697107562  1.0000
  C   C26       1.0  0.16737361338219858  0.8265762730025841  0.39860385570016366  1.0000
  C   C27       1.0  0.16386577088842103  0.29975042585768413  0.4119087152254711  1.0000
  O   O1        1.0  0.2454401261043655  0.5687804587275878  0.19575184978783944  1.0000
  O   O2        1.0  0.2462798057714535  0.557543862189126  0.6147565006628711  1.0000
  O   O3        1.0  0.24724855549121427  0.7728114592785402  0.39686659861229967  1.0000
  O   O4        1.0  0.24447130406036677  0.3535128709004538  0.4136416437713955  1.0000
  O   O5        1.0  0.08676577017977527  0.7728137388733282  0.39687070926524526  1.0000
  O   O6        1.0  0.08579703191535004  0.5575478741896467  0.6147605284980551  1.0000
  O   O7        1.0  0.08495734809033317  0.5687844034856671  0.1957541454899021  1.0000
  O   O8        1.0  0.08398852621538944  0.35351680639910565  0.4136440475345651  1.0000
