data_image0
_chemical_formula_structural       NC9NC5H8C9H8C6FH3Zn2C4O8
_chemical_formula_sum              "N2 C33 H19 F1 Zn2 O8"
_cell_length_a       17.807436237873137
_cell_length_b       9.275152443626249
_cell_length_c       9.275646106892307
_cell_angle_alpha    84.75470407364851
_cell_angle_beta     89.39821068290671
_cell_angle_gamma    88.96355956710403

_space_group_name_H-M_alt    "P 1"
_space_group_IT_number       1

loop_
  _space_group_symop_operation_xyz
  'x, y, z'

loop_
  _atom_site_type_symbol
  _atom_site_label
  _atom_site_symmetry_multiplicity
  _atom_site_fract_x
  _atom_site_fract_y
  _atom_site_fract_z
  _atom_site_occupancy
  N   N1        1.0  0.7152320133854052  0.5582846090050462  0.39091663093123835  1.0000
  C   C1        1.0  0.654438236579835  0.519335196550009  0.378803257419416  1.0000
  C   C2        1.0  0.5788174600765897  0.4708864169918001  0.3637355358122969  1.0000
  C   C3        1.0  0.5602937135314815  0.39282100022548483  0.24731618777948958  1.0000
  C   C4        1.0  0.4868691866206872  0.3456581277369435  0.23259500473405192  1.0000
  C   C5        1.0  0.4309174893514077  0.37614178948058313  0.334258590508856  1.0000
  C   C6        1.0  0.3528868259124064  0.32614645052324276  0.3187045506103381  1.0000
  C   C7        1.0  0.291189700722149  0.41663360514907555  0.3472110310581418  1.0000
  C   C8        1.0  0.2176216918228691  0.3692450855821421  0.3325058534064431  1.0000
  C   C9        1.0  0.1548901710695531  0.4627168190640158  0.3614061717947614  1.0000
  N   N2        1.0  0.1044669826182917  0.5378616130743363  0.38464124337988226  1.0000
  C   C10       1.0  0.2051657604832841  0.23108321112109761  0.28926703807163795  1.0000
  C   C11       1.0  0.2660054339881878  0.14058077223131413  0.2607512878524205  1.0000
  C   C12       1.0  0.3394516853361654  0.18753353372741838  0.2752329179285047  1.0000
  C   C13       1.0  0.4501355485823  0.4547536279160655  0.45091964348887026  1.0000
  C   C14       1.0  0.5236118149343493  0.5017069024255909  0.4654685856503454  1.0000
  H   H1        1.0  0.6025460734795036  0.3687001500870484  0.1677028159431626  1.0000
  H   H2        1.0  0.4736309890723288  0.28702413236885665  0.1406482684133279  1.0000
  H   H3        1.0  0.300258130315006  0.524531295495585  0.37892104384632724  1.0000
  H   H4        1.0  0.1485012621110709  0.19340994074618156  0.27762595511891597  1.0000
  H   H5        1.0  0.25624322349638207  0.03360807879338634  0.2277038989675637  1.0000
  H   H6        1.0  0.385707446062757  0.11474593746320692  0.2543215075795053  1.0000
  H   H7        1.0  0.40859715342565067  0.47826048715353764  0.5319738527973539  1.0000
  H   H8        1.0  0.537385278582587  0.5617087738347708  0.5562528416514949  1.0000
  C   C15       1.0  0.9076377130534032  0.12454118832272343  0.38928821640526223  1.0000
  C   C16       1.0  0.8805253230967045  0.2100094897970255  0.26710170290285107  1.0000
  C   C17       1.0  0.8603940331456291  0.14695520844414744  0.14250681822824474  1.0000
  C   C18       1.0  0.8670589570913444  0.9973143710172386  0.1376301763562331  1.0000
  C   C19       1.0  0.8927025031851945  0.910246032366963  0.2588040424107456  1.0000
  C   C20       1.0  0.9120684060211564  0.9715934946996289  0.38628207451690244  1.0000
  C   C21       1.0  0.8466910671054522  0.932611667427624  0.008596609483791038  1.0000
  C   C22       1.0  0.8296377172454962  0.8784050469126997  0.9005512030328554  1.0000
  C   C23       1.0  0.808946847673894  0.8126228843089633  0.7694570452115754  1.0000
  H   H9        1.0  0.015602079200536243  0.1974568896258413  0.6758107244068308  1.0000
  H   H10       1.0  0.8765688989398781  0.3267394041140501  0.2667114652911242  1.0000
  H   H11       1.0  0.8402992664202983  0.21524520977299044  0.04934910956701599  1.0000
  H   H12       1.0  0.8958641146207725  0.79381300967409  0.2547265276951105  1.0000
  H   H13       1.0  0.9823503796376859  0.6705060356136608  0.5823112781171775  1.0000
  H   H14       1.0  0.8226790676213566  0.6950368809251632  0.782720081485845  1.0000
  H   H15       1.0  0.7478141644439511  0.8286235563730835  0.7506826503065254  1.0000
  H   H16       1.0  0.8406506333448522  0.8643032495711033  0.6755169332853579  1.0000
  C   C24       1.0  0.9097892584136376  0.5525860855744438  0.9639301093685874  1.0000
  C   C25       1.0  0.9786369088078135  0.5640517207710734  0.03482875995533763  1.0000
  C   C26       1.0  0.04648276686172559  0.56202383674183  0.9582838097489903  1.0000
  C   C27       1.0  0.046671742428692216  0.5483499461153805  0.8099518352964304  1.0000
  C   C28       1.0  0.9790135924823329  0.5392273389577313  0.7370937167589404  1.0000
  C   C29       1.0  0.9099168258202665  0.5435485848745063  0.8116402149280368  1.0000
  F   F1        1.0  0.11232312237457975  0.571594041059645  0.028612417278897958  1.0000
  H   H17       1.0  0.7350204776374528  0.4445500542712868  0.08030663555165062  1.0000
  H   H18       1.0  0.09934256048789813  0.5461898658585331  0.7507852115491067  1.0000
  H   H19       1.0  0.7916315293649248  0.476779292312707  0.5389542434241643  1.0000
  Zn  Zn1       1.0  0.8275567975015757  0.5523870361510561  0.3891140508242912  1.0000
  Zn  Zn2       1.0  0.9921421205958995  0.5437473028803088  0.3864557312421503  1.0000
  C   C30       1.0  0.9098610056797207  0.5395112742263266  0.6514252732347268  1.0000
  C   C31       1.0  0.9098397192244311  0.5566247887285183  0.12414461501149154  1.0000
  C   C32       1.0  0.9112261742432332  0.8115440722672345  0.3810986830041718  1.0000
  C   C33       1.0  0.9084744854472349  0.2845902600113787  0.394471289250808  1.0000
  O   O1        1.0  0.9723158937918757  0.5546951885258915  0.1769052705854961  1.0000
  O   O2        1.0  0.9723012773419737  0.5348824331788307  0.596646602974449  1.0000
  O   O3        1.0  0.9734028264669571  0.7545523861196635  0.37835597703525575  1.0000
  O   O4        1.0  0.9712142885427477  0.335025250004302  0.39519578917255327  1.0000
  O   O5        1.0  0.8484845733898407  0.7611090919770305  0.3803739937934443  1.0000
  O   O6        1.0  0.847383033313655  0.5414408726623976  0.5986645366234324  1.0000
  O   O7        1.0  0.8473976492894151  0.5612535962482492  0.17892146906459128  1.0000
  O   O8        1.0  0.8462960439995454  0.3415836462573844  0.39721209590334117  1.0000
