data_image0
_chemical_formula_structural       NC11NC3H8C12NCOCH13C12BrH9Zn2C4O8
_chemical_formula_sum              "N3 C44 H30 O9 Br1 Zn2"
_cell_length_a       17.807433833752565
_cell_length_b       10.299155265289649
_cell_length_c       10.299148005577397
_cell_angle_alpha    85.53595772847069
_cell_angle_beta     88.49799670841169
_cell_angle_gamma    90.66237101144993

_space_group_name_H-M_alt    "P 1"
_space_group_IT_number       1

loop_
  _space_group_symop_operation_xyz
  'x, y, z'

loop_
  _atom_site_type_symbol
  _atom_site_label
  _atom_site_symmetry_multiplicity
  _atom_site_fract_x
  _atom_site_fract_y
  _atom_site_fract_z
  _atom_site_occupancy
  N   N1        1.0  0.7074881575175197  0.4387859110057708  0.5341797568870575  1.0000
  C   C1        1.0  0.6566585377268505  0.40404718398680206  0.6007553253083004  1.0000
  C   C2        1.0  0.5934213667219952  0.3608350714735613  0.6835668368777801  1.0000
  C   C3        1.0  0.6051296794231267  0.2972627629418749  0.8063094979079024  1.0000
  C   C4        1.0  0.5438001424016202  0.255730869959377  0.886836493767468  1.0000
  C   C5        1.0  0.4706078427666753  0.27745790282305083  0.845261745769611  1.0000
  C   C6        1.0  0.45792282568807763  0.34118484003413174  0.7220588196108979  1.0000
  C   C7        1.0  0.3801627573069116  0.36424248548566346  0.6777029017161326  1.0000
  C   C8        1.0  0.36141750032319897  0.3473879486610969  0.5481198439087649  1.0000
  C   C9        1.0  0.2881952784479408  0.3690762573505073  0.5065010324639296  1.0000
  C   C10       1.0  0.23277538889770083  0.40793777079901505  0.5936448717163316  1.0000
  C   C11       1.0  0.15741666459861053  0.4302847862556636  0.5506645098666118  1.0000
  N   N2        1.0  0.0968336232335862  0.4482501264922041  0.5161114270508629  1.0000
  C   C12       1.0  0.2508291780138025  0.4250029757915066  0.7226967081644124  1.0000
  C   C13       1.0  0.3239985776092619  0.40327969768625255  0.7645709728239365  1.0000
  C   C14       1.0  0.5201096712124409  0.38271216539707975  0.6415482417477367  1.0000
  H   H1        1.0  0.6615903821020412  0.2798422832537859  0.8396816627566472  1.0000
  H   H2        1.0  0.5529837940922923  0.20626155039848063  0.9815914462237022  1.0000
  H   H3        1.0  0.42395922321793844  0.2428903680622656  0.9087138079697206  1.0000
  H   H4        1.0  0.4031211596907259  0.3157540140097572  0.47940808873732266  1.0000
  H   H5        1.0  0.27478356806370446  0.35520914441856055  0.4064646635782243  1.0000
  H   H6        1.0  0.208409141372021  0.4554138783407275  0.7908939992464803  1.0000
  H   H7        1.0  0.336881564858334  0.418692347594011  0.8644241558291227  1.0000
  H   H8        1.0  0.511624135088153  0.4335438927354896  0.547027247170031  1.0000
  C   C15       1.0  0.9022483576268023  0.06212263916223205  0.525260220241246  1.0000
  C   C16       1.0  0.8894513563422982  0.07154277710046508  0.39092275352668304  1.0000
  C   C17       1.0  0.8828902789332335  0.9591795615491762  0.3226964738193241  1.0000
  C   C18       1.0  0.8892718077363518  0.8362787140404293  0.3906232870027673  1.0000
  C   C19       1.0  0.9020806264709186  0.8249036107320783  0.5250417995898368  1.0000
  C   C20       1.0  0.9084933878775818  0.9383411667197253  0.5915325745248103  1.0000
  C   C21       1.0  0.8693535241986878  0.9701186218845027  0.18058361216016477  1.0000
  C   C22       1.0  0.9074754674018204  0.06517497218745683  0.0973931761026301  1.0000
  C   C23       1.0  0.8947426710084896  0.0753386216836518  0.96365521624513  1.0000
  C   C24       1.0  0.844100513738387  0.989778141866413  0.9102522671111912  1.0000
  C   C25       1.0  0.8050609201693124  0.8965157865969255  0.9934171260640561  1.0000
  C   C26       1.0  0.8178210889203195  0.886096791655827  0.12711647848317353  1.0000
  N   N3        1.0  0.8289509360987999  0.9996825974868325  0.7733879871752111  1.0000
  C   C27       1.0  0.8838325468055581  0.03797581568828944  0.6726188872766765  1.0000
  O   O1        1.0  0.9527454314530326  0.04217884224966116  0.6972805288619127  1.0000
  C   C28       1.0  0.8599028426846231  0.06387281226883036  0.5351831898966752  1.0000
  H   H9        1.0  0.9071939524746964  0.3859760062497726  0.5769253793515523  1.0000
  H   H10       1.0  0.8835213925109923  0.1664556667291368  0.3393859461174229  1.0000
  H   H11       1.0  0.8852446446079356  0.7493938671185957  0.33817932779732296  1.0000
  H   H12       1.0  0.918366511601993  0.9303604139492194  0.6951493070840675  1.0000
  H   H13       1.0  0.9267064924595356  0.5961613472270031  0.7785980083543428  1.0000
  H   H14       1.0  0.9475811043030227  0.13118898697884696  0.13562613854110794  1.0000
  H   H15       1.0  0.9235796346728677  0.15150895459474545  0.9027338274011859  1.0000
  H   H16       1.0  0.7648834185743438  0.831204275005479  0.9543204231987695  1.0000
  H   H17       1.0  0.7865698743228304  0.8134839293508582  0.18898289101109378  1.0000
  H   H18       1.0  0.7760452109809952  0.9695351468337535  0.7447683267125309  1.0000
  H   H19       1.0  0.8056736673850091  0.1160013044040409  0.5332459636736249  1.0000
  H   H20       1.0  0.8529631254478006  0.9701049089200321  0.4902791118430967  1.0000
  H   H21       1.0  0.9026857340280193  0.12501681465775683  0.47779994750003546  1.0000
  C   C29       1.0  0.9022668678561448  0.44356764059112713  0.14375805700206068  1.0000
  C   C30       1.0  0.8315881738636194  0.5026340049163167  0.14158298709075323  1.0000
  C   C31       1.0  0.7956467948131296  0.5325260738365025  0.02334683856827069  1.0000
  C   C32       1.0  0.8313374539503572  0.5025550998924158  0.9063176089412956  1.0000
  C   C33       1.0  0.9020620776141861  0.4434585828479991  0.9065439449979974  1.0000
  C   C34       1.0  0.9370911443638893  0.4143267708655867  0.025708025954475078  1.0000
  C   C35       1.0  0.7208778032039782  0.5950131039299003  0.022090767861667533  1.0000
  C   C36       1.0  0.7050748995322228  0.6959544066494734  0.10287209793779241  1.0000
  C   C37       1.0  0.6346684092225146  0.7546565025033196  0.1014966676784752  1.0000
  C   C38       1.0  0.5792644899887042  0.7133630092109768  0.019714998875626662  1.0000
  C   C39       1.0  0.5943126646783072  0.6131902857080418  0.93911599483828  1.0000
  C   C40       1.0  0.664655332540342  0.5542646562062457  0.9401019142752919  1.0000
  Br  Br1       1.0  0.483133410555427  0.7937031765385903  0.018101402495727333  1.0000
  H   H22       1.0  0.9294682686533959  0.42090123326142015  0.47206544385013105  1.0000
  H   H23       1.0  0.8038612405823495  0.523907919429704  0.23220271445959884  1.0000
  H   H24       1.0  0.8043515136313762  0.5269959859315207  0.814746029508385  1.0000
  H   H25       1.0  0.9916084717112758  0.36877137501574064  0.026669618236686787  1.0000
  H   H26       1.0  0.03576070502939177  0.33265739532767236  0.6996123001080643  1.0000
  H   H27       1.0  0.7474575711457266  0.7306043015264376  0.16580285316813217  1.0000
  H   H28       1.0  0.6233062770781701  0.8324525589271914  0.16380530164163565  1.0000
  H   H29       1.0  0.5514851013457042  0.5806817256378296  0.875898246483164  1.0000
  H   H30       1.0  0.6747605119528568  0.4757487022940312  0.8780529102406525  1.0000
  Zn  Zn1       1.0  0.8198448471518023  0.4415136032059435  0.528973113179459  1.0000
  Zn  Zn2       1.0  0.9844769183323318  0.44551181244723814  0.5213286604803746  1.0000
  C   C41       1.0  0.9021002586895583  0.43830511077118306  0.762362666169295  1.0000
  C   C42       1.0  0.902223304177049  0.44872198725773194  0.28793915101863  1.0000
  C   C43       1.0  0.9021098328790649  0.6807223879724253  0.5199077809267802  1.0000
  C   C44       1.0  0.9022136741347124  0.20630314827109486  0.530394108559443  1.0000
  O   O2        1.0  0.9646856980802874  0.45196346651902863  0.3334266149436065  1.0000
  O   O3        1.0  0.9645897978013712  0.43809720007452585  0.7110728659372401  1.0000
  O   O4        1.0  0.964596686497915  0.6338521965524133  0.5152888694165407  1.0000
  O   O5        1.0  0.9646787532300694  0.2562084779816163  0.5292105166893717  1.0000
  O   O6        1.0  0.8396429560732199  0.6308169363085878  0.5210912595723065  1.0000
  O   O7        1.0  0.8396360670486619  0.4350635002531174  0.7168751863965517  1.0000
  O   O8        1.0  0.8397319678066972  0.4489297216629878  0.33922737391441915  1.0000
  O   O9        1.0  0.8397250229293093  0.2531747238221227  0.5350113730369632  1.0000
