data_image0
_chemical_formula_structural       NC8NC6H8C7ONH7C7F3H5Zn2C4O8
_chemical_formula_sum              "N3 C32 H20 O9 F3 Zn2"
_cell_length_a       17.457602349358154
_cell_length_b       10.297852080636378
_cell_length_c       9.272721663655245
_cell_angle_alpha    85.87639669813234
_cell_angle_beta     93.38388695232669
_cell_angle_gamma    91.66731456120219

_space_group_name_H-M_alt    "P 1"
_space_group_IT_number       1

loop_
  _space_group_symop_operation_xyz
  'x, y, z'

loop_
  _atom_site_type_symbol
  _atom_site_label
  _atom_site_symmetry_multiplicity
  _atom_site_fract_x
  _atom_site_fract_y
  _atom_site_fract_z
  _atom_site_occupancy
  N   N1        1.0  0.7148009197939774  0.44516267252567854  0.4742740045129728  1.0000
  C   C1        1.0  0.6536763250678705  0.39916883765986344  0.46248314948808966  1.0000
  C   C2        1.0  0.5776347957693928  0.34195827733331385  0.44782592497860235  1.0000
  C   C3        1.0  0.5194962942940712  0.3825578770021911  0.5310218561262023  1.0000
  C   C4        1.0  0.44489566437996075  0.327469462810964  0.5170471001025934  1.0000
  C   C5        1.0  0.38318932633026237  0.37033803394734743  0.6051547498075361  1.0000
  C   C6        1.0  0.3083418218535791  0.3884884259494126  0.5432117063605564  1.0000
  C   C7        1.0  0.25020393173492034  0.42890469157673183  0.6265275580772492  1.0000
  C   C8        1.0  0.1739063471029836  0.44764828134097734  0.5621235466546654  1.0000
  N   N2        1.0  0.11257600773937167  0.4627117476414888  0.5103428894198991  1.0000
  C   C9        1.0  0.2664240384960561  0.4514166739176313  0.7723513125629844  1.0000
  C   C10       1.0  0.34048881901243777  0.43365756354048135  0.8347248932214748  1.0000
  C   C11       1.0  0.39861750242276545  0.3934240167272274  0.7519174775087176  1.0000
  C   C12       1.0  0.4297146984636989  0.2310956695890869  0.4182847312499156  1.0000
  C   C13       1.0  0.4878435515567066  0.19077709824506717  0.33553311994769563  1.0000
  C   C14       1.0  0.5616623195587991  0.24598107243047296  0.3501187618825592  1.0000
  H   H1        1.0  0.53217893183662  0.45814808802742196  0.6050338717284764  1.0000
  H   H2        1.0  0.2954568681825598  0.3729283561450547  0.4298824522201429  1.0000
  H   H3        1.0  0.22186967389397072  0.4826432044484802  0.8377058540521571  1.0000
  H   H4        1.0  0.35285774021373884  0.4507733995072242  0.9476394864673773  1.0000
  H   H5        1.0  0.4553517985512343  0.37869518770463395  0.803133292324328  1.0000
  H   H6        1.0  0.3731830629452766  0.18569139131453416  0.4064537421411045  1.0000
  H   H7        1.0  0.47566810452487673  0.11629663260783585  0.2601899705173423  1.0000
  H   H8        1.0  0.6062196358590435  0.2138876443192539  0.28533200456852637  1.0000
  C   C15       1.0  0.9137739937434737  0.07250386617466306  0.49232480880207197  1.0000
  C   C16       1.0  0.902547327270282  0.08079696592496277  0.34067104884241006  1.0000
  C   C17       1.0  0.8961773851756972  0.9678798795009832  0.2638317857061798  1.0000
  C   C18       1.0  0.9023530486818357  0.8455359381681675  0.3406036876436864  1.0000
  C   C19       1.0  0.9136103016802806  0.8353609174523119  0.4923051714118574  1.0000
  C   C20       1.0  0.9190656504335512  0.949348216908491  0.5671922119542516  1.0000
  C   C21       1.0  0.8845100564794898  0.9792480053018218  0.10365294491548904  1.0000
  O   O1        1.0  0.9046716451719483  0.08288528597306799  0.033676093442595485  1.0000
  N   N3        1.0  0.8498620573672591  0.87553981165592  0.026063817173672458  1.0000
  H   H9        1.0  0.9352699964830722  0.26411522839889434  0.7788991676319317  1.0000
  H   H10       1.0  0.8980638306331467  0.17543708665615743  0.2821401631185818  1.0000
  H   H11       1.0  0.8999046469572194  0.7579404695356169  0.2825490496644223  1.0000
  H   H12       1.0  0.9277162671839816  0.9422029882616741  0.6840734754794309  1.0000
  H   H13       1.0  0.9361148004656964  0.6089269607069809  0.7788395822690606  1.0000
  H   H14       1.0  0.8454548412673601  0.8838565768828399  0.9130014021030748  1.0000
  H   H15       1.0  0.8239158723880909  0.7945345477532628  0.07911741901441305  1.0000
  C   C22       1.0  0.9116618149288028  0.4517360527528595  0.06868770031323956  1.0000
  C   C23       1.0  0.9443512829274516  0.3469341656703672  0.15437486797267666  1.0000
  C   C24       1.0  0.9837663698411184  0.2501552477329265  0.09204450047229185  1.0000
  C   C25       1.0  0.9881407211312508  0.25632961999968673  0.9412912956993784  1.0000
  C   C26       1.0  0.9549969467443667  0.3584070923328903  0.854594647923034  1.0000
  C   C27       1.0  0.915722527252123  0.4561287519756451  0.9159423136625647  1.0000
  C   C28       1.0  0.01663927273568611  0.13677106371686532  0.1853733716173305  1.0000
  F   F1        1.0  0.04247959913254795  0.17566256569108377  0.31994919926546195  1.0000
  F   F2        1.0  0.07783256432182406  0.08574383141962039  0.12180258844439518  1.0000
  F   F3        1.0  0.9603092839796117  0.04078955136231155  0.20330184957893252  1.0000
  H   H16       1.0  0.8629428780571222  0.7588959726587996  0.14048750338477922  1.0000
  H   H17       1.0  0.9405197938341535  0.34215046299168494  0.2708731038234582  1.0000
  H   H18       1.0  0.01652646756597999  0.181278945180408  0.8899578324129709  1.0000
  H   H19       1.0  0.9582858502471053  0.35896762414714783  0.7382382544269075  1.0000
  H   H20       1.0  0.7779372896467422  0.6691327301112242  0.7821562092373329  1.0000
  Zn  Zn1       1.0  0.8295902584604284  0.45022351641514663  0.48469103500817634  1.0000
  Zn  Zn2       1.0  0.9977867137136435  0.45764031536211686  0.4999376698855931  1.0000
  C   C29       1.0  0.9149543478374684  0.4501237904113553  0.7557930436356031  1.0000
  C   C30       1.0  0.9124244613636678  0.4577417619883761  0.22883596929951835  1.0000
  C   C31       1.0  0.9136097638457319  0.6911347180642597  0.4865599513622357  1.0000
  C   C32       1.0  0.913768988665129  0.2167292716364959  0.4980691333211009  1.0000
  O   O2        1.0  0.9765100918952042  0.4625663027168643  0.2883692099667594  1.0000
  O   O3        1.0  0.9785259332619944  0.4509274464290922  0.7078312308115109  1.0000
  O   O4        1.0  0.9774393114187004  0.6455467883423202  0.49042352589787336  1.0000
  O   O5        1.0  0.977596655824041  0.2679469670037913  0.5057768015130375  1.0000
  O   O6        1.0  0.8497802589527993  0.6399168622438576  0.47885189817021573  1.0000
  O   O7        1.0  0.8508668800891362  0.44529908049999034  0.6962595261251215  1.0000
  O   O8        1.0  0.8488510304704571  0.45693788253412904  0.2767957708711153  1.0000
  O   O9        1.0  0.8499375949165189  0.262318538091286  0.4942034705742364  1.0000
