data_image0
_chemical_formula_structural       NC14NH8C12H10C12H10Zn2C4O8
_chemical_formula_sum              "N2 C42 H28 Zn2 O8"
_cell_length_a       17.45760127107867
_cell_length_b       14.38812564980172
_cell_length_c       14.388129018870245
_cell_angle_alpha    85.39543532843052
_cell_angle_beta     87.6665703364548
_cell_angle_gamma    91.08635631298789

_space_group_name_H-M_alt    "P 1"
_space_group_IT_number       1

loop_
  _space_group_symop_operation_xyz
  'x, y, z'

loop_
  _atom_site_type_symbol
  _atom_site_label
  _atom_site_symmetry_multiplicity
  _atom_site_fract_x
  _atom_site_fract_y
  _atom_site_fract_z
  _atom_site_occupancy
  N   N1        1.0  0.7273993172919021  0.057164252315090106  0.960221091378644  1.0000
  C   C1        1.0  0.6661961658220763  0.03149276692835957  0.9851480864642792  1.0000
  C   C2        1.0  0.5900568769062853  0.9995582073389001  0.016149063430364704  1.0000
  C   C3        1.0  0.5307677138559542  0.0023933233665829282  0.953263705052334  1.0000
  C   C4        1.0  0.4560705766871598  0.9716058566431514  0.9830367280190224  1.0000
  C   C5        1.0  0.44196623201850505  0.9379858842418963  0.07686223841131945  1.0000
  C   C6        1.0  0.5012400703923969  0.9352061334454259  0.13938638694386396  1.0000
  C   C7        1.0  0.5751458341304553  0.9658998773091749  0.10922408762726032  1.0000
  C   C8        1.0  0.39314487079875016  0.9745279557755792  0.9164896107081624  1.0000
  C   C9        1.0  0.3194445164396977  0.0027975503167310253  0.9440569924193642  1.0000
  C   C10       1.0  0.26015291412509817  0.005485046267400321  0.8811770212661072  1.0000
  C   C11       1.0  0.27406408793060705  0.9799036021808746  0.7903146164839476  1.0000
  C   C12       1.0  0.34697670835984407  0.9517622770696046  0.7623498401814417  1.0000
  C   C13       1.0  0.4062517056850177  0.9490510969971486  0.8248714273907258  1.0000
  C   C14       1.0  0.185047302752182  0.03479735036209372  0.9098904391234255  1.0000
  N   N2        1.0  0.1246752621754914  0.058360461594628876  0.9329785896869993  1.0000
  H   H1        1.0  0.5426636189083793  0.029703122219622003  0.8816108710036106  1.0000
  H   H2        1.0  0.385360299192911  0.912695764591976  0.10157719610784754  1.0000
  H   H3        1.0  0.48988022771603806  0.9089559575554145  0.21134511162333078  1.0000
  H   H4        1.0  0.6205963052044162  0.9633922462657085  0.15838458043282944  1.0000
  H   H5        1.0  0.30836560337324587  0.02389384502194858  0.013901837275822056  1.0000
  H   H6        1.0  0.22860174749549184  0.9817123739281662  0.7411802137350234  1.0000
  H   H7        1.0  0.3575558294840226  0.9317557797156795  0.6921187612446278  1.0000
  H   H8        1.0  0.46203918273185984  0.9258520182022071  0.8019674215120687  1.0000
  C   C15       1.0  0.9211835213877263  0.7856943881830795  0.9367063446585875  1.0000
  C   C16       1.0  0.8821285022785914  0.8175863921216578  0.8571903540747421  1.0000
  C   C17       1.0  0.8531757611249248  0.7543577449521226  0.7980662604700959  1.0000
  C   C18       1.0  0.8627454579934464  0.6587623244732466  0.8174041907254269  1.0000
  C   C19       1.0  0.9015338394162942  0.6251292577104856  0.8965360993275326  1.0000
  C   C20       1.0  0.911652177003444  0.5233914565915959  0.917216605985067  1.0000
  C   C21       1.0  0.9304272458889316  0.4663288537423129  0.8451496728925978  1.0000
  C   C22       1.0  0.9399815031493386  0.3705996510128217  0.8645966587908349  1.0000
  C   C23       1.0  0.9308983306302324  0.3298228731154329  0.9565005773517858  1.0000
  C   C24       1.0  0.9120723417988955  0.3867868794619915  0.028613692363550935  1.0000
  C   C25       1.0  0.9025796478870208  0.48252378238873217  0.009174343908569858  1.0000
  C   C26       1.0  0.9306175089585015  0.6892789462246045  0.9558389804014942  1.0000
  H   H9        1.0  0.012110738005298492  0.8655163449193358  0.1216266102821295  1.0000
  H   H10       1.0  0.8739225826529304  0.8913828384326634  0.8406375467075897  1.0000
  H   H11       1.0  0.8229982346082674  0.7795429181596579  0.7371182655019936  1.0000
  H   H12       1.0  0.8389147913153591  0.6110503280133415  0.7711437244008803  1.0000
  H   H13       1.0  0.9387406056644296  0.49593899093896915  0.7737723633717879  1.0000
  H   H14       1.0  0.9546795340329522  0.3286294250508367  0.807554567489811  1.0000
  H   H15       1.0  0.9666966286511702  0.1031103627323694  0.9179178546333193  1.0000
  H   H16       1.0  0.9044606304906273  0.3573833061531593  0.10014321218369582  1.0000
  H   H17       1.0  0.8871140578142925  0.5244142320687821  0.0660230115656194  1.0000
  H   H18       1.0  0.9615270398603457  0.6640259745926036  0.016221151454415494  1.0000
  C   C27       1.0  0.9227054080654349  0.06868675425211146  0.6731438639877427  1.0000
  C   C28       1.0  0.8958782731854925  0.1564928277707749  0.6938272209548861  1.0000
  C   C29       1.0  0.8760156339294014  0.2217606680772992  0.6222598806196313  1.0000
  C   C30       1.0  0.8826099174969245  0.20038975936012793  0.5293865978432688  1.0000
  C   C31       1.0  0.9092312562742887  0.11302619751171883  0.5069120946390944  1.0000
  C   C32       1.0  0.916170293722195  0.090198697456785  0.4080915424995637  1.0000
  C   C33       1.0  0.9448071004365184  0.15703427502780992  0.3380314980232386  1.0000
  C   C34       1.0  0.9513707321464024  0.13555919221547788  0.24504344649482562  1.0000
  C   C35       1.0  0.9293764340208278  0.04683054334870125  0.22006310327730816  1.0000
  C   C36       1.0  0.9006832892453182  0.9799613131853209  0.29003484927871437  1.0000
  C   C37       1.0  0.8941786715187409  0.0014143623294791076  0.38302863075152516  1.0000
  C   C38       1.0  0.929196389976677  0.04755070967232733  0.5794234301191914  1.0000
  H   H19       1.0  0.9851935023268014  0.8644632692148411  0.7790269917428747  1.0000
  H   H20       1.0  0.890219530242381  0.1747892724175938  0.765294331575405  1.0000
  H   H21       1.0  0.8552161102027174  0.2891199296144274  0.6388664689099322  1.0000
  H   H22       1.0  0.8659181120470589  0.25173420211602004  0.4752118822877316  1.0000
  H   H23       1.0  0.9631195254473518  0.22564940545351686  0.35530734671577213  1.0000
  H   H24       1.0  0.9738781437144396  0.1884988922047538  0.1927940741404317  1.0000
  H   H25       1.0  0.9698743375595862  0.07655519779098789  0.9850428742245828  1.0000
  H   H26       1.0  0.8830349011971642  0.9110306358028037  0.2729541375367823  1.0000
  H   H27       1.0  0.8709486268600845  0.9488465102924928  0.43520620972741253  1.0000
  H   H28       1.0  0.9507922136720364  0.9805786595398256  0.5626164109727896  1.0000
  Zn  Zn1       1.0  0.8420445920764456  0.05750675945167378  0.9523647709983722  1.0000
  Zn  Zn2       1.0  0.010029921769013185  0.05801007619590792  0.9408422275939419  1.0000
  C   C39       1.0  0.9280478791771081  0.04727092890784212  0.11654948394744147  1.0000
  C   C40       1.0  0.9240284910487835  0.06824707757130728  0.7766575227438703  1.0000
  C   C41       1.0  0.9290128281126296  0.22711930957304638  0.9490484872335638  1.0000
  C   C42       1.0  0.9230634655236934  0.8883975816336077  0.9441585325441253  1.0000
  O   O1        1.0  0.9882220147756866  0.06828648221359623  0.8070247600227809  1.0000
  O   O2        1.0  0.9913513180225191  0.047612841808953414  0.07743660934705276  1.0000
  O   O3        1.0  0.9921296789275623  0.1928426424193529  0.9421784633951242  1.0000
  O   O4        1.0  0.9874435958153012  0.923056690849341  0.9422828403254149  1.0000
  O   O5        1.0  0.8646308607049674  0.192460144627687  0.950924162194116  1.0000
  O   O6        1.0  0.8638525190643018  0.047231459119229297  0.08618229898688434  1.0000
  O   O7        1.0  0.8607232016357221  0.06790511198038485  0.815769328886264  1.0000
  O   O8        1.0  0.8599447834054885  0.922675311199432  0.9510274787654096  1.0000
