data_image0
_chemical_formula_structural       NC9NC5H8C12SCH12C12SCH12Zn2C4O8
_chemical_formula_sum              "N2 C44 H32 S2 Zn2 O8"
_cell_length_a       17.807436237873137
_cell_length_b       10.299776766347529
_cell_length_c       10.299780138516091
_cell_angle_alpha    85.57845135651907
_cell_angle_beta     89.38476460054898
_cell_angle_gamma    88.37162683502939

_space_group_name_H-M_alt    "P 1"
_space_group_IT_number       1

loop_
  _space_group_symop_operation_xyz
  'x, y, z'

loop_
  _atom_site_type_symbol
  _atom_site_label
  _atom_site_symmetry_multiplicity
  _atom_site_fract_x
  _atom_site_fract_y
  _atom_site_fract_z
  _atom_site_occupancy
  N   N1        1.0  0.7072684283715973  0.38733428868337205  0.5572201556443752  1.0000
  C   C1        1.0  0.6466883219206696  0.352141470360122  0.5461959178940665  1.0000
  C   C2        1.0  0.5713333278121929  0.30836547999695774  0.532482963132886  1.0000
  C   C3        1.0  0.5532635771798244  0.23692024670128006  0.4274828991820605  1.0000
  C   C4        1.0  0.4800977932930373  0.1943056135293877  0.41408587649262274  1.0000
  C   C5        1.0  0.4239531143246917  0.2227586756471633  0.5056564591081045  1.0000
  C   C6        1.0  0.3461967189524174  0.17758523586653796  0.49150096693110834  1.0000
  C   C7        1.0  0.2840030935607399  0.25934868107297016  0.5174406095160338  1.0000
  C   C8        1.0  0.2106950414731985  0.21653101432362054  0.504057262891304  1.0000
  C   C9        1.0  0.1474507968757204  0.30098590943157166  0.5303608527564108  1.0000
  N   N2        1.0  0.0966154136565682  0.3688818024877445  0.551508212421506  1.0000
  C   C10       1.0  0.1989971199169573  0.09169191578951595  0.4647089192798972  1.0000
  C   C11       1.0  0.2603333787320728  0.009914615897694153  0.4387608870390074  1.0000
  C   C12       1.0  0.33352208836025243  0.05233768411250184  0.4519416949595454  1.0000
  C   C13       1.0  0.4427141600101489  0.29469833737325546  0.6108757545290722  1.0000
  C   C14       1.0  0.5159328630677332  0.3371225316574489  0.6241171287018183  1.0000
  H   H1        1.0  0.5956684061204655  0.21441434204031304  0.3557726198021536  1.0000
  H   H2        1.0  0.46720184532930287  0.14059950587358672  0.3311676727506623  1.0000
  H   H3        1.0  0.2924801292288683  0.3568216342278796  0.5463185903412107  1.0000
  H   H4        1.0  0.1425392701181506  0.05765290212931306  0.454113728627046  1.0000
  H   H5        1.0  0.2511579417671452  0.9132614125538042  0.4086825627107198  1.0000
  H   H6        1.0  0.3801766682830336  0.9865873344423487  0.43289264146119794  1.0000
  H   H7        1.0  0.4010262082463629  0.3166655687883837  0.6838804667850382  1.0000
  H   H8        1.0  0.5293570167870602  0.3920489200533543  0.7059937756651442  1.0000
  C   C15       1.0  0.9020163455707496  0.9967393949584599  0.5543615195705902  1.0000
  C   C16       1.0  0.9065199847701435  0.9850032502604069  0.6908025252722263  1.0000
  C   C17       1.0  0.9087296827643604  0.861921260903121  0.7599446883390173  1.0000
  C   C18       1.0  0.9063763299173462  0.7497222865066712  0.6908198223261357  1.0000
  C   C19       1.0  0.9018746972414154  0.7594663883837457  0.5543780378432013  1.0000
  C   C20       1.0  0.8997194814404733  0.8834128353584654  0.48691265564893493  1.0000
  C   C21       1.0  0.9134857456558205  0.8505700425448524  0.9042839990692813  1.0000
  C   C22       1.0  0.8704831604514383  0.7591688387341906  0.97895385827102  1.0000
  C   C23       1.0  0.8749817354512796  0.748719399428626  0.11479037941365143  1.0000
  C   C24       1.0  0.9222954399628915  0.8294019967370013  0.17776637348544  1.0000
  C   C25       1.0  0.965477198826483  0.9202213150388586  0.10446688197501941  1.0000
  C   C26       1.0  0.9610887859784344  0.9310154191743757  0.9686183302196592  1.0000
  S   S1        1.0  0.9281505764685601  0.8155294644542559  0.35206210327701226  1.0000
  C   C27       1.0  0.8526560457718447  0.9351748134016865  0.3726973822142676  1.0000
  H   H9        1.0  0.9003298108126546  0.3286634800285342  0.5023708692259843  1.0000
  H   H10       1.0  0.9072836867812017  0.07181329014737114  0.743747007721826  1.0000
  H   H11       1.0  0.9090989135013459  0.65459462466342  0.7435394405022606  1.0000
  H   H12       1.0  0.8962456289462516  0.8916982593461772  0.3816542136648209  1.0000
  H   H13       1.0  0.9001218631927624  0.4357273427803293  0.5023930256707214  1.0000
  H   H14       1.0  0.8326681794789074  0.6969834564853045  0.9323968464363435  1.0000
  H   H15       1.0  0.8413886986283581  0.678265158091559  0.17100191852178023  1.0000
  H   H16       1.0  0.0024924799154695276  0.982500928295177  0.15262448093221115  1.0000
  H   H17       1.0  0.9956299034587259  0.0010561816551117867  0.9138058544627141  1.0000
  H   H18       1.0  0.8676993687512138  0.030777570236423694  0.32360147336033496  1.0000
  H   H19       1.0  0.8439424052928319  0.9462973206212549  0.47809923399100074  1.0000
  H   H20       1.0  0.7997949497615887  0.9021355127798715  0.33135289458363726  1.0000
  C   C28       1.0  0.9019757264087307  0.3779901609408686  0.17301720342619076  1.0000
  C   C29       1.0  0.8305546279555025  0.3233640894992942  0.17755830512651793  1.0000
  C   C30       1.0  0.7943352468464882  0.2958002991158164  0.0627128393222236  1.0000
  C   C31       1.0  0.8304930803437066  0.3235924431264592  0.9422553158274088  1.0000
  C   C32       1.0  0.9019152994818429  0.37821563800094116  0.9357223593356648  1.0000
  C   C33       1.0  0.9372566446935813  0.4051094037071627  0.05163216422508498  1.0000
  C   C34       1.0  0.7187766810988278  0.23802557056871598  0.06857976878833782  1.0000
  C   C35       1.0  0.6631293604078381  0.28232344021571665  0.9784404537179139  1.0000
  C   C36       1.0  0.5920301119978763  0.22791498649105124  0.9841986737601642  1.0000
  C   C37       1.0  0.5755411079595938  0.12888766325282286  0.08000141733847754  1.0000
  C   C38       1.0  0.6305199579657806  0.08382254991702087  0.169744873622653  1.0000
  C   C39       1.0  0.7016657168809965  0.1380553712657293  0.16434837589069162  1.0000
  S   S2        1.0  0.4843418386658043  0.058939475218546145  0.08693933281569666  1.0000
  C   C40       1.0  0.44579415997705246  0.1749804691458634  0.19623596323058767  1.0000
  H   H21       1.0  0.9292013987304618  0.3987571537475705  0.4987436834846777  1.0000
  H   H22       1.0  0.8024820474083897  0.30377243851525715  0.27051909397704343  1.0000
  H   H23       1.0  0.8032544220764374  0.3008822165298646  0.8535822566135004  1.0000
  H   H24       1.0  0.9923551567686367  0.44725030069567356  0.047360522919112524  1.0000
  H   H25       1.0  0.9291137818497788  0.3990887667285507  0.6057754063120444  1.0000
  H   H26       1.0  0.6742861634658134  0.3601616985157566  0.9046000047171252  1.0000
  H   H27       1.0  0.5496941241972454  0.26325436781079015  0.9144890886935619  1.0000
  H   H28       1.0  0.618214780656399  0.006734684594645432  0.24372704753082708  1.0000
  H   H29       1.0  0.7435978814914938  0.10068416097457454  0.23396303133426577  1.0000
  H   H30       1.0  0.47756339561529054  0.1674447749716006  0.2887838900561568  1.0000
  H   H31       1.0  0.38617973735397454  0.152677300139596  0.21788240667802516  1.0000
  H   H32       1.0  0.4486794305390604  0.2755647108372279  0.14960424614312995  1.0000
  Zn  Zn1       1.0  0.8196255568226617  0.3820058367009391  0.5555793226104118  1.0000
  Zn  Zn2       1.0  0.9842582681287001  0.3741996714639384  0.553159721380722  1.0000
  C   C41       1.0  0.9019259990028273  0.37299941896241684  0.7915546437271783  1.0000
  C   C42       1.0  0.901959623418157  0.38320764261482765  0.31718450133841203  1.0000
  C   C43       1.0  0.9018979948040576  0.6152934113715522  0.549200004693196  1.0000
  C   C44       1.0  0.9019875717236223  0.1409120925890064  0.5595392103999499  1.0000
  O   O1        1.0  0.9644314761098574  0.38199061236648  0.36465013732293516  1.0000
  O   O2        1.0  0.9644065650623759  0.3682907705863212  0.742252212543886  1.0000
  O   O3        1.0  0.9643831089874175  0.5639462740161889  0.5465491392321771  1.0000
  O   O4        1.0  0.9644548760128137  0.18633512086175433  0.5603531140899972  1.0000
  O   O5        1.0  0.8394288927574836  0.5698703899683959  0.548385930719997  1.0000
  O   O6        1.0  0.8394523485446828  0.3742164468204862  0.7440889348230102  1.0000
  O   O7        1.0  0.8394772597742528  0.3879162428808004  0.3664852982666018  1.0000
  O   O8        1.0  0.8395006596681471  0.19226074211620595  0.5621883723971712  1.0000
