data_image0
_chemical_formula_structural       NC12NC2H8C7OC6OCH12C7OC6OCH11Zn2C4O8
_chemical_formula_sum              "N2 C46 H31 O12 Zn2"
_cell_length_a       19.240039667572717
_cell_length_b       10.299359160628079
_cell_length_c       10.299362532796529
_cell_angle_alpha    85.58430886835329
_cell_angle_beta     90.01509071760941
_cell_angle_gamma    90.02126226386561

_space_group_name_H-M_alt    "P 1"
_space_group_IT_number       1

loop_
  _space_group_symop_operation_xyz
  'x, y, z'

loop_
  _atom_site_type_symbol
  _atom_site_label
  _atom_site_symmetry_multiplicity
  _atom_site_fract_x
  _atom_site_fract_y
  _atom_site_fract_z
  _atom_site_occupancy
  N   N1        1.0  0.6545574286880763  0.42086839813786514  0.5676519322443059  1.0000
  C   C1        1.0  0.5944090598759227  0.4208684820959861  0.5676518503192494  1.0000
  C   C2        1.0  0.519591022738694  0.4208685993423638  0.5676517130312997  1.0000
  C   C3        1.0  0.48311908812855187  0.3564334629796948  0.6710543225518016  1.0000
  C   C4        1.0  0.41044833020606564  0.3563226055929545  0.6711408491445011  1.0000
  C   C5        1.0  0.37325878778763694  0.4208686918399536  0.5676514853635682  1.0000
  C   C6        1.0  0.4104449238210134  0.48541496513737714  0.46416231614771863  1.0000
  C   C7        1.0  0.4831156024327412  0.48530387228309185  0.46424896520804915  1.0000
  C   C8        1.0  0.2960536973189227  0.42086861314767443  0.5676513899377854  1.0000
  C   C9        1.0  0.2588492921943431  0.3076179517113416  0.6095061970056356  1.0000
  C   C10       1.0  0.18617861216673545  0.30772482651724853  0.6094148869043599  1.0000
  C   C11       1.0  0.14972141037865377  0.42086848399036847  0.5676514508298302  1.0000
  C   C12       1.0  0.0749033732361785  0.4208683703209171  0.5676516994734064  1.0000
  N   N2        1.0  0.0147550564053674  0.4208683295601898  0.5676519078858626  1.0000
  C   C13       1.0  0.1862117194547896  0.5340122172767214  0.5258879618753558  1.0000
  C   C14       1.0  0.25888242404204764  0.5341192721581007  0.5257964892054088  1.0000
  H   H1        1.0  0.5108354271736626  0.3065465861458938  0.7517882010234274  1.0000
  H   H2        1.0  0.38335681243473174  0.3072341740612563  0.7529903383214795  1.0000
  H   H3        1.0  0.38334991080242103  0.5345034237065911  0.38231277612635983  1.0000
  H   H4        1.0  0.5108290348696953  0.5351906489363765  0.3835153625163209  1.0000
  H   H5        1.0  0.285929250243185  0.21846997517514422  0.6406612744868476  1.0000
  H   H6        1.0  0.1584507774092468  0.21947636741171264  0.6416030495333185  1.0000
  H   H7        1.0  0.1585097307616659  0.6222606518492673  0.4936998137933458  1.0000
  H   H8        1.0  0.2859889448198308  0.6232673278591052  0.49464136696389754  1.0000
  C   C15       1.0  0.8345777879368492  0.039490073937245906  0.5676204151841309  1.0000
  C   C16       1.0  0.7770789618605741  0.044744456963123895  0.4832243910931624  1.0000
  C   C17       1.0  0.748576209024624  0.9304096789444212  0.4395642200500111  1.0000
  C   C18       1.0  0.7772445523146526  0.8094830241248966  0.4834794945439784  1.0000
  C   C19       1.0  0.8347413782213675  0.8022366445684093  0.5676946607637845  1.0000
  C   C20       1.0  0.8631728287206902  0.9178262633569835  0.6090693328873866  1.0000
  C   C21       1.0  0.6873805715811868  0.938094654566042  0.35163169970057373  1.0000
  O   O1        1.0  0.6432145546199987  0.02697098134669274  0.36319811173227445  1.0000
  C   C22       1.0  0.6762869781822162  0.8450249458553197  0.2505853105391076  1.0000
  C   C23       1.0  0.7328094868309503  0.7916559526033238  0.18653083381869479  1.0000
  C   C24       1.0  0.7216246665866863  0.7052390960169839  0.09045008197702506  1.0000
  C   C25       1.0  0.6541000037632198  0.6713138462526311  0.05568777156543624  1.0000
  C   C26       1.0  0.5973433665178638  0.7257172027535478  0.11843050374655249  1.0000
  C   C27       1.0  0.608464639072479  0.8121929633003819  0.21455767657921432  1.0000
  O   O2        1.0  0.6456682867194479  0.5840563424838383  0.9587905347545653  1.0000
  C   C28       1.0  0.5801646071945548  0.5411977962824897  0.9139229571798538  1.0000
  H   H9        1.0  0.9428964204000452  0.23681308068950654  0.7272939282366826  1.0000
  H   H10       1.0  0.7547219134760439  0.1380621385419798  0.45023997155258644  1.0000
  H   H11       1.0  0.7541674113329733  0.7208362837564719  0.45302837216640274  1.0000
  H   H12       1.0  0.9075255008249884  0.9129685724034441  0.6740373426741603  1.0000
  H   H13       1.0  0.856619888395547  0.47195152890194464  0.6004124177672141  1.0000
  H   H14       1.0  0.7856532531957506  0.8177512201182342  0.20966169201831253  1.0000
  H   H15       1.0  0.7657270266334605  0.6647762556840706  0.0422693409153394  1.0000
  H   H16       1.0  0.5444703216195057  0.7018984087635187  0.09365504794569346  1.0000
  H   H17       1.0  0.563973690108288  0.8526096796809478  0.2616876679997477  1.0000
  H   H18       1.0  0.5888297265357658  0.4727783335288782  0.8374489783569792  1.0000
  H   H19       1.0  0.5496185349250757  0.6255326876000409  0.8714134010159316  1.0000
  H   H20       1.0  0.5510005544291319  0.489654049326503  0.9954577909819149  1.0000
  C   C29       1.0  0.8346053118617948  0.42074284448939797  0.18629062637609478  1.0000
  C   C30       1.0  0.7686176496287835  0.36206095360711466  0.18957258464792368  1.0000
  C   C31       1.0  0.7350359947472321  0.33378681619405715  0.0740565279262333  1.0000
  C   C32       1.0  0.7688134108600941  0.3622245149789372  0.954318300669024  1.0000
  C   C33       1.0  0.8347138566102359  0.42098390407600006  0.9490244248930962  1.0000
  C   C34       1.0  0.8671725330533435  0.45015965982941375  0.06554941572051474  1.0000
  C   C35       1.0  0.6657078352277692  0.2704877709341642  0.07985319277568248  1.0000
  O   O3        1.0  0.6514909326654474  0.19127944839125452  0.1757420518629644  1.0000
  C   C36       1.0  0.6125107855706067  0.2970395785187987  0.976940974804309  1.0000
  C   C37       1.0  0.6071925010231284  0.420414825365075  0.9090995803913473  1.0000
  C   C38       1.0  0.5563252294679315  0.4445949653826401  0.8134063540212638  1.0000
  C   C39       1.0  0.5095517435619803  0.34692854217378133  0.7843480503058265  1.0000
  C   C40       1.0  0.51413914487655  0.22374685414802947  0.8531076796955807  1.0000
  C   C41       1.0  0.5650001607446826  0.19943951223994327  0.948873298700809  1.0000
  O   O4        1.0  0.4595251373102849  0.3760887715890622  0.6873663466250335  1.0000
  C   C42       1.0  0.4088305946760182  0.2863255701089602  0.647985003552729  1.0000
  H   H21       1.0  0.9592425264891196  0.5309841140930364  0.3874056406818185  1.0000
  H   H22       1.0  0.7428792051595534  0.3393195233995765  0.28210445707016313  1.0000
  H   H23       1.0  0.743962525723509  0.3371438995189889  0.8652617917921179  1.0000
  H   H24       1.0  0.9180101014759796  0.4954840683828119  0.06219835916859328  1.0000
  H   H25       1.0  0.6418520031283425  0.49866724769839427  0.9309313940227095  1.0000
  H   H26       1.0  0.5530341726758049  0.5400564323469064  0.7618520063152018  1.0000
  H   H27       1.0  0.4786814288830297  0.14618023529326085  0.8333727086526979  1.0000
  H   H28       1.0  0.5676159078959686  0.10379617306033051  0.00031443666626263005  1.0000
  H   H29       1.0  0.3761948750163381  0.3350217095778898  0.5699063488320628  1.0000
  H   H30       1.0  0.374885048527506  0.2541118640315947  0.7315315479398379  1.0000
  H   H31       1.0  0.4347210083919788  0.20100375491337677  0.6093208707423061  1.0000
  Zn  Zn1       1.0  0.7585026928437382  0.4208649134271652  0.5676594132637769  1.0000
  Zn  Zn2       1.0  0.9108098102569769  0.42086122387995806  0.5676550246793515  1.0000
  C   C43       1.0  0.8346906697408593  0.41576454368377114  0.80485088812686  1.0000
  C   C44       1.0  0.8346234969184146  0.42596323228325206  0.33046367739353877  1.0000
  C   C45       1.0  0.8347061357420282  0.6580597062324922  0.5625054493831954  1.0000
  C   C46       1.0  0.834607978620686  0.1836665094167016  0.572809185225164  1.0000
  O   O5        1.0  0.8924293560775179  0.4277081760709376  0.3788478043559482  1.0000
  O   O6        1.0  0.8924823882882815  0.41401581975035784  0.7564630563910498  1.0000
  O   O7        1.0  0.8924940983035982  0.6096722281946831  0.5607674001251798  1.0000
  O   O8        1.0  0.8924175940782357  0.23205177688754608  0.5745433632500683  1.0000
  O   O9        1.0  0.7768948570475342  0.6096743604222474  0.5607710746877262  1.0000
  O   O10       1.0  0.7768831473538321  0.4140195122984223  0.7564666618603028  1.0000
  O   O11       1.0  0.7768301149574073  0.42771182286842135  0.3788498484283962  1.0000
  O   O12       1.0  0.7768183529671459  0.23205541442676728  0.5745455046889332  1.0000
