data_image0
_chemical_formula_structural       NC8NC6H8C6NCOC6H11C6SCOC6H10Zn2C4O8
_chemical_formula_sum              "N3 C44 H29 O10 S1 Zn2"
_cell_length_a       17.457602349358154
_cell_length_b       10.29965916528486
_cell_length_c       10.302041481415108
_cell_angle_alpha    85.55947833871805
_cell_angle_beta     92.8727530123399
_cell_angle_gamma    91.70433465767697

_space_group_name_H-M_alt    "P 1"
_space_group_IT_number       1

loop_
  _space_group_symop_operation_xyz
  'x, y, z'

loop_
  _atom_site_type_symbol
  _atom_site_label
  _atom_site_symmetry_multiplicity
  _atom_site_fract_x
  _atom_site_fract_y
  _atom_site_fract_z
  _atom_site_occupancy
  N   N1        1.0  0.722733882909775  0.4532741689023255  0.6272859185916992  1.0000
  C   C1        1.0  0.6616482253839633  0.40735350817658555  0.6166572545048541  1.0000
  C   C2        1.0  0.5856550850395008  0.3502339172293213  0.6034447381678796  1.0000
  C   C3        1.0  0.5271307342200939  0.39036929883755533  0.6783395026724637  1.0000
  C   C4        1.0  0.45257602820158266  0.3353677177071168  0.6657419941667966  1.0000
  C   C5        1.0  0.3904610109787047  0.377744687768705  0.7450583478200479  1.0000
  C   C6        1.0  0.31591972013397385  0.3962318339729905  0.6893130613030449  1.0000
  C   C7        1.0  0.2573953298548565  0.4361832567811235  0.7643156950339995  1.0000
  C   C8        1.0  0.18141607452448302  0.4552770033026767  0.706355629107513  1.0000
  N   N2        1.0  0.12034166861173033  0.47062199588457326  0.6597558850002916  1.0000
  C   C9        1.0  0.2729200915361817  0.4578904957095844  0.8955721032923869  1.0000
  C   C10       1.0  0.3466767325584164  0.4397921955680915  0.951705032965765  1.0000
  C   C11       1.0  0.4051895324929783  0.40002066659360974  0.8771600810353317  1.0000
  C   C12       1.0  0.43783425308391477  0.239553840209201  0.5768168873995091  1.0000
  C   C13       1.0  0.4963469199602519  0.1996969959228008  0.5023221319527984  1.0000
  C   C14       1.0  0.5701168594388767  0.25481076191108776  0.5154695082827072  1.0000
  H   H1        1.0  0.5394855624722865  0.46553929387108406  0.7449807197619032  1.0000
  H   H2        1.0  0.3035759223709259  0.3812968282067248  0.5873057393722396  1.0000
  H   H3        1.0  0.2280623622767669  0.4887524821534214  0.954405428978597  1.0000
  H   H4        1.0  0.3585071089792314  0.45628495864376206  0.05333969229351799  1.0000
  H   H5        1.0  0.4616707536369319  0.3850133510309788  0.9232515584804788  1.0000
  H   H6        1.0  0.3813419792738578  0.19422284824849734  0.5661523099621659  1.0000
  H   H7        1.0  0.4845061442768644  0.1256438509519775  0.43448322406933526  1.0000
  H   H8        1.0  0.6149744594380475  0.22307891965507154  0.4571469080559499  1.0000
  C   C15       1.0  0.9214739622346986  0.08058463509965397  0.6434002390420483  1.0000
  C   C16       1.0  0.9220006925438792  0.0899358437596951  0.5066586531547306  1.0000
  C   C17       1.0  0.9233973629900748  0.9778600088262885  0.4379529089649079  1.0000
  C   C18       1.0  0.922145233692207  0.8547517549200201  0.5069667731590499  1.0000
  C   C19       1.0  0.9216089065381258  0.8433017878880675  0.6436533641745867  1.0000
  C   C20       1.0  0.9215462680420176  0.9568382661744417  0.7111206298716855  1.0000
  N   N3        1.0  0.9227572650526964  0.9909532828537116  0.29786664355582304  1.0000
  C   C21       1.0  0.9587232637084034  0.9014211857169482  0.2210959290072656  1.0000
  O   O1        1.0  0.011647416247068108  0.8308953961076836  0.27238515140032526  1.0000
  C   C22       1.0  0.9364284904853735  0.89429969532219  0.08094079097698992  1.0000
  C   C23       1.0  0.8654877550225127  0.9410778497083168  0.0288124067108837  1.0000
  C   C24       1.0  0.8449343641335111  0.9332128830711961  0.8966412837374399  1.0000
  C   C25       1.0  0.8946071223935056  0.8783227138177032  0.8152607298964543  1.0000
  C   C26       1.0  0.9648725372727329  0.8307280499106525  0.8659580620831813  1.0000
  C   C27       1.0  0.9857188206236889  0.8382494991957248  0.9980486530397652  1.0000
  H   H9        1.0  0.9197481025728492  0.2701771585790513  0.9012789031434006  1.0000
  H   H10       1.0  0.9219145029876717  0.18456000944834036  0.45284099496908503  1.0000
  H   H11       1.0  0.9202419757251935  0.7678963867188415  0.45401815385782296  1.0000
  H   H12       1.0  0.921150477144351  0.9487645991514537  0.8165337995479119  1.0000
  H   H13       1.0  0.9203824732562784  0.5114159655533258  0.6960026323584223  1.0000
  H   H14       1.0  0.9008684359760195  0.0761471035559631  0.2501492716120659  1.0000
  H   H15       1.0  0.8252817963378731  0.9819981417043796  0.08999657098707314  1.0000
  H   H16       1.0  0.7902588529708537  0.9692727284897144  0.8573985634826169  1.0000
  H   H17       1.0  0.8785443066698893  0.87229954031702  0.7130147272119141  1.0000
  H   H18       1.0  0.0032633120453997634  0.7879333972554574  0.8028623505778639  1.0000
  H   H19       1.0  0.040586539480242934  0.8010126883719173  0.035088872126699755  1.0000
  C   C28       1.0  0.9215558478591227  0.46207312431367226  0.2622410011677594  1.0000
  C   C29       1.0  0.9567499814546595  0.5867042149878026  0.25424117500950594  1.0000
  C   C30       1.0  0.9746026626977834  0.6482078304242902  0.13333305031261133  1.0000
  C   C31       1.0  0.9568227241278022  0.5863035356201727  0.019141575279250984  1.0000
  C   C32       1.0  0.9215270564150077  0.4618133152980488  0.024812658792320308  1.0000
  C   C33       1.0  0.9041329248454268  0.40029115202542886  0.1469516444657828  1.0000
  S   S1        1.0  0.02024712374803883  0.8067285822379755  0.12458768614210047  1.0000
  C   C34       1.0  0.11474377452345833  0.741052427548959  0.13485084897144373  1.0000
  O   O2        1.0  0.14476470105366435  0.7191900354575615  0.030234835404836964  1.0000
  C   C35       1.0  0.1570260565723938  0.711555264538519  0.26181831887027873  1.0000
  C   C36       1.0  0.2250728688423409  0.6408025174086027  0.2675441157181495  1.0000
  C   C37       1.0  0.26505469913860785  0.6116509105088839  0.38675143024911085  1.0000
  C   C38       1.0  0.23780401934763876  0.6528084928633469  0.5014770646031601  1.0000
  C   C39       1.0  0.17058176291821348  0.7234384085814648  0.4971988200931561  1.0000
  C   C40       1.0  0.13037100049874972  0.7529541530626884  0.37827233496167145  1.0000
  H   H20       1.0  0.8551061065740603  0.22727340793277362  0.4846182859212502  1.0000
  H   H21       1.0  0.9705409151030876  0.6362325610126458  0.341697254469169  1.0000
  H   H22       1.0  0.9709387868416052  0.6355145445727581  0.926338400462658  1.0000
  H   H23       1.0  0.8770025373904152  0.30420932268441647  0.15219853087432123  1.0000
  H   H24       1.0  0.9083171062731267  0.41432141215819335  0.6996597317888251  1.0000
  H   H25       1.0  0.2472283031365197  0.6073120665607782  0.1800238108551242  1.0000
  H   H26       1.0  0.317196196525928  0.5569427098975281  0.3901443710481583  1.0000
  H   H27       1.0  0.2688238266821694  0.6301112821023835  0.5936646785626536  1.0000
  H   H28       1.0  0.14961740213215954  0.7555938207743824  0.5861699896985118  1.0000
  H   H29       1.0  0.07881189075125895  0.8086297985423063  0.3781545114342759  1.0000
  Zn  Zn1       1.0  0.8374749001952395  0.458276891827901  0.6366635451860007  1.0000
  Zn  Zn2       1.0  0.005600634790648984  0.4656086216664299  0.6503888850825572  1.0000
  C   C41       1.0  0.9215298516041416  0.4566887589134608  0.8806684031154988  1.0000
  C   C42       1.0  0.9215475195946612  0.46719847319640184  0.4063843050158769  1.0000
  C   C43       1.0  0.9215796555801997  0.6991336295535793  0.6384311711848214  1.0000
  C   C44       1.0  0.9214976579703463  0.22475203975011795  0.6486216009687333  1.0000
  O   O3        1.0  0.985347563634864  0.4716952747039342  0.4599688076327216  1.0000
  O   O4        1.0  0.9853333497979354  0.4577555911272127  0.8375007418076518  1.0000
  O   O5        1.0  0.9853727069946426  0.6535328523355826  0.6418923933864913  1.0000
  O   O6        1.0  0.9853081490735551  0.27591802031700063  0.6555770540199872  1.0000
  O   O7        1.0  0.8577673285392715  0.6479674906767876  0.631475371557956  1.0000
  O   O8        1.0  0.8577279716177597  0.4521917897740393  0.8270836512663238  1.0000
  O   O9        1.0  0.8577421855566941  0.46613142862947005  0.44955015602009013  1.0000
  O   O10       1.0  0.8577027709869257  0.27035416492055675  0.6451584997506368  1.0000
