data_image0
_chemical_formula_structural       NC8NC6H8C6NCOCH9C7F3H4Zn2C4O8
_chemical_formula_sum              "N3 C33 H21 O9 F3 Zn2"
_cell_length_a       17.457602349358154
_cell_length_b       10.300268703208214
_cell_length_c       9.272721663655245
_cell_angle_alpha    85.87639938124998
_cell_angle_beta     93.38388695232669
_cell_angle_gamma    91.66828978603887

_space_group_name_H-M_alt    "P 1"
_space_group_IT_number       1

loop_
  _space_group_symop_operation_xyz
  'x, y, z'

loop_
  _atom_site_type_symbol
  _atom_site_label
  _atom_site_symmetry_multiplicity
  _atom_site_fract_x
  _atom_site_fract_y
  _atom_site_fract_z
  _atom_site_occupancy
  N   N1        1.0  0.7148154855077972  0.4448242242058833  0.47427564922737075  1.0000
  C   C1        1.0  0.653690427212399  0.39884116081682097  0.4624847418577076  1.0000
  C   C2        1.0  0.5776483212918808  0.34164399885599556  0.44782745223788134  1.0000
  C   C3        1.0  0.5195102290176554  0.3822340903452375  0.5310234295911765  1.0000
  C   C4        1.0  0.44490904387049685  0.3271585775259993  0.5170486108724051  1.0000
  C   C5        1.0  0.3832031378907311  0.37001710910341234  0.60515630936532  1.0000
  C   C6        1.0  0.3083558163508346  0.38816325039391836  0.5432132865749844  1.0000
  C   C7        1.0  0.2502183335854586  0.42857005077732135  0.6265291842887235  1.0000
  C   C8        1.0  0.173920937869116  0.4473092509066956  0.5621251941978915  1.0000
  N   N2        1.0  0.11259075032933896  0.46236918943489674  0.5103445541065939  1.0000
  C   C9        1.0  0.26643866724360654  0.4510767609486975  0.7723529643949529  1.0000
  C   C10       1.0  0.34050326876690695  0.43332180964732686  0.8347265248421096  1.0000
  C   C11       1.0  0.3986315466655649  0.3930976852863524  0.7519190633402555  1.0000
  C   C12       1.0  0.4297271066081585  0.2308073544611076  0.4182861323383967  1.0000
  C   C13       1.0  0.48785555333253855  0.19049822548159634  0.33553447515031487  1.0000
  C   C14       1.0  0.5616748777324022  0.2456892712315644  0.3501201799118574  1.0000
  H   H1        1.0  0.532193628429717  0.4578065986021913  0.6050355312213493  1.0000
  H   H2        1.0  0.29547070585074153  0.3726068246633948  0.42988401472592785  1.0000
  H   H3        1.0  0.2218846173719774  0.48229597841576993  0.8377075414224946  1.0000
  H   H4        1.0  0.3528723624777623  0.4504336371892501  0.9476411375672461  1.0000
  H   H5        1.0  0.45536569434298896  0.37837230566605123  0.8031348613932427  1.0000
  H   H6        1.0  0.3731950134625527  0.1854137095927353  0.4064550915557694  1.0000
  H   H7        1.0  0.47567935561625757  0.11603520271701306  0.2601912409550444  1.0000
  H   H8        1.0  0.606231870564778  0.2136033592062694  0.28533338607285463  1.0000
  C   C15       1.0  0.9137848034500082  0.07225269228373613  0.492326029399991  1.0000
  C   C16       1.0  0.9260058157122713  0.08143239518234258  0.34354359723875305  1.0000
  C   C17       1.0  0.9332124840110666  0.9688054488425625  0.26897512763499765  1.0000
  C   C18       1.0  0.9258323535781806  0.8462654042136111  0.3435638408801556  1.0000
  C   C19       1.0  0.9136288158330536  0.8349311095887979  0.49230729799520345  1.0000
  C   C20       1.0  0.9079588317268382  0.9485395952503971  0.5660169614051975  1.0000
  N   N3        1.0  0.9445278473183752  0.9765590045769987  0.11617724817537356  1.0000
  C   C21       1.0  0.9892154693301175  0.07725242297550494  0.04274951718016439  1.0000
  O   O1        1.0  0.032873452037650124  0.1525046416364071  0.11329450711468582  1.0000
  C   C22       1.0  0.9884726994385686  0.0873023377935578  0.8811529427891274  1.0000
  H   H9        1.0  0.9080206781307552  0.3961602825236741  0.5484532073296717  1.0000
  H   H10       1.0  0.9283975898841551  0.17609540647439295  0.28509988767882  1.0000
  H   H11       1.0  0.9303139042372752  0.7598073058729008  0.2849458183352387  1.0000
  H   H12       1.0  0.8985540783676133  0.9406512052588126  0.6807765734760434  1.0000
  H   H13       1.0  0.9078681077593098  0.5032005403168628  0.5482259964557499  1.0000
  H   H14       1.0  0.923108703072583  0.8999020973809415  0.05629782422801233  1.0000
  H   H15       1.0  0.9295328939833186  0.06746427684255596  0.8349276483779118  1.0000
  H   H16       1.0  0.007299864967832864  0.18658359900582294  0.8408145516712255  1.0000
  H   H17       1.0  0.027899013765645627  0.015118429611528534  0.8450347061297029  1.0000
  C   C23       1.0  0.9116764468953549  0.4513960649873425  0.06868935250868713  1.0000
  C   C24       1.0  0.94436485860164  0.34661872187022436  0.1543764008949271  1.0000
  C   C25       1.0  0.9837789700860009  0.24986246896751688  0.09204592325214556  1.0000
  C   C26       1.0  0.9881533836072863  0.2560353952337962  0.9412927255061782  1.0000
  C   C27       1.0  0.9550106380535416  0.35808896164301135  0.8545961939024216  1.0000
  C   C28       1.0  0.9157372034924449  0.4557877354666522  0.915943970857267  1.0000
  C   C29       1.0  0.016650730187713902  0.13650483883864162  0.18537466535662506  1.0000
  F   F1        1.0  0.04249144856985088  0.17538723265932954  0.319950537266495  1.0000
  F   F2        1.0  0.07784350747322889  0.08548955680925441  0.12180382411048751  1.0000
  F   F3        1.0  0.96031977403934  0.0405458047712768  0.20330303408334327  1.0000
  H   H18       1.0  0.8629606058713427  0.758484049905771  0.14048950515356773  1.0000
  H   H19       1.0  0.9405333212936698  0.34183613950565267  0.2708746313014596  1.0000
  H   H20       1.0  0.958299547205849  0.3586493621841225  0.7382398010442266  1.0000
  H   H21       1.0  0.7779541127422566  0.6687418293643667  0.7821581088481424  1.0000
  Zn  Zn1       1.0  0.8296048751822112  0.44988388287645203  0.48469268548223265  1.0000
  Zn  Zn2       1.0  0.9978014051889282  0.45729894485416045  0.4999393288005792  1.0000
  C   C30       1.0  0.9149689635541182  0.4497841802278857  0.7557946939961638  1.0000
  C   C31       1.0  0.9124391538614273  0.45740036772223563  0.22883762832995824  1.0000
  C   C32       1.0  0.9136268086980539  0.6907386645854661  0.48656187601312345  1.0000
  C   C33       1.0  0.9137812520114663  0.21644432103165384  0.49807051805943536  1.0000
  O   O2        1.0  0.9765248330192404  0.46222377857259006  0.28837087448792564  1.0000
  O   O3        1.0  0.9785405570786485  0.4505876480342646  0.7078328820866979  1.0000
  O   O4        1.0  0.977455896792826  0.6451614112797606  0.4904253986659346  1.0000
  O   O5        1.0  0.9776094353906681  0.2676500215257976  0.5057782445413365  1.0000
  O   O6        1.0  0.849796787583214  0.6395328036757931  0.4788537645309559  1.0000
  O   O7        1.0  0.8508814471778046  0.4449606002342761  0.6962611709947633  1.0000
  O   O8        1.0  0.8488657148659603  0.4565966765316738  0.2767974289866739  1.0000
  O   O9        1.0  0.8499503177545251  0.26202291075715545  0.49420490719691884  1.0000
