data_image0
_chemical_formula_structural       NC10NC2NCH9C7OClH5C6OCH8Zn2C4O8
_chemical_formula_sum              "N3 C31 H22 O10 Cl1 Zn2"
_cell_length_a       19.276633427626003
_cell_length_b       10.29851198555357
_cell_length_c       10.300312196595936
_cell_angle_alpha    85.55721862638893
_cell_angle_beta     89.98863290697246
_cell_angle_gamma    90.08740534079064

_space_group_name_H-M_alt    "P 1"
_space_group_IT_number       1

loop_
  _space_group_symop_operation_xyz
  'x, y, z'

loop_
  _atom_site_type_symbol
  _atom_site_label
  _atom_site_symmetry_multiplicity
  _atom_site_fract_x
  _atom_site_fract_y
  _atom_site_fract_z
  _atom_site_occupancy
  N   N1        1.0  0.6531684532492928  0.42340102111510436  0.5670688986585248  1.0000
  C   C1        1.0  0.5931513044419748  0.42081173251766457  0.5684409228416705  1.0000
  C   C2        1.0  0.5184349391850204  0.41752417557872756  0.5701456187261067  1.0000
  C   C3        1.0  0.4830252172887711  0.5284193809840045  0.5767338546426377  1.0000
  C   C4        1.0  0.4068552651056948  0.5298113822508814  0.5792541321102477  1.0000
  C   C5        1.0  0.37042199938503845  0.41990758580977783  0.5712437074605983  1.0000
  C   C6        1.0  0.2933973734092832  0.42187201322234397  0.5704800287002292  1.0000
  C   C7        1.0  0.25640058608863653  0.3448311906573136  0.48724946948218917  1.0000
  C   C8        1.0  0.18386733917944553  0.3456472635800358  0.4862857231153701  1.0000
  C   C9        1.0  0.1473865719079056  0.42318624106587444  0.56865981464214  1.0000
  C   C10       1.0  0.0727140969319927  0.42388396186557964  0.5676240755403608  1.0000
  N   N2        1.0  0.0126827354516604  0.4244448242727181  0.5667913359643051  1.0000
  C   C11       1.0  0.1837160227182094  0.4999808766025988  0.6521007674275072  1.0000
  C   C12       1.0  0.2562459033099753  0.4993978915497126  0.6531538793882325  1.0000
  N   N3        1.0  0.4066802241918411  0.2992390608026638  0.5604887685996287  1.0000
  C   C13       1.0  0.4823290682086991  0.28748624843929993  0.5696959769372765  1.0000
  H   H1        1.0  0.5103063702069066  0.620296732503008  0.579488938124789  1.0000
  H   H2        1.0  0.38094528297690666  0.6225273624798462  0.5842442676611483  1.0000
  H   H3        1.0  0.2835321235433239  0.2853459015629696  0.42151706590673754  1.0000
  H   H4        1.0  0.1562657167824222  0.2860345284786938  0.42109155973297857  1.0000
  H   H5        1.0  0.1559980572557438  0.5600128451191322  0.716624567636156  1.0000
  H   H6        1.0  0.28323960604356213  0.5581924355593884  0.7198114344209934  1.0000
  H   H7        1.0  0.3783228659408693  0.21307901706382837  0.5569450873838548  1.0000
  H   H8        1.0  0.4956371316163783  0.2279151472151444  0.6607850315806745  1.0000
  H   H9        1.0  0.5014140027470328  0.23596872988484965  0.48584645221128064  1.0000
  C   C14       1.0  0.8329216237848851  0.04250968452738669  0.5669448000182817  1.0000
  C   C15       1.0  0.8937320903974573  0.047527505363446965  0.49162797509357553  1.0000
  C   C16       1.0  0.9246805230370662  0.9329700307917145  0.4532968354881353  1.0000
  C   C17       1.0  0.89376375020084  0.8122703971948185  0.4915887408828308  1.0000
  C   C18       1.0  0.832936238158383  0.8053261361234874  0.5669266827550079  1.0000
  C   C19       1.0  0.8028735348989452  0.9209472929217533  0.604160899464957  1.0000
  C   C20       1.0  0.988999071298014  0.9404845394847322  0.37363532072080763  1.0000
  O   O1        1.0  0.01609626164147837  0.04935774234958168  0.3400726063933206  1.0000
  Cl  Cl1       1.0  0.029842762069002268  0.8003903931584324  0.3230514061843581  1.0000
  H   H10       1.0  0.8096614865466393  0.3680833076949339  0.595753295199442  1.0000
  H   H11       1.0  0.9170934721237133  0.14102693000746913  0.46269359493570295  1.0000
  H   H12       1.0  0.9168689406803662  0.7232040455466038  0.46297181901065715  1.0000
  H   H13       1.0  0.7559631694164081  0.9163082935004784  0.6622622728400578  1.0000
  H   H14       1.0  0.8096079981317581  0.47515196935308357  0.5958169358470458  1.0000
  C   C21       1.0  0.8329093294513557  0.4239320691825603  0.18559364665870515  1.0000
  C   C22       1.0  0.7649540195653104  0.47314717685306285  0.18075286430747162  1.0000
  C   C23       1.0  0.7307604465929982  0.4979111979352431  0.0607377428785656  1.0000
  C   C24       1.0  0.7650341981620651  0.4730892003023994  0.9456111312395947  1.0000
  C   C25       1.0  0.8329485304047534  0.42390377541169755  0.9482778659249838  1.0000
  C   C26       1.0  0.8665327304336583  0.3995810271883505  0.06881471309950027  1.0000
  O   O2        1.0  0.6629294924744731  0.5470364688315827  0.051604045326112624  1.0000
  C   C27       1.0  0.6217220905283504  0.5768803202664667  0.16008660252889184  1.0000
  H   H15       1.0  0.8588023405397083  0.4051806189031433  0.5148677496614746  1.0000
  H   H16       1.0  0.7388657514550102  0.4920410028581892  0.2702957470712122  1.0000
  H   H17       1.0  0.7381658924792266  0.49254810447963604  0.8538429904325927  1.0000
  H   H18       1.0  0.9189332635478643  0.36163116160083986  0.07174383084980684  1.0000
  H   H19       1.0  0.8586503171670262  0.4052902762067095  0.6218780234582053  1.0000
  H   H20       1.0  0.6132968451666534  0.487867526587335  0.2261993629543242  1.0000
  H   H21       1.0  0.5705971411102765  0.6139064276922435  0.12454334696237979  1.0000
  H   H22       1.0  0.6474212576367344  0.6533830961898165  0.21336709002544674  1.0000
  Zn  Zn1       1.0  0.7569165186072049  0.4236987557330951  0.5669963088920507  1.0000
  Zn  Zn2       1.0  0.9089346890938953  0.42413643718675975  0.5668745963967223  1.0000
  C   C28       1.0  0.8329394648269143  0.41873483298825015  0.8041143286688038  1.0000
  C   C29       1.0  0.8329134029458013  0.4291020035163169  0.32975670270947033  1.0000
  C   C30       1.0  0.8329296293462668  0.6611377839139776  0.5617553138937383  1.0000
  C   C31       1.0  0.8329231865269585  0.18669749195480034  0.5721157867968623  1.0000
  O   O3        1.0  0.8906048733896244  0.43099751213761156  0.378092952142693  1.0000
  O   O4        1.0  0.8906262682834959  0.4171705346405634  0.7556853284713643  1.0000
  O   O5        1.0  0.8906175483876827  0.6129139808276258  0.5599787099008726  1.0000
  O   O6        1.0  0.8906135414071079  0.23525407509611254  0.5737994733866743  1.0000
  O   O7        1.0  0.7752376144176512  0.6125811176757978  0.5600714319368023  1.0000
  O   O8        1.0  0.7752463343366135  0.41683923197657924  0.755777981229671  1.0000
  O   O9        1.0  0.7752249394077857  0.4306661642704728  0.3781840436111281  1.0000
  O   O10       1.0  0.7752336074272578  0.23492271793546518  0.5738906622163238  1.0000
