data_image0
_chemical_formula_structural       NC6NC3H6C6NH7C6NCH7Zn2C4O8
_chemical_formula_sum              "N4 C26 H20 Zn2 O8"
_cell_length_a       14.934028789175542
_cell_length_b       9.274771166103582
_cell_length_c       9.273390368590327
_cell_angle_alpha    86.06293122453995
_cell_angle_beta     89.96634751040418
_cell_angle_gamma    90.55950156128424

_space_group_name_H-M_alt    "P 1"
_space_group_IT_number       1

loop_
  _space_group_symop_operation_xyz
  'x, y, z'

loop_
  _atom_site_type_symbol
  _atom_site_label
  _atom_site_symmetry_multiplicity
  _atom_site_fract_x
  _atom_site_fract_y
  _atom_site_fract_z
  _atom_site_occupancy
  N   N1        1.0  0.853445770919949  0.5608690293600245  0.40680713681005387  1.0000
  C   C1        1.0  0.7759526109437078  0.5597634221157  0.40613042045955555  1.0000
  C   C2        1.0  0.6795471819178875  0.558382965348849  0.4052856665444597  1.0000
  C   C3        1.0  0.6324771327206072  0.6658927237517829  0.47096867753592103  1.0000
  C   C4        1.0  0.5389582679114254  0.664784323844499  0.47029137250020914  1.0000
  C   C5        1.0  0.4915972566568675  0.5562210328681134  0.40396477683015686  1.0000
  C   C6        1.0  0.39496649334314565  0.5585503816535269  0.40538917524702156  1.0000
  N   N2        1.0  0.3174982817506079  0.5603990170787116  0.40651994326791985  1.0000
  C   C7        1.0  0.5386521543704712  0.4472238945783524  0.3373725009245898  1.0000
  C   C8        1.0  0.4895756235266221  0.32919304367790225  0.2652629349760468  1.0000
  C   C9        1.0  0.6328093726322428  0.44946330905358445  0.3387407216618741  1.0000
  H   H1        1.0  0.668067045076802  0.7506004470577892  0.5227213867593825  1.0000
  H   H2        1.0  0.5034640328842365  0.7488396733320544  0.5216453711497577  1.0000
  H   H3        1.0  0.4471462708628567  0.3773325101266869  0.17658004747374426  1.0000
  H   H4        1.0  0.44642170824010496  0.2671847136240335  0.34547927436829773  1.0000
  H   H5        1.0  0.5365420145258906  0.25274268386802246  0.21854922688554604  1.0000
  H   H6        1.0  0.6698038702707063  0.36652614930899197  0.2880701695473138  1.0000
  C   C10       1.0  0.082727244685741  0.13704859085358922  0.40745081554474866  1.0000
  C   C11       1.0  0.062126117575501655  0.21900840435450686  0.27857693924780347  1.0000
  C   C12       1.0  0.04988528749310304  0.1525929219039044  0.1488801588060884  1.0000
  C   C13       1.0  0.058292555182948486  0.0028301208034888768  0.14711776481812744  1.0000
  C   C14       1.0  0.07723793534179485  0.919533739182207  0.27422214047358184  1.0000
  C   C15       1.0  0.08822535251122066  0.9842084953249829  0.40588875631164256  1.0000
  N   N3        1.0  0.029834347396933563  0.23763662116434947  0.01858940327561109  1.0000
  H   H7        1.0  0.18349089509420258  0.2199591776965433  0.7228136786511188  1.0000
  H   H8        1.0  0.057611274312105304  0.33559980145840274  0.2780261024720512  1.0000
  H   H9        1.0  0.049298273563118215  0.9502913952317956  0.047328915109136296  1.0000
  H   H10       1.0  0.08118421162682726  0.8033218574359172  0.2700919796236463  1.0000
  H   H11       1.0  0.15246441328309834  0.6893578896322348  0.6204498342127791  1.0000
  H   H12       1.0  0.023664959230537356  0.3497162737357149  0.018546409586739587  1.0000
  H   H13       1.0  0.020924293547357253  0.18914020883138516  0.9211707375645601  1.0000
  C   C16       1.0  0.08548860134800584  0.5561303583815429  0.9834322671855539  1.0000
  C   C17       1.0  0.1677105783372237  0.5531810076913299  0.056989139994100504  1.0000
  C   C18       1.0  0.24858511922516513  0.5636421105494034  0.981504901319525  1.0000
  C   C19       1.0  0.24929331187594983  0.5774412582579174  0.8298510841142108  1.0000
  C   C20       1.0  0.1676013268936447  0.5779574522183546  0.7554887570736868  1.0000
  C   C21       1.0  0.0854640038819392  0.5651267166788907  0.82990726462292  1.0000
  N   N4        1.0  0.3316920463169366  0.5895616654570304  0.748989363249943  1.0000
  C   C22       1.0  0.4201023453840994  0.5896421239086584  0.8159225320721618  1.0000
  H   H14       1.0  0.9437064900439349  0.4869850320070526  0.2694874942768033  1.0000
  H   H15       1.0  0.3102710174846355  0.562252321264588  0.04259017111501297  1.0000
  H   H16       1.0  0.8760598313888333  0.45327525856941725  0.7347519633686417  1.0000
  H   H17       1.0  0.3288487569618421  0.5991243159879439  0.6360977005581587  1.0000
  H   H18       1.0  0.4265141592176953  0.6821673718572958  0.8852168498268523  1.0000
  H   H19       1.0  0.43035550387689603  0.48652271465749286  0.8816598351032258  1.0000
  H   H20       1.0  0.47264805253166653  0.6004936515550179  0.7309793817359574  1.0000
  Zn  Zn1       1.0  0.9873612896451104  0.5607296170278377  0.4067325826502217  1.0000
  Zn  Zn2       1.0  0.18358271606359788  0.5605267388998298  0.40660630259553776  1.0000
  C   C23       1.0  0.08542934268903646  0.557679800793812  0.6699159693620386  1.0000
  C   C24       1.0  0.085516817559359  0.5635783744324476  0.14342305260916  1.0000
  C   C25       1.0  0.08718164023103347  0.824016174023463  0.4004406688608743  1.0000
  C   C26       1.0  0.08376444181108811  0.29724026906459944  0.41289843318895536  1.0000
  O   O1        1.0  0.15999125504562617  0.5659947125408433  0.19706951071216763  1.0000
  O   O2        1.0  0.15988242054942844  0.5551083902958287  0.6161732547372241  1.0000
  O   O3        1.0  0.16129641910789605  0.7701783969272646  0.39857004088053466  1.0000
  O   O4        1.0  0.15857718960018857  0.3509247151487489  0.4146726165279754  1.0000
  O   O5        1.0  0.012366749147787452  0.7703316408496406  0.39866626875329336  1.0000
  O   O6        1.0  0.01095276183486149  0.5552633664271232  0.6162694025668609  1.0000
  O   O7        1.0  0.011061596114784413  0.5661496199900011  0.19716392581538217  1.0000
  O   O8        1.0  0.009647530595584312  0.35107961342928795  0.4147671397075807  1.0000
