data_image0
_chemical_formula_structural       NC9NC3NH7C8NH7C6OCH6Zn2C4O8
_chemical_formula_sum              "N4 C31 H20 O9 Zn2"
_cell_length_a       16.053384444249904
_cell_length_b       9.274263428431858
_cell_length_c       9.273891588657152
_cell_angle_alpha    86.03948257069723
_cell_angle_beta     89.48625385378584
_cell_angle_gamma    89.79185309571561

_space_group_name_H-M_alt    "P 1"
_space_group_IT_number       1

loop_
  _space_group_symop_operation_xyz
  'x, y, z'

loop_
  _atom_site_type_symbol
  _atom_site_label
  _atom_site_symmetry_multiplicity
  _atom_site_fract_x
  _atom_site_fract_y
  _atom_site_fract_z
  _atom_site_occupancy
  N   N1        1.0  0.79920583119464  0.5445943856471485  0.405666467381403  1.0000
  C   C1        1.0  0.7485738485891288  0.5207255030013604  0.32261290013423105  1.0000
  C   C2        1.0  0.6856520373813415  0.4910683594480396  0.21944012769993584  1.0000
  C   C3        1.0  0.6996520105774646  0.4763340252458819  0.07435440923083347  1.0000
  C   C4        1.0  0.6230391500072225  0.4476796373592045  0.016380775839455408  1.0000
  C   C5        1.0  0.5655675756492069  0.44652602091837196  0.12922370400801264  1.0000
  C   C6        1.0  0.4747870770484064  0.4199685329625141  0.11787056430863017  1.0000
  C   C7        1.0  0.4188514260642757  0.46835100909963173  0.22205944071620132  1.0000
  C   C8        1.0  0.3331817756472269  0.44316273333086253  0.2111850960105217  1.0000
  C   C9        1.0  0.2764696538030079  0.4935068747658151  0.31800503885248843  1.0000
  N   N2        1.0  0.2308897812411531  0.5339764499537643  0.4038715439040066  1.0000
  C   C10       1.0  0.3027209236190622  0.3694677606270962  0.09613718227989354  1.0000
  C   C11       1.0  0.3576480944226634  0.3212202573878986  0.9921831314465619  1.0000
  C   C12       1.0  0.4431120481161441  0.3462204828263263  0.0026174592488650257  1.0000
  N   N3        1.0  0.6045171216131113  0.473164838452923  0.2530154260084765  1.0000
  H   H1        1.0  0.7586302033585854  0.48540142988755536  0.01706084442763101  1.0000
  H   H2        1.0  0.6110444018322337  0.431361108048999  0.9041014708291811  1.0000
  H   H3        1.0  0.4412471070522935  0.5274138198897622  0.3105818480917335  1.0000
  H   H4        1.0  0.2366045769689832  0.3494303080916382  0.08679285350730681  1.0000
  H   H5        1.0  0.3339742560805812  0.26397827320722755  0.9033998461399637  1.0000
  H   H6        1.0  0.4842475414114685  0.3061186470420012  0.9213514673684763  1.0000
  H   H7        1.0  0.5780387296973988  0.47673213416639815  0.3559632495913445  1.0000
  C   C13       1.0  0.012414915340108083  0.11576951288044035  0.40508625041787494  1.0000
  C   C14       1.0  0.002067243083628155  0.1981959144461303  0.2733997295665196  1.0000
  C   C15       1.0  0.9998856749736885  0.13216116027771552  0.14287169866881344  1.0000
  C   C16       1.0  0.008674930038296447  0.9821447833850121  0.1407987908974926  1.0000
  C   C17       1.0  0.016789948200514274  0.8982607269940592  0.2716110372190623  1.0000
  C   C18       1.0  0.01768854652144336  0.9627902280820475  0.40446419988561444  1.0000
  C   C19       1.0  0.005079802869087931  0.9109772487739384  0.00017870101695782942  1.0000
  C   C20       1.0  0.9187564963656328  0.8738752850218011  0.9685029644708213  1.0000
  N   N4        1.0  0.8506233209616546  0.8445902368776139  0.9435115127761701  1.0000
  H   H8        1.0  0.08324135880937722  0.19529071546224125  0.7371038399622643  1.0000
  H   H9        1.0  0.9974700982455273  0.31490660037779744  0.2710581167648325  1.0000
  H   H10       1.0  0.9921194210496764  0.19837933855871093  0.043014842541774234  1.0000
  H   H11       1.0  0.020392612897679463  0.7816654305149714  0.2696974427108878  1.0000
  H   H12       1.0  0.062125708632138954  0.6662374021019825  0.6299683890632024  1.0000
  H   H13       1.0  0.04354634074456046  0.8109661244756567  0.005596769637595588  1.0000
  H   H14       1.0  0.029964017920661726  0.984369332697692  0.910376078541808  1.0000
  C   C21       1.0  0.01639253142736786  0.5354266869107758  0.9814970141912877  1.0000
  C   C22       1.0  0.08498658290329986  0.5946645234115573  0.049742340558136096  1.0000
  C   C23       1.0  0.14892284958383972  0.6647878698429492  0.9696159575437733  1.0000
  C   C24       1.0  0.1444943477129652  0.6760291783371561  0.8181858719044315  1.0000
  C   C25       1.0  0.07764485003206922  0.6158750403928935  0.7485917125541626  1.0000
  C   C26       1.0  0.013710905830209843  0.5431329573729116  0.8280533924325453  1.0000
  O   O1        1.0  0.215231037214203  0.7223059672500569  0.044504954375090174  1.0000
  C   C27       1.0  0.2842966822820212  0.796519570032327  0.9770876310622022  1.0000
  H   H15       1.0  0.8177121950972133  0.45172023532590516  0.09340312479340818  1.0000
  H   H16       1.0  0.1928207348758263  0.7299210231423603  0.7530237752164752  1.0000
  H   H17       1.0  0.8811783674037252  0.48102856142646516  0.5532081182058799  1.0000
  H   H18       1.0  0.2625448591061714  0.8946651822448322  0.9127133466055266  1.0000
  H   H19       1.0  0.31858246714391725  0.7240885808668277  0.9065831182761893  1.0000
  H   H20       1.0  0.3271503511141445  0.829943377252522  0.061728566151824545  1.0000
  Zn  Zn1       1.0  0.9237804417314014  0.5415265081712015  0.40515681030206635  1.0000
  Zn  Zn2       1.0  0.10631503677274706  0.5370326849775471  0.4043929902786274  1.0000
  C   C28       1.0  0.014180174709362168  0.5359309479885633  0.6680403556338612  1.0000
  C   C29       1.0  0.015917307948430937  0.5426300170871656  0.14150957674346243  1.0000
  C   C30       1.0  0.016705620599364975  0.8026330649985882  0.3988379014965746  1.0000
  C   C31       1.0  0.013391788740514166  0.27592616957079175  0.4107121092613326  1.0000
  O   O2        1.0  0.08502870696496712  0.5433358461248572  0.1949213933714764  1.0000
  O   O3        1.0  0.08360830430657273  0.5318133193532468  0.6140484031520803  1.0000
  O   O4        1.0  0.08564669524851509  0.7471786883804074  0.3966655195904476  1.0000
  O   O5        1.0  0.08299025414291261  0.32797048796423955  0.41230416911083445  1.0000
  O   O6        1.0  0.9471051620711707  0.7505887067195322  0.3972456317229307  1.0000
  O   O7        1.0  0.9450667821570773  0.5352250697337425  0.6146284371570512  1.0000
  O   O8        1.0  0.9464871900474809  0.5467475304709488  0.19549969442743342  1.0000
  O   O9        1.0  0.9444487368154738  0.3313821629788105  0.4128825782421375  1.0000
