data_image0
_chemical_formula_structural       NC6NC3H6C9H9C6SCH6Zn2C4O8
_chemical_formula_sum              "N2 C29 H21 S1 Zn2 O8"
_cell_length_a       14.934028789175542
_cell_length_b       10.297183801781406
_cell_length_c       10.302812801239593
_cell_angle_alpha    85.53397989939683
_cell_angle_beta     89.97499208564275
_cell_angle_gamma    89.9601079490019

_space_group_name_H-M_alt    "P 1"
_space_group_IT_number       1

loop_
  _space_group_symop_operation_xyz
  'x, y, z'

loop_
  _atom_site_type_symbol
  _atom_site_label
  _atom_site_symmetry_multiplicity
  _atom_site_fract_x
  _atom_site_fract_y
  _atom_site_fract_z
  _atom_site_occupancy
  N   N1        1.0  0.8431481615014815  0.42091961444600356  0.5668228456226487  1.0000
  C   C1        1.0  0.7656621185661556  0.4199304155219481  0.5662119037865745  1.0000
  C   C2        1.0  0.6692655758678222  0.41869530388449605  0.5654492566746361  1.0000
  C   C3        1.0  0.6215034504427377  0.5148866235589294  0.6247483492014092  1.0000
  C   C4        1.0  0.5279917207613725  0.5138949152827775  0.6241368736281518  1.0000
  C   C5        1.0  0.481329567682615  0.41676097642281  0.5642567481036482  1.0000
  C   C6        1.0  0.38468380969862453  0.41884508316162905  0.5655427025844604  1.0000
  N   N2        1.0  0.3072036979542889  0.42049908461459884  0.5665635653178009  1.0000
  C   C7        1.0  0.5290861163311441  0.319238870882179  0.5041367658219951  1.0000
  C   C8        1.0  0.4807693896294167  0.21363408843430465  0.43903573083782627  1.0000
  C   C9        1.0  0.6232289187389805  0.3212425232325915  0.5053720051926451  1.0000
  H   H1        1.0  0.6565480709453444  0.5906764607793459  0.6714710643812252  1.0000
  H   H2        1.0  0.49195639341473696  0.5891010608267825  0.6704996303383253  1.0000
  H   H3        1.0  0.43801856527953076  0.25783582181642384  0.3592118575094376  1.0000
  H   H4        1.0  0.4380262251865233  0.15702351767010853  0.5112159304790251  1.0000
  H   H5        1.0  0.5282279165034318  0.14523234976290667  0.3968622737840026  1.0000
  H   H6        1.0  0.6607573105643635  0.24703684360840605  0.4596262683196943  1.0000
  C   C10       1.0  0.07518336658089562  0.03923377332108947  0.5668771501262779  1.0000
  C   C11       1.0  0.07257301087629384  0.049096123825948204  0.43026098935407336  1.0000
  C   C12       1.0  0.0712354421956549  0.9375324071905957  0.36026853522692015  1.0000
  C   C13       1.0  0.0725625208838136  0.8139250405074957  0.42973148555245233  1.0000
  C   C14       1.0  0.07517711223239094  0.8021749055740799  0.5665204452824415  1.0000
  C   C15       1.0  0.07646961753182113  0.9153054165813606  0.6342003509782193  1.0000
  C   C16       1.0  0.06841191043230911  0.957631430690423  0.21250851081670374  1.0000
  C   C17       1.0  0.0159801352063893  0.8589620330177052  0.14026628933098162  1.0000
  C   C18       1.0  0.11799351639317157  0.859177796621034  0.1360850022287956  1.0000
  H   H7        1.0  0.07156545759138444  0.14432590041390392  0.3775196138622789  1.0000
  H   H8        1.0  0.07158077479633418  0.7263262254998005  0.3784547290672251  1.0000
  H   H9        1.0  0.07848311296739749  0.9069689636058003  0.7396025881062214  1.0000
  H   H10       1.0  0.08010344434073069  0.5727657701004354  0.8248762802060069  1.0000
  H   H11       1.0  0.06750519976628566  0.05834781734533867  0.16501584097314903  1.0000
  H   H12       1.0  0.9861001810967748  0.7753516019505389  0.19936581169258094  1.0000
  H   H13       1.0  0.9843897621406253  0.8998636334710882  0.048428827808293606  1.0000
  H   H14       1.0  0.1500812132156164  0.7756992300700711  0.19264529495836744  1.0000
  H   H15       1.0  0.1460254752198173  0.9002031340775443  0.04180256452958275  1.0000
  C   C19       1.0  0.07518025840908571  0.42070434505581145  0.18545035078479488  1.0000
  C   C20       1.0  0.04498124083212482  0.5502782659282935  0.17420938049932475  1.0000
  C   C21       1.0  0.029724315334815222  0.6145587659850769  0.05164086191203232  1.0000
  C   C22       1.0  0.044981160108084936  0.5502781296361188  0.9390582109189354  1.0000
  C   C23       1.0  0.07518020032841698  0.4207043363540644  0.9479472544508791  1.0000
  C   C24       1.0  0.09010455065479946  0.3565392515827308  0.07168305688364505  1.0000
  S   S1        1.0  0.9913245056973471  0.7802046270964885  0.03877356699445444  1.0000
  C   C25       1.0  0.8735414819220353  0.7349244411726839  0.04237273537931707  1.0000
  H   H16       1.0  0.032984968343405786  0.6017453980433153  0.260311078332192  1.0000
  H   H17       1.0  0.03298478907144008  0.6017452110766717  0.8449607655377522  1.0000
  H   H18       1.0  0.11338215408957915  0.25658454600908565  0.07944730970787427  1.0000
  H   H19       1.0  0.8576638055776559  0.677148820766745  0.9587623025830401  1.0000
  H   H20       1.0  0.8576641890739565  0.6771501332651666  0.13499699378847652  1.0000
  H   H21       1.0  0.8320982768862799  0.8246261641858443  0.03541746880896768  1.0000
  Zn  Zn1       1.0  0.9770645787119061  0.42079477755553585  0.5667555160406339  1.0000
  Zn  Zn2       1.0  0.1732873108959855  0.4206132803992007  0.5666415142356913  1.0000
  C   C26       1.0  0.0751782584991534  0.4155292092125031  0.8038214465272557  1.0000
  C   C27       1.0  0.07517577384139357  0.4258804858380776  0.32957570916408874  1.0000
  C   C28       1.0  0.07517367312242879  0.6579627923549782  0.5614143571633079  1.0000
  C   C29       1.0  0.07518029227383556  0.18344534201864682  0.5719828685133508  1.0000
  O   O1        1.0  0.14963977306657905  0.4275431014185599  0.3779022355962364  1.0000
  O   O2        1.0  0.14964277272480297  0.4137278614934668  0.7554080220931756  1.0000
  O   O3        1.0  0.14963806614439779  0.6094960468006061  0.5596625823131551  1.0000
  O   O4        1.0  0.14964441268938777  0.23177492546617476  0.5736475780669006  1.0000
  O   O5        1.0  0.0007074099573156665  0.6096331325519122  0.5597494522414985  1.0000
  O   O6        1.0  0.0007121165208148213  0.4138665079850788  0.7554948220682787  1.0000
  O   O7        1.0  0.0007091169226263156  0.4276817026415274  0.3779874746849472  1.0000
  O   O8        1.0  0.0007137565418431386  0.23191351739773802  0.5737329144970411  1.0000
