data_image0
_chemical_formula_structural       NC9NC5H8C6NCOCH9C8H6Zn2C4O8
_chemical_formula_sum              "N3 C34 H23 O9 Zn2"
_cell_length_a       17.807436237873137
_cell_length_b       10.300268703208214
_cell_length_c       9.275144076552241
_cell_angle_alpha    85.95897192473107
_cell_angle_beta     89.86257050345318
_cell_angle_gamma    88.37019024828581

_space_group_name_H-M_alt    "P 1"
_space_group_IT_number       1

loop_
  _space_group_symop_operation_xyz
  'x, y, z'

loop_
  _atom_site_type_symbol
  _atom_site_label
  _atom_site_symmetry_multiplicity
  _atom_site_fract_x
  _atom_site_fract_y
  _atom_site_fract_z
  _atom_site_occupancy
  N   N1        1.0  0.7004414323243512  0.37796195806523025  0.3986462486968963  1.0000
  C   C1        1.0  0.6398098251248758  0.3426996027931737  0.38641157685563876  1.0000
  C   C2        1.0  0.5643907696763142  0.29883711601347507  0.3711929735115296  1.0000
  C   C3        1.0  0.5458266764754774  0.22671761879309793  0.2546571097771826  1.0000
  C   C4        1.0  0.4725983049385173  0.1840184750614986  0.23978912298082003  1.0000
  C   C5        1.0  0.4168852332274515  0.21306109822911812  0.34142098471764015  1.0000
  C   C6        1.0  0.3390627089390985  0.16779836997178132  0.32571125403364753  1.0000
  C   C7        1.0  0.27699027813320454  0.24972548051260032  0.3544990332550971  1.0000
  C   C8        1.0  0.2036197058621742  0.2068234006548482  0.3396462307175139  1.0000
  C   C9        1.0  0.14049833388048086  0.29144418737772093  0.36883787683394886  1.0000
  N   N2        1.0  0.0897617369011983  0.3594734528690182  0.39230715404191324  1.0000
  C   C10       1.0  0.19173795365887497  0.08173607178062925  0.2959775154398135  1.0000
  C   C11       1.0  0.2529529785076655  0.9997950530491938  0.26718042505323036  1.0000
  C   C12       1.0  0.3262032584867988  0.04230124540382452  0.2818084438998721  1.0000
  C   C13       1.0  0.4361416486207438  0.28567641602981775  0.4582001564889726  1.0000
  C   C14       1.0  0.5094222077578436  0.32818412520136486  0.4728953967522984  1.0000
  H   H1        1.0  0.5878935106279627  0.20375003029629113  0.17506769969900485  1.0000
  H   H2        1.0  0.45931193692150807  0.129779780332004  0.1477610636820328  1.0000
  H   H3        1.0  0.2856021433134677  0.3473803459470812  0.3865476037693638  1.0000
  H   H4        1.0  0.1352306105751703  0.047630237236055535  0.28421900477942197  1.0000
  H   H5        1.0  0.24363703705392079  0.9029521551352134  0.2337995919095348  1.0000
  H   H6        1.0  0.3727689206305831  0.9764309651396057  0.2606679834293617  1.0000
  H   H7        1.0  0.3947978064487236  0.3081137079280529  0.5392262498660745  1.0000
  H   H8        1.0  0.5232318498832512  0.3836363247740535  0.5637674173804683  1.0000
  C   C15       1.0  0.8951815274462227  0.9873663328763919  0.39548394097703565  1.0000
  C   C16       1.0  0.9072200313905026  0.9952402151453842  0.24545316663602534  1.0000
  C   C17       1.0  0.9143122885031778  0.8818606932264261  0.17014376170386525  1.0000
  C   C18       1.0  0.9070502377624574  0.760088985351682  0.2454918904713051  1.0000
  C   C19       1.0  0.895028857808747  0.7500588746051139  0.39548184152577437  1.0000
  C   C20       1.0  0.8894411361641393  0.8642794081665894  0.46976897341490775  1.0000
  N   N3        1.0  0.9254664209581269  0.888385253177285  0.016195525986527175  1.0000
  C   C21       1.0  0.9692441142334095  0.9849278015439661  0.938031730700495  1.0000
  O   O1        1.0  0.011939798909918586  0.05631345074889471  0.003897975112749697  1.0000
  C   C22       1.0  0.9686003882096177  0.9948308179366404  0.7765731573984884  1.0000
  H   H9        1.0  0.8895107236314205  0.3118711963727383  0.4522050226675219  1.0000
  H   H10       1.0  0.9095912018901052  0.08960877936495004  0.1867758213644422  1.0000
  H   H11       1.0  0.9114669527453849  0.6731466502112085  0.18641756766169065  1.0000
  H   H12       1.0  0.8801766975184764  0.8573962692750408  0.5854891588754143  1.0000
  H   H13       1.0  0.889361506218504  0.4189249921805572  0.45199415544440047  1.0000
  H   H14       1.0  0.9045324162931335  0.8135918262504547  0.9586207526707341  1.0000
  H   H15       1.0  0.910934456427002  0.9802777511294221  0.7366464878347656  1.0000
  H   H16       1.0  0.9870490416957769  0.09235082453845322  0.7342428572856816  1.0000
  H   H17       1.0  0.007209130159518738  0.9190227517923951  0.7362660214507635  1.0000
  C   C23       1.0  0.8933362387547312  0.36613921716010484  0.9722262171392481  1.0000
  C   C24       1.0  0.8443388911848146  0.45315722351204474  0.03899722740676382  1.0000
  C   C25       1.0  0.8013681708434173  0.5463232436402736  0.9567611810065189  1.0000
  C   C26       1.0  0.8066175182106701  0.5543724779917923  0.8062451804510533  1.0000
  C   C27       1.0  0.8540553067710486  0.46733330132484086  0.7377437313026394  1.0000
  C   C28       1.0  0.8968741600085071  0.3712860019079163  0.8187396250857344  1.0000
  C   C29       1.0  0.7625549885233749  0.6511601475764064  0.7216569754084347  1.0000
  C   C30       1.0  0.7256659428405948  0.7321940959459237  0.6508206380579677  1.0000
  H   H18       1.0  0.04954117066058703  0.18824954272908334  0.08828789081278511  1.0000
  H   H19       1.0  0.8405816571219819  0.45115263802330874  0.15572854067681347  1.0000
  H   H20       1.0  0.7645496094860449  0.6130028161966341  0.01079867431316339  1.0000
  H   H21       1.0  0.8562079349513065  0.4726272196677672  0.6206240381398587  1.0000
  H   H22       1.0  0.00041928396887969295  0.24746717755296754  0.5472402211261463  1.0000
  H   H23       1.0  0.693285018372001  0.8033246254352551  0.5886395628957208  1.0000
  Zn  Zn1       1.0  0.8127908967828258  0.37262316039452176  0.39682525866335516  1.0000
  Zn  Zn2       1.0  0.9774123058872378  0.36480173689893286  0.39413999338514716  1.0000
  C   C31       1.0  0.8962047750983456  0.36513976182135294  0.6587304698853489  1.0000
  C   C32       1.0  0.894000225495671  0.3722866894661949  0.13223489430242807  1.0000
  C   C33       1.0  0.8950298545636635  0.6058589933684506  0.3897387253537581  1.0000
  C   C34       1.0  0.8951750904900199  0.13156590082489705  0.4012267165980514  1.0000
  O   O2        1.0  0.9566960334689384  0.37137598239609715  0.18491622389248932  1.0000
  O   O3        1.0  0.9584528060172289  0.36011320723398343  0.6040106711770903  1.0000
  O   O4        1.0  0.9575032069247725  0.5544970801430691  0.3867979480403223  1.0000
  O   O5        1.0  0.9576455759337327  0.17699212078866688  0.4021288398756879  1.0000
  O   O6        1.0  0.8325575705590913  0.5604327791752227  0.3888364130815822  1.0000
  O   O7        1.0  0.8335071690146415  0.36605046603077307  0.6060490593630854  1.0000
  O   O8        1.0  0.8317503892828941  0.377313185400731  0.18695287918020378  1.0000
  O   O9        1.0  0.8326999321981111  0.18292931516208077  0.4041656032257399  1.0000
