data_image0
_chemical_formula_structural       NC12NC2H8C6SCNH5C9NC2H9Zn2C4O8
_chemical_formula_sum              "N4 C36 H22 S1 Zn2 O8"
_cell_length_a       17.80743265337812
_cell_length_b       9.27526961838325
_cell_length_c       9.273598843048154
_cell_angle_alpha    85.37004702228423
_cell_angle_beta     91.13569736745053
_cell_angle_gamma    88.87871087483882

_space_group_name_H-M_alt    "P 1"
_space_group_IT_number       1

loop_
  _space_group_symop_operation_xyz
  'x, y, z'

loop_
  _atom_site_type_symbol
  _atom_site_label
  _atom_site_symmetry_multiplicity
  _atom_site_fract_x
  _atom_site_fract_y
  _atom_site_fract_z
  _atom_site_occupancy
  N   N1        1.0  0.7050753021575037  0.5736424502717081  0.45261076867385963  1.0000
  C   C1        1.0  0.654360320969667  0.607044672579627  0.37641991290215837  1.0000
  C   C2        1.0  0.5912658476209179  0.6485945813288878  0.2816480869193547  1.0000
  C   C3        1.0  0.6031883038017755  0.7096484832956558  0.14121731305368646  1.0000
  C   C4        1.0  0.5420001597893573  0.749508660904942  0.04910052913191221  1.0000
  C   C5        1.0  0.46873637746519864  0.7286130639189503  0.09668255258992509  1.0000
  C   C6        1.0  0.4558359736517125  0.667423274503721  0.2376329151025167  1.0000
  C   C7        1.0  0.5178814803911745  0.6275668501767344  0.3297313683597909  1.0000
  C   C8        1.0  0.3779989713692012  0.6452663755028577  0.2883877210992285  1.0000
  C   C9        1.0  0.3585637500390607  0.6743661312882994  0.42967524389429745  1.0000
  C   C10       1.0  0.28526963122323035  0.6535163437988667  0.47730253379196386  1.0000
  C   C11       1.0  0.23046589674558152  0.6032773621799155  0.38457215982328097  1.0000
  C   C12       1.0  0.1550327621389077  0.581801879581703  0.4337533953106721  1.0000
  N   N2        1.0  0.09438986380681622  0.5645370364825255  0.4732917251634521  1.0000
  C   C13       1.0  0.24920843815211896  0.5739854495695962  0.24388712815684002  1.0000
  C   C14       1.0  0.3224506221499374  0.5948538330686686  0.1959755929936129  1.0000
  H   H1        1.0  0.6597063373977434  0.726399537136659  0.10302474140885765  1.0000
  H   H2        1.0  0.5513468580332169  0.7970787626522481  0.9406580542916713  1.0000
  H   H3        1.0  0.4221889438714532  0.7620738488656296  0.023945290192893372  1.0000
  H   H4        1.0  0.5092413729264692  0.5784598210023355  0.4380290051787417  1.0000
  H   H5        1.0  0.399776050879283  0.7150841736719648  0.5027095911022534  1.0000
  H   H6        1.0  0.2713205269105674  0.6769342395940923  0.5863034968784149  1.0000
  H   H7        1.0  0.2072705779626289  0.534670841025606  0.17131762094572767  1.0000
  H   H8        1.0  0.3358787010568766  0.5697285668705321  0.0873043861056475  1.0000
  C   C15       1.0  0.9018592677058689  0.14568897591931318  0.46116019925659346  1.0000
  C   C16       1.0  0.8755002830288129  0.2302661551473886  0.3370942204015941  1.0000
  C   C17       1.0  0.8433890326135804  0.1659510132339912  0.2204573030782171  1.0000
  C   C18       1.0  0.8371499770713121  0.01595561732886153  0.22548435497169741  1.0000
  C   C19       1.0  0.8638975351546114  0.9298580761343633  0.3469909958083113  1.0000
  C   C20       1.0  0.8976131090180711  0.992479198924167  0.46475501448635126  1.0000
  S   S1        1.0  0.7949793092618472  0.9338459572712616  0.0761731870665896  1.0000
  C   C21       1.0  0.8817078641343085  0.916280193410303  0.9897034810108183  1.0000
  N   N3        1.0  0.9385795042752396  0.9047762098505326  0.9330450254678557  1.0000
  H   H9        1.0  0.9823012714121412  0.4088935883271817  0.6459440004139299  1.0000
  H   H10       1.0  0.878074726713547  0.34716687322250395  0.33162995966379727  1.0000
  H   H11       1.0  0.8228014988358076  0.23313290057057223  0.12652501975604125  1.0000
  H   H12       1.0  0.8600425159739784  0.8133500810866164  0.3477454660122645  1.0000
  H   H13       1.0  0.02095192042841498  0.8631071656664558  0.7341162893756774  1.0000
  C   C22       1.0  0.9012344250822097  0.5723470090679059  0.039213304498766366  1.0000
  C   C23       1.0  0.8505681193997598  0.6645666276493671  0.103334347451294  1.0000
  C   C24       1.0  0.7962536495817414  0.7455353579735563  0.020042701570730067  1.0000
  C   C25       1.0  0.7911228270452898  0.7365873159554428  0.8700088256517877  1.0000
  C   C26       1.0  0.842345624916374  0.6465177553224968  0.8045177072781158  1.0000
  C   C27       1.0  0.8982379141911518  0.5658211431392881  0.8867019402587264  1.0000
  C   C28       1.0  0.7328755072189296  0.8222474939920039  0.7816964206951065  1.0000
  C   C29       1.0  0.7501999500421903  0.8915402230495865  0.6463707553635465  1.0000
  C   C30       1.0  0.6945286824483098  0.9715909072513265  0.5652528270224022  1.0000
  N   N4        1.0  0.6239279261415437  0.9824022818310734  0.6168668530323567  1.0000
  C   C31       1.0  0.605374507598545  0.9167531698157145  0.74723438569124  1.0000
  C   C32       1.0  0.6593207813534578  0.8357361420943333  0.8319621111037794  1.0000
  H   H14       1.0  0.013836999846503106  0.4679914751682579  0.33305269261539516  1.0000
  H   H15       1.0  0.8518632003121765  0.6718676048771894  0.21935835224524314  1.0000
  H   H16       1.0  0.7583081936820179  0.8158048730328598  0.07324134503142488  1.0000
  H   H17       1.0  0.8391626565978122  0.6400863839977746  0.6884078054637395  1.0000
  H   H18       1.0  0.06776795178917294  0.41868565957469767  0.8019697632628984  1.0000
  H   H19       1.0  0.8064186384542646  0.8855819159562245  0.6045658862889951  1.0000
  H   H20       1.0  0.7075606604231045  0.025528376702535382  0.46122296488300174  1.0000
  H   H21       1.0  0.5486046281263885  0.9271513868643415  0.7851055835486633  1.0000
  H   H22       1.0  0.64343045157665  0.782671157882478  0.9348109256619894  1.0000
  Zn  Zn1       1.0  0.8174230682203361  0.5710109110642463  0.4585871484767561  1.0000
  Zn  Zn2       1.0  0.9820421126089793  0.5671567240637714  0.4673270655187456  1.0000
  C   C33       1.0  0.8988314672805212  0.5613108290538296  0.7264839817229796  1.0000
  C   C34       1.0  0.900635501560549  0.5768585821124066  0.1994304770649864  1.0000
  C   C35       1.0  0.898432180536186  0.8324621740880409  0.45832514643771183  1.0000
  C   C36       1.0  0.9010347405462314  0.3057055055331004  0.46758937894597286  1.0000
  O   O1        1.0  0.962906598323217  0.5769037731809232  0.256517550045543  1.0000
  O   O2        1.0  0.9615024231063121  0.558339314729893  0.6760298835462326  1.0000
  O   O3        1.0  0.9611791465521247  0.7772974631853042  0.4594896884375177  1.0000
  O   O4        1.0  0.963229819034901  0.35794563718793015  0.4730576340213494  1.0000
  O   O5        1.0  0.8362353056180324  0.7802219992569606  0.452856576984064  1.0000
  O   O6        1.0  0.8365585737544912  0.561265583663517  0.6693967025069723  1.0000
  O   O7        1.0  0.8379627554074014  0.5798300052287204  0.24988263390153007  1.0000
  O   O8        1.0  0.8382859757852072  0.36087185809018235  0.4664228260201578  1.0000
