data_image0
_chemical_formula_structural       NC8NH4C6NH5C6SCH6Zn2C4O8
_chemical_formula_sum              "N3 C25 H15 S1 Zn2 O8"
_cell_length_a       14.927258825633057
_cell_length_b       9.274771166103582
_cell_length_c       9.275274088470228
_cell_angle_alpha    86.00109441054587
_cell_angle_beta     89.72578083849504
_cell_angle_gamma    90.59705077502286

_space_group_name_H-M_alt    "P 1"
_space_group_IT_number       1

loop_
  _space_group_symop_operation_xyz
  'x, y, z'

loop_
  _atom_site_type_symbol
  _atom_site_label
  _atom_site_symmetry_multiplicity
  _atom_site_fract_x
  _atom_site_fract_y
  _atom_site_fract_z
  _atom_site_occupancy
  N   N1        1.0  0.8584274290642817  0.5635348571719163  0.4075158289133403  1.0000
  C   C1        1.0  0.780901004517183  0.5635348308057362  0.40751583861171503  1.0000
  C   C2        1.0  0.6844683626091559  0.5635348310389647  0.40751589368123664  1.0000
  C   C3        1.0  0.6371049376612262  0.4743472102602652  0.3179590222996871  1.0000
  C   C4        1.0  0.543393625605935  0.4743471201372158  0.3179589940060463  1.0000
  C   C5        1.0  0.49665236579989  0.5635348832606293  0.40751580578619806  1.0000
  C   C6        1.0  0.5440157911330404  0.6527225133302663  0.4970725691036531  1.0000
  C   C7        1.0  0.6377271701798312  0.6527226034504056  0.4970725974032222  1.0000
  C   C8        1.0  0.4002197235835764  0.5635347850960515  0.40751575103931215  1.0000
  N   N2        1.0  0.3226932997299848  0.5635348664186153  0.40751576248999943  1.0000
  H   H1        1.0  0.6725590062310578  0.40495401220877464  0.2482787694854729  1.0000
  H   H2        1.0  0.5074553499116735  0.4049539894523899  0.24827886673746402  1.0000
  H   H3        1.0  0.5085617225632089  0.7221157113817571  0.5667528219178668  1.0000
  H   H4        1.0  0.6736653784973726  0.7221157248472042  0.5667528327299711  1.0000
  C   C9        1.0  0.08781204855925506  0.13994574818076755  0.4083013093655432  1.0000
  C   C10       1.0  0.06757283985287386  0.22203047940772636  0.279429294088392  1.0000
  C   C11       1.0  0.05570012802631652  0.15574930698606337  0.14973964112791105  1.0000
  C   C12       1.0  0.06411632423831404  0.005997008377932815  0.14798264916230908  1.0000
  C   C13       1.0  0.08270412658969706  0.9225760347052369  0.2750843398384588  1.0000
  C   C14       1.0  0.09331717537496952  0.9871129841638013  0.4067428293171625  1.0000
  N   N3        1.0  0.03601544106197885  0.2409200834427556  0.01945124767288319  1.0000
  H   H5        1.0  0.18771311942219904  0.22260161410195867  0.7236907748095514  1.0000
  H   H6        1.0  0.05540546731477146  0.9535620500530948  0.04819954560086103  1.0000
  H   H7        1.0  0.15696739246166813  0.6920847068796054  0.6213193353343927  1.0000
  H   H8        1.0  0.02984335148318129  0.352993540557877  0.01940444136649  1.0000
  H   H9        1.0  0.027382020746152595  0.19252484270664527  0.9220381115541666  1.0000
  C   C15       1.0  0.09179648816096098  0.5595099147428708  0.9843325345540492  1.0000
  C   C16       1.0  0.16841527809956025  0.6102833255171689  0.053587466621676016  1.0000
  C   C17       1.0  0.24013312260386432  0.6725487914095387  0.9734088483721034  1.0000
  C   C18       1.0  0.23642281274958798  0.6841791871158183  0.8228273265610544  1.0000
  C   C19       1.0  0.16171124550348837  0.6323138999877365  0.7520714910238082  1.0000
  C   C20       1.0  0.0893327264576471  0.5675488066876814  0.8307115697496275  1.0000
  S   S1        1.0  0.336771943115089  0.7379493497337644  0.06397687868761404  1.0000
  C   C21       1.0  0.29189909974459183  0.9184985496692533  0.07537689581770568  1.0000
  H   H10       1.0  0.8744778291723782  0.5001582210249547  0.0931464484626161  1.0000
  H   H11       1.0  0.2917835785012086  0.7325096568365421  0.7602405376260051  1.0000
  H   H12       1.0  0.9440505745352288  0.5217039755675488  0.5538811183673995  1.0000
  H   H13       1.0  0.2794208115458354  0.9689075185607847  0.9653220695002189  1.0000
  H   H14       1.0  0.22853050640576522  0.9130800640588234  0.13875243570497364  1.0000
  H   H15       1.0  0.3412762178114327  0.9858019360605155  0.1302523965915472  1.0000
  Zn  Zn1       1.0  0.9924044898451065  0.5635310661128399  0.4075241473860973  1.0000
  Zn  Zn2       1.0  0.18871614064483655  0.5635269280619319  0.4075192994475709  1.0000
  C   C22       1.0  0.08975908514080921  0.5602828205416038  0.6707383832909133  1.0000
  C   C23       1.0  0.0913637004815251  0.5667769949577367  0.14430520158588034  1.0000
  C   C24       1.0  0.09228868390050793  0.8269257688043221  0.40129471360982083  1.0000
  C   C25       1.0  0.08883402324898926  0.3001323143870931  0.4137489512881334  1.0000
  O   O1        1.0  0.1657176604810544  0.569208030115745  0.19799166181974126  1.0000
  O   O2        1.0  0.16440111989215178  0.557847552573868  0.6170478307441021  1.0000
  O   O3        1.0  0.16644279423430186  0.7731651197098297  0.39947015838352296  1.0000
  O   O4        1.0  0.1636759195326256  0.353890472273632  0.4155692261102968  1.0000
  O   O5        1.0  0.0174446439658178  0.7731675219040506  0.3994742207174425  1.0000
  O   O6        1.0  0.015402981105005382  0.5578516870789252  0.6170518130509315  1.0000
  O   O7        1.0  0.016719526470421853  0.5692120978983202  0.19799391159642843  1.0000
  O   O8        1.0  0.01467778513677254  0.353894530765269  0.41557158395107896  1.0000
