data_image0
_chemical_formula_structural       NC6NC3H6C9H10C6NH7Zn2C4O8
_chemical_formula_sum              "N3 C28 H23 Zn2 O8"
_cell_length_a       14.934028789175542
_cell_length_b       10.297183801781406
_cell_length_c       9.274774538082514
_cell_angle_alpha    85.03689992379437
_cell_angle_beta     90.32448570792074
_cell_angle_gamma    89.9601079490019

_space_group_name_H-M_alt    "P 1"
_space_group_IT_number       1

loop_
  _space_group_symop_operation_xyz
  'x, y, z'

loop_
  _atom_site_type_symbol
  _atom_site_label
  _atom_site_symmetry_multiplicity
  _atom_site_fract_x
  _atom_site_fract_y
  _atom_site_fract_z
  _atom_site_occupancy
  N   N1        1.0  0.8371070096050646  0.43341500423793994  0.4068003753788705  1.0000
  C   C1        1.0  0.7596183914176706  0.43243113191036203  0.40612121837380255  1.0000
  C   C2        1.0  0.6632186339966968  0.43120266953668607  0.4052734173264949  1.0000
  C   C3        1.0  0.615706467081053  0.5268769803590271  0.4711935945114809  1.0000
  C   C4        1.0  0.5221921598978013  0.5258906033328274  0.4705138441744039  1.0000
  C   C5        1.0  0.47527759912976064  0.42927873915632353  0.4039477583164748  1.0000
  C   C6        1.0  0.3786372617222337  0.43135163409034766  0.40537729700947756  1.0000
  N   N2        1.0  0.3011614531352702  0.43299673498434654  0.40651214493709076  1.0000
  C   C7        1.0  0.5227807290408619  0.3322807995295845  0.33711503431525247  1.0000
  C   C8        1.0  0.4741895873864873  0.22724361111954464  0.26474509443556915  1.0000
  C   C9        1.0  0.6169287382499955  0.33427368224319715  0.33848819526442453  1.0000
  H   H1        1.0  0.6509480339406071  0.6022594579334103  0.523133169502894  1.0000
  H   H2        1.0  0.4863522616052554  0.600692527587682  0.5220532692632307  1.0000
  H   H3        1.0  0.43110228813378526  0.27214130201737935  0.17600842665227256  1.0000
  H   H4        1.0  0.43175067810745427  0.17000372546080023  0.34498462841236965  1.0000
  H   H5        1.0  0.5214703440111779  0.15920956864198546  0.21786272839874865  1.0000
  H   H6        1.0  0.6542643018934482  0.2604668443196356  0.2876346838255923  1.0000
  C   C10       1.0  0.06914244358971566  0.05172868965031552  0.40686074329258815  1.0000
  C   C11       1.0  0.0659562211988427  0.06278215053222236  0.2549906026092348  1.0000
  C   C12       1.0  0.06432361917519143  0.9518286745737752  0.1771830885129484  1.0000
  C   C13       1.0  0.0659434992332355  0.8276156837794028  0.2544019766634462  1.0000
  C   C14       1.0  0.06913468565309033  0.8146729318929194  0.4064642103018379  1.0000
  C   C15       1.0  0.07071247640337663  0.927213364555616  0.48170096663692763  1.0000
  C   C16       1.0  0.06087724692841088  0.973215968051276  0.01292480773771421  1.0000
  C   C17       1.0  0.0081409551031324  0.8751764260207181  0.9326163268208156  1.0000
  C   C18       1.0  0.11013671125979903  0.8754286448605918  0.9279681749707183  1.0000
  H   H7        1.0  0.07037869970240092  0.37500788295566295  0.46538117447687255  1.0000
  H   H8        1.0  0.06472635160111873  0.158471761442069  0.19636034927392054  1.0000
  H   H9        1.0  0.06474561051904913  0.7404639335728682  0.19739987546853488  1.0000
  H   H10       1.0  0.07317026508125578  0.9179579449095133  0.5988719696170277  1.0000
  H   H11       1.0  0.0751500435230616  0.5830112787507291  0.693666959774724  1.0000
  H   H12       1.0  0.059770344379887146  0.07434642732808786  0.9601293082170153  1.0000
  H   H13       1.0  0.9785101182715188  0.7910507260866358  0.9983146506841306  1.0000
  H   H14       1.0  0.9761634672601438  0.9168787264264577  0.8305246846416101  1.0000
  H   H15       1.0  0.14246282195776594  0.7914569481322166  0.9908437496126852  1.0000
  H   H16       1.0  0.13777124920545614  0.91727599919477  0.8231585609659438  1.0000
  C   C19       1.0  0.0675315389043003  0.43652479341735184  0.9828454485502554  1.0000
  C   C20       1.0  0.1309793430919667  0.5131275336153038  0.04950270408291235  1.0000
  C   C21       1.0  0.19844443475054308  0.5790257665139847  0.9686615992618437  1.0000
  C   C22       1.0  0.2030081316982152  0.5686199147604021  0.8196867550977758  1.0000
  C   C23       1.0  0.13984757981269233  0.49487861223362534  0.7513252713140486  1.0000
  C   C24       1.0  0.0707455668066665  0.4298767893515687  0.8304795319792544  1.0000
  N   N3        1.0  0.26292020296629315  0.6554468527184659  0.03832355531651133  1.0000
  H   H17       1.0  0.9336889510461616  0.18270223213090733  0.10898088041661635  1.0000
  H   H18       1.0  0.1293674591327003  0.519290068191627  0.16552063271947448  1.0000
  H   H19       1.0  0.25509625817669307  0.6187633971907515  0.7560975436077157  1.0000
  H   H20       1.0  0.1438405222021253  0.4912615280081339  0.6351516194099145  1.0000
  H   H21       1.0  0.9778477986975059  0.2628755590187666  0.5645422928034551  1.0000
  H   H22       1.0  0.2603198823392884  0.6635955490792614  0.149690859715222  1.0000
  H   H23       1.0  0.313715906333321  0.7045699438671741  0.9790243622131025  1.0000
  Zn  Zn1       1.0  0.9710231430067288  0.43329075437146286  0.40672552806187023  1.0000
  Zn  Zn2       1.0  0.16724539464852672  0.4331102511585386  0.40659879729988035  1.0000
  C   C25       1.0  0.07013610700051037  0.4259582878792578  0.6702612328476714  1.0000
  C   C26       1.0  0.06813457391605143  0.4404443536531369  0.1430632319324061  1.0000
  C   C27       1.0  0.06910972327656673  0.6705053369395224  0.4007879980835236  1.0000
  C   C28       1.0  0.06916089099071665  0.19589574330573784  0.4125365444961311  1.0000
  O   O1        1.0  0.1428022799097346  0.44168562649645915  0.1967856929245997  1.0000
  O   O2        1.0  0.144396548163777  0.4245790405318455  0.6164421711919539  1.0000
  O   O3        1.0  0.14356673218839555  0.6220538645211432  0.3988406274984144  1.0000
  O   O4        1.0  0.1436320285173398  0.24421081271032397  0.41438712844363446  1.0000
  O   O5        1.0  0.9946364421768629  0.6221901928827487  0.3989371969537707  1.0000
  O   O6        1.0  0.9954662578404697  0.424716930243656  0.6165386628833887  1.0000
  O   O7        1.0  0.9938719830669893  0.4418234845484684  0.196880449447701  1.0000
  O   O8        1.0  0.9947017320813175  0.24434866062224184  0.4144819931768957  1.0000
