data_image0
_chemical_formula_structural       NC12NC2H8C12ClH9C12ClH9Zn2C4O8
_chemical_formula_sum              "N2 C42 H26 Cl2 Zn2 O8"
_cell_length_a       19.240039667572717
_cell_length_b       10.299768534541528
_cell_length_c       10.299771906710088
_cell_angle_alpha    85.54593327708469
_cell_angle_beta     90.00915032277288
_cell_angle_gamma    90.01670575511149

_space_group_name_H-M_alt    "P 1"
_space_group_IT_number       1

loop_
  _space_group_symop_operation_xyz
  'x, y, z'

loop_
  _atom_site_type_symbol
  _atom_site_label
  _atom_site_symmetry_multiplicity
  _atom_site_fract_x
  _atom_site_fract_y
  _atom_site_fract_z
  _atom_site_occupancy
  N   N1        1.0  0.654576556289928  0.4216723833753828  0.5675335718829364  1.0000
  C   C1        1.0  0.5944281874787539  0.42167246737939745  0.5675334899509028  1.0000
  C   C2        1.0  0.5196101503441648  0.4216725847034759  0.5675333526530673  1.0000
  C   C3        1.0  0.48313521107379603  0.357178118945033  0.6709415700317769  1.0000
  C   C4        1.0  0.4104644530612818  0.3570672138361217  0.6710281057013718  1.0000
  C   C5        1.0  0.3732779154018257  0.4216726773333635  0.5675331249767905  1.0000
  C   C6        1.0  0.41046705617539475  0.48627832775897506  0.46403833880410533  1.0000
  C   C7        1.0  0.48313773470031185  0.4861671871176292  0.4641249969602277  1.0000
  C   C8        1.0  0.2960728249417664  0.4216725987005061  0.56753302955647  1.0000
  C   C9        1.0  0.2588709149658161  0.3084008681076864  0.6093968185729775  1.0000
  C   C10       1.0  0.1862002354637143  0.308507793615733  0.6093054996715654  1.0000
  C   C11       1.0  0.1497405380036117  0.4216724695113445  0.5675330904588407  1.0000
  C   C12       1.0  0.07492250085215409  0.4216723556978337  0.5675333391127237  1.0000
  N   N2        1.0  0.0147741840114929  0.4216723148145139  0.5675335475296213  1.0000
  C   C13       1.0  0.1862283514074383  0.5348372212490817  0.5257606283600034  1.0000
  C   C14       1.0  0.2588990565215721  0.5349443269232155  0.5256691468750381  1.0000
  H   H1        1.0  0.5108491861844416  0.30724490509967795  0.7516797944470188  1.0000
  H   H2        1.0  0.3833704753441917  0.30793175471001766  0.7528818863148308  1.0000
  H   H3        1.0  0.38337450310423365  0.5354138139519247  0.3821845073438659  1.0000
  H   H4        1.0  0.5108535310606662  0.5361003006218112  0.38338704833432113  1.0000
  H   H5        1.0  0.28595293674364064  0.2192373723786134  0.6405589552098165  1.0000
  H   H6        1.0  0.15847436870815368  0.22024317040739969  0.6415006586505967  1.0000
  H   H7        1.0  0.1585243947126224  0.6231018199166013  0.4935654839299006  1.0000
  H   H8        1.0  0.2860035135694903  0.6241079018410454  0.4945069654715244  1.0000
  C   C15       1.0  0.8346131551015531  0.040306966756215916  0.5675314208451447  1.0000
  C   C16       1.0  0.8391789396579237  0.049911907087061946  0.4310626898795908  1.0000
  C   C17       1.0  0.8415592769885706  0.9376394373929989  0.3619202874034375  1.0000
  C   C18       1.0  0.8393116847239072  0.8146241851637458  0.43107817978957447  1.0000
  C   C19       1.0  0.8347442651268875  0.8030277158134328  0.5675468487058011  1.0000
  C   C20       1.0  0.8324210899613521  0.9164264405928688  0.6350092437620911  1.0000
  C   C21       1.0  0.846390420540304  0.9488543313644948  0.21754774663115636  1.0000
  C   C22       1.0  0.8068440055627194  0.04241582758570449  0.14308405740109098  1.0000
  C   C23       1.0  0.8114531422766829  0.05277580817971361  0.007204503879192806  1.0000
  C   C24       1.0  0.8555414296472155  0.9700969138509515  0.944096784207515  1.0000
  C   C25       1.0  0.89507632437299  0.8768480966243812  0.01704925509353972  1.0000
  C   C26       1.0  0.8905906148532501  0.8660958605624114  0.15294345183591607  1.0000
  Cl  Cl1       1.0  0.8612468347759026  0.9833410938770086  0.7736120305890721  1.0000
  H   H9        1.0  0.8328377046815876  0.36410076291619503  0.6195294720843716  1.0000
  H   H10       1.0  0.8418539908860553  0.1449394388821097  0.3783301756536961  1.0000
  H   H11       1.0  0.8401729179590436  0.7278056231154578  0.37813211091216137  1.0000
  H   H12       1.0  0.8288980934617132  0.9082484825538168  0.7402885876609167  1.0000
  H   H13       1.0  0.8330315379608549  0.4711551708761634  0.6195527009046449  1.0000
  H   H14       1.0  0.7717067541480847  0.10637831094236572  0.18982746308208287  1.0000
  H   H15       1.0  0.7805896465108917  0.12490586617049784  0.9510928306281201  1.0000
  H   H16       1.0  0.9294383169927638  0.8128394841042855  0.9686163740097143  1.0000
  H   H17       1.0  0.9223359334961012  0.7942595412186  0.20756082192346703  1.0000
  C   C27       1.0  0.8346456444678457  0.42177367923715137  0.18616989191067512  1.0000
  C   C28       1.0  0.8976983943877224  0.49065610917650115  0.17984358761692154  1.0000
  C   C29       1.0  0.9296816095674018  0.5254512375400919  0.05950765869198538  1.0000
  C   C30       1.0  0.8977654024138155  0.49044094856873177  0.9445738069665772  1.0000
  C   C31       1.0  0.8347117593152846  0.4215610785006454  0.9489084553517579  1.0000
  C   C32       1.0  0.8035052976767113  0.38761234071905215  0.07017452899797183  1.0000
  C   C33       1.0  0.9963866227218748  0.598321708841125  0.053868703696924765  1.0000
  C   C34       1.0  0.007388985750153677  0.7013260777179431  0.13367289365130497  1.0000
  C   C35       1.0  0.07020460687543717  0.769812891900689  0.12817800528582168  1.0000
  C   C36       1.0  0.12273068766707307  0.7363423215191021  0.04318925078796565  1.0000
  C   C37       1.0  0.11239198901594638  0.6341974130509349  0.963513873334632  1.0000
  C   C38       1.0  0.04963863058822814  0.5655102785020794  0.96863312639455  1.0000
  Cl  Cl2       1.0  0.20150072875458047  0.8223919167128166  0.03653137870967238  1.0000
  H   H18       1.0  0.8106010625637354  0.3955833292207267  0.5160294700923793  1.0000
  H   H19       1.0  0.922569429326412  0.5158554331433258  0.2688248998696079  1.0000
  H   H20       1.0  0.9217214201027617  0.51858182928714  0.8514648077949153  1.0000
  H   H21       1.0  0.7548625813160056  0.33447383668507547  0.07428677908216508  1.0000
  H   H22       1.0  0.8106986585167343  0.39526875987667154  0.6231102789233951  1.0000
  H   H23       1.0  0.9671019535094169  0.7299790039986496  0.1990474190289273  1.0000
  H   H24       1.0  0.07790328845324333  0.8490862639141672  0.1898132300603188  1.0000
  H   H25       1.0  0.1529965665740871  0.6076916179412342  0.8977958163727404  1.0000
  H   H26       1.0  0.04309345441558387  0.4856966323839005  0.907217425508601  1.0000
  Zn  Zn1       1.0  0.7585218201780913  0.42166889433251264  0.5675410532174918  1.0000
  Zn  Zn2       1.0  0.9108289379923776  0.4216652075204584  0.5675366648897313  1.0000
  C   C39       1.0  0.834696828892396  0.41642760827758973  0.8047344034208628  1.0000
  C   C40       1.0  0.8346555927597712  0.42690813210401535  0.3303434421382512  1.0000
  C   C41       1.0  0.8347154506230006  0.6588587367782128  0.5623687930670345  1.0000
  C   C42       1.0  0.8346369187952  0.1844754432971991  0.572709121700617  1.0000
  O   O1        1.0  0.8924586879788594  0.4286242365749628  0.37872773717381514  1.0000
  O   O2        1.0  0.8924913117467255  0.41470772599237815  0.7563464038798133  1.0000
  O   O3        1.0  0.8925055699783843  0.610473927859116  0.5606344587920378  1.0000
  O   O4        1.0  0.8924443777682539  0.23285804402676424  0.5744395848885187  1.0000
  O   O5        1.0  0.7769063284272704  0.6104760578288806  0.560638133213371  1.0000
  O   O6        1.0  0.7768920704546337  0.41471141627100905  0.7563500090872757  1.0000
  O   O7        1.0  0.7768594465898516  0.4286278820333253  0.3787297809782353  1.0000
  O   O8        1.0  0.7768451363832485  0.23286168016926068  0.5744417260606776  1.0000
