data_image0
_chemical_formula_structural       NC6NC3H6C6NH7C6NCOH5Zn2C4O8
_chemical_formula_sum              "N4 C26 H18 O9 Zn2"
_cell_length_a       14.934028789175542
_cell_length_b       9.274771166103582
_cell_length_c       9.27373355559583
_cell_angle_alpha    86.06900368676713
_cell_angle_beta     89.98656969987877
_cell_angle_gamma    90.55950156128424

_space_group_name_H-M_alt    "P 1"
_space_group_IT_number       1

loop_
  _space_group_symop_operation_xyz
  'x, y, z'

loop_
  _atom_site_type_symbol
  _atom_site_label
  _atom_site_symmetry_multiplicity
  _atom_site_fract_x
  _atom_site_fract_y
  _atom_site_fract_z
  _atom_site_occupancy
  N   N1        1.0  0.8530955404206332  0.5606942538953339  0.40687831910721006  1.0000
  C   C1        1.0  0.7756022316822988  0.5595885724142884  0.4062016329917353  1.0000
  C   C2        1.0  0.679196616954802  0.5582080229767623  0.4053569168194171  1.0000
  C   C3        1.0  0.6321410068089809  0.6657249868970152  0.47103699315826053  1.0000
  C   C4        1.0  0.5386219931082958  0.6646165126884305  0.47035971838387475  1.0000
  C   C5        1.0  0.4912464013234979  0.5560459455925948  0.4040360861211736  1.0000
  C   C6        1.0  0.3946159511343075  0.5583754506364884  0.4054604208973118  1.0000
  N   N2        1.0  0.3171479881177316  0.5602242101084918  0.4065911383966019  1.0000
  C   C7        1.0  0.5382866601025573  0.4470415020378938  0.3374467854932903  1.0000
  C   C8        1.0  0.4891942774620608  0.32900274061814083  0.2653404413295477  1.0000
  C   C9        1.0  0.6324441791393595  0.4492810666088363  0.3388149450998117  1.0000
  H   H1        1.0  0.6677422959279086  0.7504383875469343  0.5227873901213476  1.0000
  H   H2        1.0  0.5031390471955663  0.7486774957807965  0.5217114225870467  1.0000
  H   H3        1.0  0.4467454296996864  0.3771324784312837  0.1766615160918259  1.0000
  H   H4        1.0  0.44605799607866214  0.2670032104078548  0.34555319673429863  1.0000
  H   H5        1.0  0.536150399418775  0.2525472562497548  0.21862882036178496  1.0000
  H   H6        1.0  0.6694275379049487  0.366338348234466  0.2881466568959057  1.0000
  C   C10       1.0  0.08237715568588183  0.1368738860013483  0.407521969082969  1.0000
  C   C11       1.0  0.06174769831940873  0.21881956185946264  0.27865385074463034  1.0000
  C   C12       1.0  0.04947835708232007  0.1523898514923323  0.14896286502807254  1.0000
  C   C13       1.0  0.057885237346298135  0.002626857054853772  0.1472005497821498  1.0000
  C   C14       1.0  0.07685855877326064  0.919344418959703  0.2742992465385534  1.0000
  C   C15       1.0  0.08787492012494667  0.9840336191126794  0.40595997964113995  1.0000
  N   N3        1.0  0.029398775258322227  0.237419257676359  0.018677930760978123  1.0000
  H   H7        1.0  0.18321013209721726  0.21981906858736533  0.7228707420854026  1.0000
  H   H8        1.0  0.05723273396593996  0.33541089853580064  0.2781030385797254  1.0000
  H   H9        1.0  0.048869019211770226  0.9500771845080759  0.04741615854125558  1.0000
  H   H10       1.0  0.08080392712785352  0.8031320841290451  0.2701692702201606  1.0000
  H   H11       1.0  0.152161147712082  0.6892065510674824  0.620511471163403  1.0000
  H   H12       1.0  0.023229377640652468  0.3494989055312572  0.018634938993023153  1.0000
  H   H13       1.0  0.020467305929978034  0.18891215838077843  0.9212636176205247  1.0000
  C   C16       1.0  0.0850453006401723  0.5559091381070083  0.9835223654573376  1.0000
  C   C17       1.0  0.0026926942485006075  0.5477133838440329  0.05754003178622047  1.0000
  C   C18       1.0  0.9212302716881074  0.5512063877034787  0.9826346929996331  1.0000
  C   C19       1.0  0.9221270158944962  0.5675839123617967  0.8312562699243244  1.0000
  C   C20       1.0  0.0031192449201238323  0.5736286035557516  0.756039413136044  1.0000
  C   C21       1.0  0.08520675821332535  0.5649983093453069  0.8299595754000806  1.0000
  N   N4        1.0  0.8386331746115435  0.5462308618840113  0.06270960983359952  1.0000
  C   C22       1.0  0.7575295601100378  0.4798890768192568  0.016099593381370795  1.0000
  O   O1        1.0  0.7565633151887968  0.4035540083992109  0.9088898036651378  1.0000
  H   H14       1.0  0.2967010622395334  0.6558549555549031  0.07952053336421172  1.0000
  H   H15       1.0  0.8603486065854811  0.5772504700515317  0.7706622251484454  1.0000
  H   H16       1.0  0.22842699643388809  0.6262160848697402  0.5446517951040764  1.0000
  H   H17       1.0  0.8385613933700637  0.5845846065823461  0.1660580890338239  1.0000
  H   H18       1.0  0.696406326664232  0.492048228111573  0.07653600931438231  1.0000
  Zn  Zn1       1.0  0.9870110427566046  0.560554833384453  0.4068037682783845  1.0000
  Zn  Zn2       1.0  0.18323244141503392  0.5603519414033475  0.40667749386576957  1.0000
  C   C23       1.0  0.08513695122473502  0.5575338887326278  0.6699753962141783  1.0000
  C   C24       1.0  0.0851086875166467  0.5633747053687637  0.14350600264930602  1.0000
  C   C25       1.0  0.08683001019541509  0.8238407001484176  0.4005121356055843  1.0000
  C   C26       1.0  0.08341555035729636  0.29706616182356216  0.41296934333295315  1.0000
  O   O2        1.0  0.15959491806716952  0.5657969285679485  0.1971500638810939  1.0000
  O   O3        1.0  0.15957821486086574  0.5549565825843821  0.6162350827612315  1.0000
  O   O4        1.0  0.1609443778534063  0.770002717841737  0.39864159120307163  1.0000
  O   O5        1.0  0.15822868816390867  0.3507508025380828  0.4147434474031988  1.0000
  O   O6        1.0  0.012014729047005176  0.7701559723204442  0.39873781477646286  1.0000
  O   O7        1.0  0.010648577282410305  0.5551115692632266  0.6163312262950775  1.0000
  O   O8        1.0  0.010665279891535867  0.5659518463745739  0.19724447476593365  1.0000
  O   O9        1.0  0.009299049938270802  0.350905711187945  0.4148379663596016  1.0000
