data_image0
_chemical_formula_structural       NC8NH4C6ClH5C6H6Zn2C4O8
_chemical_formula_sum              "N2 C24 H15 Cl1 Zn2 O8"
_cell_length_a       11.048855714531884
_cell_length_b       9.276545438789551
_cell_length_c       10.681121600428288
_cell_angle_alpha    85.59384611870172
_cell_angle_beta     89.99986981468943
_cell_angle_gamma    89.40961225544244

_space_group_name_H-M_alt    "P 1"
_space_group_IT_number       1

loop_
  _space_group_symop_operation_xyz
  'x, y, z'

loop_
  _atom_site_type_symbol
  _atom_site_label
  _atom_site_symmetry_multiplicity
  _atom_site_fract_x
  _atom_site_fract_y
  _atom_site_fract_z
  _atom_site_occupancy
  N   N1        1.0  0.12603153159683853  0.5780586580808783  0.6194688710707341  1.0000
  C   C1        1.0  0.07202164069040486  0.5201165598131756  0.5456019052767553  1.0000
  C   C2        1.0  0.00463395270964329  0.4478213399166415  0.4534367813886651  1.0000
  C   C3        1.0  0.8769171989712712  0.4478211493614983  0.4534368696682127  1.0000
  C   C4        1.0  0.8147652925271878  0.37635409799092145  0.3623277863124754  1.0000
  C   C5        1.0  0.8788045230043745  0.3054523514576492  0.2719393059673385  1.0000
  C   C6        1.0  0.005210736376522812  0.30545224134437055  0.2719393256015976  1.0000
  C   C7        1.0  0.06802283049233071  0.3763541964168257  0.36232776228294417  1.0000
  C   C8        1.0  0.808278218964014  0.5201166347387698  0.5456018939055134  1.0000
  N   N2        1.0  0.7532654173667397  0.5780587007479492  0.61946889610647  1.0000
  H   H1        1.0  0.7167107964948716  0.37545916462536305  0.36118632390280947  1.0000
  H   H2        1.0  0.830382589173458  0.2504593011720009  0.2018324312512576  1.0000
  H   H3        1.0  0.05458462945396336  0.25045941058366017  0.20183243077827173  1.0000
  H   H4        1.0  0.16609280868095302  0.37545911558384293  0.36118656290145945  1.0000
  C   C9        1.0  0.4433070379366399  0.15462351933857366  0.6192624455039706  1.0000
  C   C10       1.0  0.44375380593764335  0.23827499694963072  0.5036760970882828  1.0000
  C   C11       1.0  0.43318966291950656  0.17319561420956164  0.3906055057064801  1.0000
  C   C12       1.0  0.421928687185803  0.02360447143643451  0.3913816994337887  1.0000
  C   C13       1.0  0.4233489876505607  0.9384145786999211  0.5048464590375636  1.0000
  C   C14       1.0  0.43600165167773053  0.0014827468665026251  0.6196861520421668  1.0000
  Cl  Cl1       1.0  0.43223786902546696  0.27981703383610873  0.24763821209737946  1.0000
  H   H5        1.0  0.5052260677360447  0.4175825250265791  0.8161474070873426  1.0000
  H   H6        1.0  0.44942468993121404  0.35499556283728695  0.5011967256279881  1.0000
  H   H7        1.0  0.41322633005333875  0.9728828791692359  0.3039035383031674  1.0000
  H   H8        1.0  0.41743173782627085  0.8221541132718121  0.5025436959410776  1.0000
  H   H9        1.0  0.3954494099262931  0.7027471627858862  0.8221849841102484  1.0000
  C   C15       1.0  0.4396543571009575  0.5780530935443373  0.25172906519207006  1.0000
  C   C16       1.0  0.35371816902306397  0.4978581390897156  0.19026644759204944  1.0000
  C   C17       1.0  0.35371809266069204  0.4978582315476494  0.05938430768541037  1.0000
  C   C18       1.0  0.4396542613460057  0.5780531642276729  0.9872195009037736  1.0000
  C   C19       1.0  0.5255195224813918  0.6581816610814748  0.0486815049017455  1.0000
  C   C20       1.0  0.5255195071895025  0.6581816387223087  0.17957380355360364  1.0000
  H   H10       1.0  0.5265586167470411  0.6591522275942461  0.5450273900201899  1.0000
  H   H11       1.0  0.28635732791685053  0.4349975436049711  0.24327182691723825  1.0000
  H   H12       1.0  0.2863573020543969  0.43499761147915206  0.014767797725662836  1.0000
  H   H13       1.0  0.592889159418547  0.7210505399743208  0.9957204650892817  1.0000
  H   H14       1.0  0.5928890988751571  0.721050489426531  0.22414483254839457  1.0000
  H   H15       1.0  0.5265589988183739  0.6591517252192274  0.6830983640554273  1.0000
  Zn  Zn1       1.0  0.3070377297685507  0.5780548020575188  0.6194761054968956  1.0000
  Zn  Zn2       1.0  0.5722593483453415  0.5780507300281312  0.6194719045246944  1.0000
  C   C21       1.0  0.4397011652450785  0.5723087726770446  0.8481932017988624  1.0000
  C   C22       1.0  0.4395987933859168  0.5837985787287506  0.3907549320000576  1.0000
  C   C23       1.0  0.43737627223667525  0.8414082930273817  0.6146157547885407  1.0000
  C   C24       1.0  0.4419236108373095  0.3146973259708232  0.6243324449102754  1.0000
  O   O1        1.0  0.5402304219979097  0.5857189800374061  0.4374116855234212  1.0000
  O   O2        1.0  0.5403666177061736  0.5703841930032334  0.8015328987994783  1.0000
  O   O3        1.0  0.5384878803863715  0.7876854589349538  0.6129174585110677  1.0000
  O   O4        1.0  0.5421090687265642  0.36841772442203385  0.6260270319222851  1.0000
  O   O5        1.0  0.33718791888019256  0.787687807666576  0.6129209780941525  1.0000
  O   O6        1.0  0.3390666412498703  0.5703882741454047  0.8015363524775146  1.0000
  O   O7        1.0  0.3389304460556739  0.5857230109316536  0.4374136335537322  1.0000
  O   O8        1.0  0.3408090928683403  0.3684217450028924  0.6260290738369905  1.0000
