data_image0
_chemical_formula_structural       NC11NC3H8C10ClC2H9C10SH8Zn2C4O8
_chemical_formula_sum              "N2 C40 H25 Cl1 S1 Zn2 O8"
_cell_length_a       17.807433833752565
_cell_length_b       10.299769246903262
_cell_length_c       10.297424231287907
_cell_angle_alpha    85.58145817024167
_cell_angle_beta     88.53732848395445
_cell_angle_gamma    90.70297831868984

_space_group_name_H-M_alt    "P 1"
_space_group_IT_number       1

loop_
  _space_group_symop_operation_xyz
  'x, y, z'

loop_
  _atom_site_type_symbol
  _atom_site_label
  _atom_site_symmetry_multiplicity
  _atom_site_fract_x
  _atom_site_fract_y
  _atom_site_fract_z
  _atom_site_occupancy
  N   N1        1.0  0.7074832457341518  0.43797291626711177  0.5344557914686867  1.0000
  C   C1        1.0  0.6566662531950536  0.40326882175964185  0.6010281961319064  1.0000
  C   C2        1.0  0.5934447882439784  0.36009978778885365  0.6838357719096422  1.0000
  C   C3        1.0  0.6051765734073489  0.29659129429908426  0.8065727452208967  1.0000
  C   C4        1.0  0.5438625069703954  0.25510125489328517  0.8870960633446812  1.0000
  C   C5        1.0  0.47066233554720704  0.2768066581197077  0.8455233013169734  1.0000
  C   C6        1.0  0.4579537240461675  0.3404695472661856  0.7223260585562671  1.0000
  C   C7        1.0  0.38018520751139667  0.3635041253518235  0.6779722218698603  1.0000
  C   C8        1.0  0.3613811415717708  0.34658850641688965  0.5483694547929885  1.0000
  C   C9        1.0  0.2881510145405997  0.3682551671698436  0.5067526125129571  1.0000
  C   C10       1.0  0.23278182884523146  0.407155696212909  0.5939181356802781  1.0000
  C   C11       1.0  0.157414920179534  0.4294803593320733  0.550939791853126  1.0000
  N   N2        1.0  0.0968252991657289  0.4474277299186096  0.5163883313703073  1.0000
  C   C12       1.0  0.2508942992046556  0.42428171195753805  0.7229896862718681  1.0000
  C   C13       1.0  0.3240716922529299  0.402580207310632  0.7648619997369415  1.0000
  C   C14       1.0  0.5201251037206016  0.38195502729351305  0.6418191588733508  1.0000
  H   H1        1.0  0.661643602844424  0.2791881752922323  0.8399433220105451  1.0000
  H   H2        1.0  0.5530641197937672  0.20568122872188588  0.9818465047266761  1.0000
  H   H3        1.0  0.42402515971535687  0.24227224027860794  0.9089719015159581  1.0000
  H   H4        1.0  0.40304441956128834  0.3149238828013572  0.47964029831878513  1.0000
  H   H5        1.0  0.27469355769340903  0.3543409637615904  0.40670076631631136  1.0000
  H   H6        1.0  0.2085139419487705  0.45472314755883136  0.7912039463713196  1.0000
  H   H7        1.0  0.3370009788075368  0.41803974380053166  0.8647311127756322  1.0000
  H   H8        1.0  0.5116222524197112  0.4327374717592405  0.5473031188445094  1.0000
  C   C15       1.0  0.9020872267435083  0.06133356510672261  0.5254199082156874  1.0000
  C   C16       1.0  0.9090072794864944  0.07100261938249597  0.3888659817175657  1.0000
  C   C17       1.0  0.9125855337456166  0.9587643279032995  0.31968032086151066  1.0000
  C   C18       1.0  0.9091498916353599  0.8357179326257793  0.388881311100048  1.0000
  C   C19       1.0  0.902228522116969  0.8240572402611075  0.5254350238694168  1.0000
  C   C20       1.0  0.8987361469819632  0.9374227277684604  0.5929396175408872  1.0000
  C   C21       1.0  0.9199076720165604  0.9700464111062536  0.17521770814311477  1.0000
  C   C22       1.0  0.9686083338537554  0.8882656378775861  0.11045862112685922  1.0000
  C   C23       1.0  0.9754332580118724  0.8990788306949008  0.974480026770936  1.0000
  C   C24       1.0  0.9337757351842897  0.9914144673614672  0.9015960959020934  1.0000
  Cl  Cl1       1.0  0.9424213586029424  0.004735932067287064  0.7310050311117626  1.0000
  C   C25       1.0  0.8852180000436581  0.0731183572219507  0.9648573672178258  1.0000
  C   C26       1.0  0.8782598291603224  0.06269451779248425  0.10082185039307023  1.0000
  H   H9        1.0  0.899421625004117  0.3851021906318335  0.5774517217946515  1.0000
  H   H10       1.0  0.9126656213173744  0.16607554525310753  0.33609813909117214  1.0000
  H   H11       1.0  0.9108510597571353  0.7489037247667546  0.3359045554870277  1.0000
  H   H12       1.0  0.8933973892536434  0.9291954091525059  0.6982846275764307  1.0000
  H   H13       1.0  0.899626661105187  0.4921608097438032  0.5774729405425956  1.0000
  H   H14       1.0  0.002115815906342354  0.8171609027945921  0.16501858740343245  1.0000
  H   H15       1.0  0.013268015243900423  0.8358302376607459  0.9259281376700965  1.0000
  H   H16       1.0  0.8526853782049625  0.14453618782698396  0.9087994802430854  1.0000
  H   H17       1.0  0.8396118480760996  0.12587862277983786  0.14768594081637287  1.0000
  C   C27       1.0  0.902107286792092  0.44256644948488577  0.1439917243563511  1.0000
  C   C28       1.0  0.9769962110784576  0.487499586304701  0.1364812050583879  1.0000
  C   C29       1.0  0.015240468660792313  0.5101839148693599  0.015498439074929538  1.0000
  C   C30       1.0  0.9771240535266135  0.48779549954462703  0.9012477468586733  1.0000
  C   C31       1.0  0.9022084144899613  0.44282433235454094  0.9068632649773659  1.0000
  C   C32       1.0  0.8651899694157108  0.42038667310446437  0.02864718626602003  1.0000
  C   C33       1.0  0.09448544230565778  0.5577647384158972  0.007598333432842216  1.0000
  C   C34       1.0  0.14462500061662875  0.5580810035442048  0.10958984279068763  1.0000
  C   C35       1.0  0.21578620712536756  0.6091652018289457  0.07162186610865873  1.0000
  C   C36       1.0  0.22276801020244133  0.6494681297058829  0.9401592602527261  1.0000
  S   S1        1.0  0.14027913135180436  0.6212080809643772  0.8713807561715701  1.0000
  H   H18       1.0  0.8730610244286072  0.4255763012312896  0.47441543369405675  1.0000
  H   H19       1.0  0.004987761537517342  0.5061828160895856  0.2252129388849631  1.0000
  H   H20       1.0  0.005906982502882353  0.5044118916637652  0.807474500966761  1.0000
  H   H21       1.0  0.8074428489221156  0.38572110740651855  0.033756904896364626  1.0000
  H   H22       1.0  0.7607691695617989  0.35782813407577674  0.7102206961305795  1.0000
  H   H23       1.0  0.1313687285270293  0.5213195398578341  0.20877606948750604  1.0000
  H   H24       1.0  0.2612457528015073  0.616110595998024  0.13856997148979922  1.0000
  H   H25       1.0  0.27272449741281735  0.6913838523486731  0.8908113751210074  1.0000
  Zn  Zn1       1.0  0.8198389522510248  0.44069789916279056  0.5292493985246276  1.0000
  Zn  Zn2       1.0  0.9844695773252035  0.4446921310685994  0.5216053119724402  1.0000
  C   C37       1.0  0.9021866814382482  0.43760193454571794  0.762664170961008  1.0000
  C   C38       1.0  0.9021236462196889  0.44778977795633734  0.28819058358423  1.0000
  C   C39       1.0  0.9021972400607795  0.6798844057522158  0.5202563012120374  1.0000
  C   C40       1.0  0.9021130311404207  0.20550574511620612  0.5305985251613521  1.0000
  O   O1        1.0  0.9646055997795864  0.45105289918858166  0.3336841468922953  1.0000
  O   O2        1.0  0.9646555627852536  0.4373693630661517  0.7113685489009209  1.0000
  O   O3        1.0  0.964663246972937  0.6330155026685207  0.5156225181355316  1.0000
  O   O4        1.0  0.9645978594034298  0.25540676748049473  0.5294300828745424  1.0000
  O   O5        1.0  0.8397106139924452  0.6299832613892706  0.5214246302242445  1.0000
  O   O6        1.0  0.8397029300811452  0.4343386820589115  0.7171705917632019  1.0000
  O   O7        1.0  0.8396529669099987  0.4480221723988244  0.33948462807698276  1.0000
  O   O8        1.0  0.839645226541962  0.25237603143483156  0.5352306614440916  1.0000
