data_image0
_chemical_formula_structural       NC6NH4C10H8C6H4Zn2C4O8
_chemical_formula_sum              "N2 C26 H16 Zn2 O8"
_cell_length_a       15.260246347498025
_cell_length_b       15.491143632010285
_cell_length_c       10.681121600428288
_cell_angle_alpha    82.99762469271862
_cell_angle_beta     92.82162249484747
_cell_angle_gamma    89.67314450625503

_space_group_name_H-M_alt    "P 1"
_space_group_IT_number       1

loop_
  _space_group_symop_operation_xyz
  'x, y, z'

loop_
  _atom_site_type_symbol
  _atom_site_label
  _atom_site_symmetry_multiplicity
  _atom_site_fract_x
  _atom_site_fract_y
  _atom_site_fract_z
  _atom_site_occupancy
  N   N1        1.0  0.8163197669546407  0.9480501202706305  0.6145523093363646  1.0000
  C   C1        1.0  0.7417409368783078  0.9485959878797768  0.5888620958237047  1.0000
  C   C2        1.0  0.6490556853515856  0.9492753577002093  0.556887176638077  1.0000
  C   C3        1.0  0.5911488476181466  0.9473696244329088  0.6465974806885023  1.0000
  C   C4        1.0  0.4961848444347012  0.9480491531150138  0.6146081624744886  1.0000
  C   C5        1.0  0.43827807426399  0.9461432317135293  0.7043183845589833  1.0000
  C   C6        1.0  0.3455927585295165  0.9468224659380396  0.6723435601629795  1.0000
  N   N2        1.0  0.27101393046616945  0.947368139309122  0.6466533543445359  1.0000
  H   H1        1.0  0.6273495370393327  0.9513662519197332  0.45846126482895955  1.0000
  H   H2        1.0  0.6141224531599339  0.9452850035244204  0.7447251625493814  1.0000
  H   H3        1.0  0.4732112374902648  0.9501339097196113  0.5164803811866732  1.0000
  H   H4        1.0  0.4599842247105441  0.9440521308478088  0.8027444926572348  1.0000
  C   C7        1.0  0.04630897716159654  0.6929895576699772  0.6473662576216115  1.0000
  C   C8        1.0  0.034613373144818584  0.63479422081486  0.5650233678904988  1.0000
  C   C9        1.0  0.039562252363968264  0.539228514249315  0.6010860047534661  1.0000
  C   C10       1.0  0.08447796729873658  0.5007562663689895  0.7124467892236193  1.0000
  C   C11       1.0  0.08786858175818453  0.4103213435534359  0.7417548896067816  1.0000
  C   C12       1.0  0.04778029348593259  0.3561831278487045  0.6601314777408646  1.0000
  C   C13       1.0  0.002864644161564293  0.39465537562884345  0.5487706979080236  1.0000
  C   C14       1.0  0.9994738984813166  0.48509029864477043  0.5194625882502367  1.0000
  C   C15       1.0  0.05272923831548226  0.2606174211829728  0.6961941192411444  1.0000
  C   C16       1.0  0.041033175757558826  0.20242201407907537  0.6138512939110442  1.0000
  H   H5        1.0  0.05910224527263219  0.6719765969138592  0.746873569118236  1.0000
  H   H6        1.0  0.017908542829540464  0.6579596466740669  0.466795270028201  1.0000
  H   H7        1.0  0.11844902499101569  0.5397175876730873  0.7763630217981969  1.0000
  H   H8        1.0  0.12291485446280559  0.38246247124714383  0.8280635149773996  1.0000
  H   H9        1.0  0.9688934545774895  0.3556941192711403  0.48485445349408307  1.0000
  H   H10       1.0  0.9644277563264994  0.5129492354967102  0.43315396958950464  1.0000
  H   H11       1.0  0.06943426540130138  0.23745200122727186  0.7944221367179192  1.0000
  H   H12       1.0  0.02823951471577768  0.22343490448622658  0.5143440514527449  1.0000
  C   C17       1.0  0.04367111171923699  0.9477057772037981  0.2628635490269764  1.0000
  C   C18       1.0  0.9813723809355089  0.8995582822691208  0.2001813055950623  1.0000
  C   C19       1.0  0.9813723255811171  0.8995583379698224  0.06929915811577536  1.0000
  C   C20       1.0  0.04367104230626715  0.9477058198271684  0.9983539770365675  1.0000
  C   C21       1.0  0.1059183551816194  0.9958134145939446  0.061034610922924726  1.0000
  C   C22       1.0  0.10591834409569856  0.9958134011605104  0.19192690967835557  1.0000
  H   H13       1.0  0.932539694737623  0.8618180001818072  0.25223068478834465  1.0000
  H   H14       1.0  0.932539675991031  0.8618180410393498  0.02372665158300657  1.0000
  H   H15       1.0  0.15475741784638464  0.03355866996641921  0.00902969309388868  1.0000
  H   H16       1.0  0.15475737395609457  0.03355863962544037  0.23745405945789846  1.0000
  Zn  Zn1       1.0  0.9475347143811482  0.947850996324473  0.6238233680440299  1.0000
  Zn  Zn2       1.0  0.1397990738130941  0.9475601767205397  0.6373930400875715  1.0000
  C   C23       1.0  0.04370490773059996  0.9442502546787258  0.8595577540834345  1.0000
  C   C24       1.0  0.043630968650171006  0.9511620096386059  0.4016588531390577  1.0000
  C   C25       1.0  0.042025924375475913  0.10612844718510872  0.615195716599668  1.0000
  C   C26       1.0  0.04530989719147894  0.7892827750920036  0.6460210213187895  1.0000
  O   O1        1.0  0.11658085786956864  0.9522078040955031  0.4533896938893252  1.0000
  O   O2        1.0  0.11667922540233455  0.9429830805064886  0.8181256629922017  1.0000
  O   O3        1.0  0.11532244152887428  0.07370176967235986  0.6208014600658849  1.0000
  O   O4        1.0  0.11793757607197161  0.8214891212338845  0.6507137978808704  1.0000
  O   O5        1.0  0.969396146511871  0.07392205191131551  0.6105026056134186  1.0000
  O   O6        1.0  0.9707529195887481  0.9432044048858502  0.8078266732064578  1.0000
  O   O7        1.0  0.9706545524274488  0.9524290982478817  0.44308920047371375  1.0000
  O   O8        1.0  0.9720112706905096  0.8217104091821972  0.6404133987627181  1.0000
