data_image0
_chemical_formula_structural       NC9NC5H8C12ClH9C12NCOH11Zn2C4O8
_chemical_formula_sum              "N3 C43 H28 Cl1 O9 Zn2"
_cell_length_a       17.807436237873137
_cell_length_b       10.299768534541528
_cell_length_c       10.299148425239204
_cell_angle_alpha    85.5385229165027
_cell_angle_beta     89.37684199315078
_cell_angle_gamma    88.408414792471

_space_group_name_H-M_alt    "P 1"
_space_group_IT_number       1

loop_
  _space_group_symop_operation_xyz
  'x, y, z'

loop_
  _atom_site_type_symbol
  _atom_site_label
  _atom_site_symmetry_multiplicity
  _atom_site_fract_x
  _atom_site_fract_y
  _atom_site_fract_z
  _atom_site_occupancy
  N   N1        1.0  0.7078835986353227  0.3883167549230846  0.5570462468268319  1.0000
  C   C1        1.0  0.6472911787822634  0.35313221895856595  0.5460208665358066  1.0000
  C   C2        1.0  0.5719208681587344  0.3093665309494529  0.5323064905778094  1.0000
  C   C3        1.0  0.5538318306905536  0.23799571704369457  0.4272944715795628  1.0000
  C   C4        1.0  0.48065113993746456  0.19539114628318963  0.41389605981456895  1.0000
  C   C5        1.0  0.42451070291319193  0.22377988044611902  0.5054772061522637  1.0000
  C   C6        1.0  0.3467385024113464  0.17861707523331605  0.4913202468522122  1.0000
  C   C7        1.0  0.2845734621313282  0.2603610500188105  0.5172625820422843  1.0000
  C   C8        1.0  0.2112504267978896  0.21755343958313933  0.503877848762935  1.0000
  C   C9        1.0  0.1480357421266412  0.30198856494243137  0.5301841627297053  1.0000
  N   N2        1.0  0.09722412296765899  0.36986856372620924  0.5513337125115685  1.0000
  C   C10       1.0  0.1995088427852761  0.09274388982979231  0.4645254239843007  1.0000
  C   C11       1.0  0.2608165119211132  0.010986066443052552  0.43857469821617784  1.0000
  C   C12       1.0  0.3340200721871524  0.05339922624246206  0.4517568707754027  1.0000
  C   C13       1.0  0.4432912039790969  0.2956449615549383  0.6107084801772715  1.0000
  C   C14       1.0  0.5165247539065525  0.33805920517577004  0.6239512260476976  1.0000
  H   H1        1.0  0.5962332545186313  0.21554019234770644  0.3555759205031504  1.0000
  H   H2        1.0  0.46774096955618283  0.14174376142172807  0.33096840417053747  1.0000
  H   H3        1.0  0.2930847164610405  0.35781221805134855  0.5461435342503975  1.0000
  H   H4        1.0  0.14303907860849524  0.05871283984580698  0.45392913613482283  1.0000
  H   H5        1.0  0.2516072438294561  0.9143554712629398  0.4084932591793943  1.0000
  H   H6        1.0  0.38065154016078884  0.9876632715048301  0.43270586314819637  1.0000
  H   H7        1.0  0.401606367719611  0.3175609196021742  0.6837216172850866  1.0000
  H   H8        1.0  0.5299636554145711  0.3929275763254169  0.7058371984767353  1.0000
  C   C15       1.0  0.9024865933280505  0.9977304678033837  0.5541888663356422  1.0000
  C   C16       1.0  0.9074548046610953  0.007117720270513266  0.417637599741292  1.0000
  C   C17       1.0  0.9100444591595896  0.8947315233368326  0.3484523166767524  1.0000
  C   C18       1.0  0.9075982861128556  0.7718231977563145  0.4176509855753525  1.0000
  C   C19       1.0  0.9026283074663579  0.7604445000183624  0.5542022160461433  1.0000
  C   C20       1.0  0.9001008464831366  0.873954223276344  0.6217064604886078  1.0000
  C   C21       1.0  0.9153014114612543  0.9057160743658693  0.2039924454340476  1.0000
  C   C22       1.0  0.8725733927990561  0.0013118209583036203  0.13015040385950938  1.0000
  C   C23       1.0  0.8775883212739781  0.011451823584740279  0.9941876708975631  1.0000
  C   C24       1.0  0.9252589712126941  0.9265223462660678  0.9303760653485658  1.0000
  C   C25       1.0  0.9679749031801678  0.8312400476075776  0.0027069591466382125  1.0000
  C   C26       1.0  0.9630933846000321  0.8207014662526751  0.13868237896393731  1.0000
  Cl  Cl1       1.0  0.9314672376337787  0.9394944979857107  0.7597881786522658  1.0000
  H   H9        1.0  0.9005549139637687  0.3216090406156261  0.6062189330363499  1.0000
  H   H10       1.0  0.9103590474092026  0.10201448782899124  0.36485874864252277  1.0000
  H   H11       1.0  0.9085420102092432  0.6849667944279634  0.36468732960953143  1.0000
  H   H12       1.0  0.8962673392997957  0.8659442374542656  0.7270494879888116  1.0000
  H   H13       1.0  0.9007644242795952  0.42865351833511867  0.6062390895471641  1.0000
  H   H14       1.0  0.8345819482699918  0.06706838260877034  0.17745452525426098  1.0000
  H   H15       1.0  0.8442412989269625  0.08516924928202461  0.9385613032320603  1.0000
  H   H16       1.0  0.005128773066974906  0.7654772629631641  0.9537255319418115  1.0000
  H   H17       1.0  0.9973939378657988  0.7472327921002861  0.19280034761666864  1.0000
  C   C27       1.0  0.9026139812529546  0.3792406650498481  0.17279852473197566  1.0000
  C   C28       1.0  0.9788424445644526  0.4111872947163877  0.16771137384601723  1.0000
  C   C29       1.0  0.017372498950147586  0.42717635918750574  0.04800169191339322  1.0000
  C   C30       1.0  0.9786840090439413  0.4108546546283811  0.932456536553315  1.0000
  C   C31       1.0  0.9025009023851879  0.37893434922769503  0.9355925663798099  1.0000
  C   C32       1.0  0.8649128309540245  0.36330551532407557  0.056262820723244296  1.0000
  C   C33       1.0  0.09796766582721084  0.46094994613572754  0.043713424586345966  1.0000
  C   C34       1.0  0.1484384292055776  0.40118807937835443  0.9593737009337366  1.0000
  C   C35       1.0  0.22424211574414987  0.4331092860882937  0.9554880964427195  1.0000
  C   C36       1.0  0.2513496469204002  0.5240969418507491  0.0366012268395759  1.0000
  C   C37       1.0  0.20080467033383798  0.5857085232035081  0.11937368016300143  1.0000
  C   C38       1.0  0.12496705299176725  0.55389559179189  0.12335662590093555  1.0000
  N   N3        1.0  0.32937718486521317  0.5566063835228792  0.028921724774118033  1.0000
  C   C39       1.0  0.37259681075149564  0.5912311927657024  0.1370184390569411  1.0000
  O   O1        1.0  0.34717465857375746  0.5782733625603893  0.2517513272138594  1.0000
  H   H18       1.0  0.7588558960283603  0.31817344159109684  0.38975137440713864  1.0000
  H   H19       1.0  0.008651080171337314  0.4219701706308763  0.25720066662563035  1.0000
  H   H20       1.0  0.007835233820969956  0.42486491481504185  0.8397962380241993  1.0000
  H   H21       1.0  0.80615177445608  0.338681008959293  0.05939680153401827  1.0000
  H   H22       1.0  0.8732010302029655  0.36662054132223754  0.6093255968628357  1.0000
  H   H23       1.0  0.12948408880605927  0.32857711566805026  0.8974774674026862  1.0000
  H   H24       1.0  0.2621930031146409  0.38577354383074697  0.8899754353324401  1.0000
  H   H25       1.0  0.2193330940888314  0.660504185465481  0.17886959811000658  1.0000
  H   H26       1.0  0.08710530727674382  0.6038933383126006  0.1869754591434054  1.0000
  H   H27       1.0  0.35826935839853546  0.5462981498528311  0.9413145568593003  1.0000
  H   H28       1.0  0.42901244002690375  0.6255974644625515  0.12036757629343199  1.0000
  Zn  Zn1       1.0  0.8202388607892471  0.38298953720664164  0.5554052441063639  1.0000
  Zn  Zn2       1.0  0.9848688390670381  0.3751851911719763  0.5529853924454275  1.0000
  C   C40       1.0  0.902519646052053  0.37381874176426994  0.7914081226189759  1.0000
  C   C41       1.0  0.9025898518440175  0.3843575399299394  0.31698261501274  1.0000
  C   C42       1.0  0.9025984144631263  0.6162776097868481  0.5490242331641952  1.0000
  C   C43       1.0  0.9025110269560886  0.14189711426822368  0.5593665745095799  1.0000
  O   O2        1.0  0.9650579715213999  0.38310743559633753  0.36445379165522707  1.0000
  O   O3        1.0  0.9650018704825158  0.36914454848316036  0.7420999606665826  1.0000
  O   O4        1.0  0.9650646345611248  0.5649331901052148  0.5463732674289188  1.0000
  O   O5        1.0  0.9649951512818924  0.18731880596653852  0.560180388336937  1.0000
  O   O6        1.0  0.8401124923942618  0.5708559250767362  0.5482102490337992  1.0000
  O   O7        1.0  0.8400497286123783  0.3750688437584766  0.7439368730483489  1.0000
  O   O8        1.0  0.8401058299242847  0.3890316862412011  0.3662891425196304  1.0000
  O   O9        1.0  0.8400430096655455  0.19324304728380357  0.56201583657624  1.0000
