data_image0
_chemical_formula_structural       NC8NC6H8C7ONH7C9H10Zn2C4O8
_chemical_formula_sum              "N3 C34 H25 O9 Zn2"
_cell_length_a       17.457602349358154
_cell_length_b       10.297852080636378
_cell_length_c       9.272679976505533
_cell_angle_alpha    86.02025868142809
_cell_angle_beta     93.25957942520282
_cell_angle_gamma    91.66731456120219

_space_group_name_H-M_alt    "P 1"
_space_group_IT_number       1

loop_
  _space_group_symop_operation_xyz
  'x, y, z'

loop_
  _atom_site_type_symbol
  _atom_site_label
  _atom_site_symmetry_multiplicity
  _atom_site_fract_x
  _atom_site_fract_y
  _atom_site_fract_z
  _atom_site_occupancy
  N   N1        1.0  0.7165117529969227  0.44177788581704663  0.4747193745740605  1.0000
  C   C1        1.0  0.6554003796397428  0.39575789322075483  0.4629319613820089  1.0000
  C   C2        1.0  0.5793752858391388  0.338514816191434  0.44827901541860043  1.0000
  C   C3        1.0  0.5211434947680581  0.3792989840480422  0.5314506610935483  1.0000
  C   C4        1.0  0.44655853508351656  0.32417956719409213  0.5174799843987066  1.0000
  C   C5        1.0  0.3847533998100736  0.3672436030486048  0.6055619148660878  1.0000
  C   C6        1.0  0.3099753535557278  0.3852565758870903  0.5436369530255862  1.0000
  C   C7        1.0  0.2517440393714961  0.425857675743061  0.6269284842639771  1.0000
  C   C8        1.0  0.17551867250439462  0.4444583867450056  0.56254327282159  1.0000
  N   N2        1.0  0.11424639603538449  0.4594069788932175  0.5107777307218768  1.0000
  C   C9        1.0  0.2678006304543974  0.4486931646031167  0.7727096717785553  1.0000
  C   C10       1.0  0.3417954699767259  0.43107242852607514  0.8350650451537518  1.0000
  C   C11       1.0  0.40001700733112383  0.39065517543731043  0.7522818015032804  1.0000
  C   C12       1.0  0.4314883137834796  0.2275866720139381  0.41874644497043345  1.0000
  C   C13       1.0  0.48970995824573194  0.1870845181951606  0.3360189894408032  1.0000
  C   C14       1.0  0.5635123710172114  0.24232085027910388  0.35060037372504094  1.0000
  H   H1        1.0  0.5337431408599245  0.4550533889635462  0.6054410720721826  1.0000
  H   H2        1.0  0.2972174786992677  0.3694450878370916  0.43034078048500746  1.0000
  H   H3        1.0  0.22317298223528403  0.4800646826245345  0.8380451358211736  1.0000
  H   H4        1.0  0.35403777733268793  0.4484387628231603  0.9479466778422276  1.0000
  H   H5        1.0  0.45669387393636157  0.3760399674775894  0.8034826660652805  1.0000
  H   H6        1.0  0.3749699446372963  0.18215614697240115  0.4069189094098722  1.0000
  H   H7        1.0  0.4776189952969163  0.11243690557902708  0.26069783320133966  1.0000
  H   H8        1.0  0.6081423342644516  0.21008369429295823  0.285832528117401  1.0000
  C   C15       1.0  0.9154645861460331  0.06915912474455331  0.49276490970747094  1.0000
  C   C16       1.0  0.9044079726762363  0.07711578424768974  0.3411554185382324  1.0000
  C   C17       1.0  0.898124192292898  0.9640282317522565  0.26433858531891885  1.0000
  C   C18       1.0  0.9042137696215207  0.8418546070516827  0.3410880770027125  1.0000
  C   C19       1.0  0.9153009161027179  0.8320161324571208  0.4927452780495474  1.0000
  C   C20       1.0  0.9206722922188247  0.9461695670255195  0.5676104585424182  1.0000
  C   C21       1.0  0.8866364759779726  0.9750410046175643  0.10420650184921443  1.0000
  O   O1        1.0  0.9068765313946614  0.07852304331385684  0.03425007710740391  1.0000
  N   N3        1.0  0.8520754794181804  0.8711606813434778  0.0266400229150241  1.0000
  H   H9        1.0  0.9366392461742613  0.26140624534458157  0.7792556154829322  1.0000
  H   H10       1.0  0.8999901081270322  0.17162605560578004  0.28264161838824053  1.0000
  H   H11       1.0  0.901830465956801  0.7541303455902831  0.28305038557724593  1.0000
  H   H12       1.0  0.9291918472012626  0.9392836366723926  0.6844576036114458  1.0000
  H   H13       1.0  0.9374841169713841  0.6062178454639625  0.7791960475134436  1.0000
  H   H14       1.0  0.8477950429197821  0.8792266203008652  0.913610611552075  1.0000
  H   H15       1.0  0.8260698041610506  0.7902731155903487  0.07967813803930168  1.0000
  C   C22       1.0  0.913827441795838  0.44745148250791833  0.06925146384577152  1.0000
  C   C23       1.0  0.9659988713924721  0.3694165415573625  0.15424800752276036  1.0000
  C   C24       1.0  0.021947325636718872  0.30207480073864906  0.0907196766474423  1.0000
  C   C25       1.0  0.027616256138518487  0.31055566229351994  0.9403713162762442  1.0000
  C   C26       1.0  0.9745240257741866  0.38678691541422616  0.8539070276730256  1.0000
  C   C27       1.0  0.9169380782518215  0.4537237942463434  0.9162588288638275  1.0000
  C   C28       1.0  0.09072312687103068  0.23510715989484687  0.8799447830062452  1.0000
  C   C29       1.0  0.0724620925234274  0.17485378678910224  0.7361897487718827  1.0000
  C   C30       1.0  0.12641648615644296  0.2935504588781177  0.7432620276654758  1.0000
  H   H16       1.0  0.7982553562604034  0.5301512915307958  0.331724125253696  1.0000
  H   H17       1.0  0.9647853564185912  0.36281068248818893  0.27121263356228287  1.0000
  H   H18       1.0  0.061689339635924385  0.24380851143910065  0.15995543412392177  1.0000
  H   H19       1.0  0.9762395055586787  0.3924781875033762  0.7372836135843199  1.0000
  H   H20       1.0  0.7426798987083059  0.5681967323488302  0.7857572245079996  1.0000
  H   H21       1.0  0.13084594910735237  0.1784536572713038  0.9557689248625668  1.0000
  H   H22       1.0  0.015452810932083727  0.1944928327914326  0.6813395867861765  1.0000
  H   H23       1.0  0.10229099453319429  0.08266521994932162  0.7246005964292985  1.0000
  H   H24       1.0  0.10221844579660577  0.38523336861358537  0.692594537397035  1.0000
  H   H25       1.0  0.18778833503417203  0.2707267851346358  0.7358032965439443  1.0000
  Zn  Zn1       1.0  0.831289410796888  0.44686183964005943  0.48513336426539655  1.0000
  Zn  Zn2       1.0  0.9994687696322281  0.45431246288263605  0.5003755485437369  1.0000
  C   C31       1.0  0.9163495069804468  0.4473635469723982  0.7561562363253795  1.0000
  C   C32       1.0  0.914410510130319  0.4538124768561475  0.22935298443518673  1.0000
  C   C33       1.0  0.915306820521397  0.6877771874355019  0.4870017350697353  1.0000
  C   C34       1.0  0.9154531398186412  0.2133972738532402  0.4985075574181021  1.0000
  O   O2        1.0  0.9784293846092526  0.45876909065825977  0.28886884693419135  1.0000
  O   O3        1.0  0.9799748731376183  0.4480608008530223  0.7082084238890172  1.0000
  O   O4        1.0  0.9791320357754449  0.6421978289614634  0.4908641818010151  1.0000
  O   O5        1.0  0.9792721641840902  0.2646320684984709  0.506212975687927  1.0000
  O   O6        1.0  0.851485958853637  0.6365422314830504  0.479295931912211  1.0000
  O   O7        1.0  0.8523287955951484  0.44240676337323914  0.6966400970639464  1.0000
  O   O8        1.0  0.8507833007597289  0.4531149950770976  0.2772987862061518  1.0000
  O   O9        1.0  0.8516260807305132  0.25897796442748255  0.49464302308515906  1.0000
