data_image0
_chemical_formula_structural       NC14NH8C7NH3C6SH5Zn2C4O8
_chemical_formula_sum              "N3 C31 H16 S1 Zn2 O8"
_cell_length_a       14.909852193252176
_cell_length_b       9.275154477615127
_cell_length_c       9.27533410651538
_cell_angle_alpha    85.21694827114041
_cell_angle_beta     91.42724111379118
_cell_angle_gamma    92.22301074390651

_space_group_name_H-M_alt    "P 1"
_space_group_IT_number       1

loop_
  _space_group_symop_operation_xyz
  'x, y, z'

loop_
  _atom_site_type_symbol
  _atom_site_label
  _atom_site_symmetry_multiplicity
  _atom_site_fract_x
  _atom_site_fract_y
  _atom_site_fract_z
  _atom_site_occupancy
  N   N1        1.0  0.8392880735522937  0.6565097943253251  0.44780120961653935  1.0000
  C   C1        1.0  0.7679505793024333  0.6158779098019485  0.4819101217724122  1.0000
  C   C2        1.0  0.6792117064909207  0.5653570700538032  0.5243470147816127  1.0000
  C   C3        1.0  0.613384794784007  0.6649365313863276  0.545152901008378  1.0000
  C   C4        1.0  0.5266847643780935  0.6162725466410115  0.5873286766498869  1.0000
  C   C5        1.0  0.5063578717909509  0.46675415577818313  0.6052999532842431  1.0000
  C   C6        1.0  0.5721219735573473  0.3676150066944563  0.5844051238725483  1.0000
  C   C7        1.0  0.6584544409510648  0.41662743638046895  0.544308451805809  1.0000
  C   C8        1.0  0.4563094722544804  0.7207163456681807  0.607370481720517  1.0000
  C   C9        1.0  0.4685949101802345  0.8274730352304437  0.6965231515809283  1.0000
  C   C10       1.0  0.4049315063612989  0.9381449084365716  0.7226499140369519  1.0000
  C   C11       1.0  0.4414624161469309  0.020135370381844094  0.8203559719296643  1.0000
  C   C12       1.0  0.5300237943905699  0.9672856439875239  0.8636623679204769  1.0000
  C   C13       1.0  0.5462720316682238  0.8539773427750127  0.791602921968726  1.0000
  C   C14       1.0  0.37202823064290214  0.7044622250917272  0.5290927852262335  1.0000
  N   N2        1.0  0.3045314503709352  0.6913565558611414  0.4663614469174772  1.0000
  H   H1        1.0  0.6293174172646151  0.7800180618564014  0.5276179089947204  1.0000
  H   H2        1.0  0.4397976375404546  0.42695973124154635  0.6365641069811785  1.0000
  H   H3        1.0  0.5561185844874702  0.25258985706152637  0.5992637087837889  1.0000
  H   H4        1.0  0.708846240868005  0.3387196870130551  0.5284054548919028  1.0000
  H   H5        1.0  0.3393067674259508  0.9524874684521067  0.6721384011397904  1.0000
  H   H6        1.0  0.41005182206123375  0.1111107576194641  0.8615065719939061  1.0000
  H   H7        1.0  0.5751549136730186  0.011957941021908164  0.9429827618531981  1.0000
  H   H8        1.0  0.6063936849534258  0.7921337203878993  0.8047990774761036  1.0000
  C   C15       1.0  0.07451571236528731  0.2507556364854262  0.45551521773134174  1.0000
  C   C16       1.0  0.050167334151933994  0.33337568666154205  0.32729530067888635  1.0000
  C   C17       1.0  0.018501419397981556  0.2661631530984354  0.20552400721439734  1.0000
  C   C18       1.0  0.010661188119378105  0.11540250956164845  0.21053253531365201  1.0000
  C   C19       1.0  0.03584828230525308  0.03166643102212818  0.33588538191131656  1.0000
  C   C20       1.0  0.06931245820280689  0.09710011101675443  0.45866026502414137  1.0000
  C   C21       1.0  0.9929622317137919  0.3522910664297636  0.07572290734762199  1.0000
  N   N3        1.0  0.9724358152402302  0.42152220593687173  0.9713960931939213  1.0000
  H   H9        1.0  0.09110645124882359  0.3251485513309518  0.8104351539082985  1.0000
  H   H10       1.0  0.9858455994324258  0.06233772965008888  0.11692456555270449  1.0000
  H   H11       1.0  0.08429570097930529  0.7970930815814589  0.6966209854922172  1.0000
  C   C22       1.0  0.0728900783281774  0.6782130489345475  0.033311938563879595  1.0000
  C   C23       1.0  0.15150125439009865  0.6421292889203345  0.1130802154715853  1.0000
  C   C24       1.0  0.22596576439849292  0.593951918471644  0.04501747093384444  1.0000
  C   C25       1.0  0.22288057895785784  0.5810389648037362  0.8962629771504105  1.0000
  C   C26       1.0  0.14612082457921316  0.6185888138466045  0.81480553459878  1.0000
  C   C27       1.0  0.07093810367888342  0.6696427083679979  0.8808635475035187  1.0000
  S   S1        1.0  0.3248758054132142  0.5468041902487251  0.14897244650967645  1.0000
  H   H12       1.0  0.9529796950819935  0.8114716250191292  0.29833280913459914  1.0000
  H   H13       1.0  0.2803264365834803  0.5432542368813444  0.8431430170954353  1.0000
  H   H14       1.0  0.14632318919761386  0.610966418339167  0.6988969306185266  1.0000
  H   H15       1.0  0.8956876146369307  0.8749136599723967  0.7538084653286341  1.0000
  H   H16       1.0  0.3618492217803113  0.6887810264031644  0.12863754004722883  1.0000
  Zn  Zn1       1.0  0.9735472736665839  0.6665618620737359  0.4531656115514228  1.0000
  Zn  Zn2       1.0  0.1702723024562771  0.6812925316711371  0.46100881814064754  1.0000
  C   C28       1.0  0.07134034588772709  0.6655216485048445  0.7206366934802415  1.0000
  C   C29       1.0  0.07248136696160934  0.682334722924991  0.1935379702562896  1.0000
  C   C30       1.0  0.07030460362540426  0.937180774367586  0.45231493165002806  1.0000
  C   C31       1.0  0.07351705256247532  0.41067385990171856  0.46185979991419135  1.0000
  O   O1        1.0  0.1470003615291131  0.6893019198434593  0.2502877228386293  1.0000
  O   O2        1.0  0.14613110390460657  0.6697336060390935  0.6698393337635422  1.0000
  O   O3        1.0  0.1452937190729016  0.8891016952397507  0.45316757810803643  1.0000
  O   O4        1.0  0.14783767941771508  0.46993383701905  0.4669593676537025  1.0000
  O   O5        1.0  0.9959818295725563  0.877920551700614  0.44721505935428163  1.0000
  O   O6        1.0  0.996819203933129  0.6585541946352789  0.6638867444980128  1.0000
  O   O7        1.0  0.9976884659219947  0.6781224757712256  0.24433339836598855  1.0000
  O   O8        1.0  0.9985257836211107  0.45875438154535964  0.46100515133740805  1.0000
