data_image0
_chemical_formula_structural       NC9NC5H8C13OH12C12NH11Zn2C4O8
_chemical_formula_sum              "N3 C43 H31 O9 Zn2"
_cell_length_a       17.807436237873137
_cell_length_b       10.299150109392551
_cell_length_c       10.299774167527174
_cell_angle_alpha    85.55710761189597
_cell_angle_beta     89.3859809594266
_cell_angle_gamma    88.37145022261349

_space_group_name_H-M_alt    "P 1"
_space_group_IT_number       1

loop_
  _space_group_symop_operation_xyz
  'x, y, z'

loop_
  _atom_site_type_symbol
  _atom_site_label
  _atom_site_symmetry_multiplicity
  _atom_site_fract_x
  _atom_site_fract_y
  _atom_site_fract_z
  _atom_site_occupancy
  N   N1        1.0  0.7072510322663631  0.38744831959603937  0.5566904425152164  1.0000
  C   C1        1.0  0.6466707882730126  0.3522522343129039  0.5456796542388709  1.0000
  C   C2        1.0  0.5713156230767011  0.30847218021128486  0.5319834291421743  1.0000
  C   C3        1.0  0.5532445890300703  0.23701966525794615  0.42701069011169746  1.0000
  C   C4        1.0  0.4800786380125463  0.19440107578051746  0.4136299532685088  1.0000
  C   C5        1.0  0.42393507489512944  0.2228574288778715  0.5051896410699734  1.0000
  C   C6        1.0  0.34617850291530167  0.17767979559554958  0.491051412615354  1.0000
  C   C7        1.0  0.283985201050782  0.25945083349761067  0.5169598079654829  1.0000
  C   C8        1.0  0.2106769819782467  0.2166291922024386  0.5035928247597186  1.0000
  C   C9        1.0  0.1474330656029621  0.3010919260880429  0.5298641389332426  1.0000
  N   N2        1.0  0.0965979462650331  0.36899412098775186  0.5509855511748678  1.0000
  C   C10       1.0  0.198978569575664  0.0917785029138205  0.4642921903814743  1.0000
  C   C11       1.0  0.2603145047602535  0.009993609008405404  0.4383754106711919  1.0000
  C   C12       1.0  0.33350337887189657  0.052420614517962656  0.45154000599472344  1.0000
  C   C13       1.0  0.44269740670933905  0.29480441866534846  0.610381422600822  1.0000
  C   C14       1.0  0.5159162749866436  0.3372325508220908  0.6236065837308893  1.0000
  H   H1        1.0  0.5956485441087394  0.2145111631495669  0.3553090281672602  1.0000
  H   H2        1.0  0.4671816768145712  0.140689463079112  0.3307322909620791  1.0000
  H   H3        1.0  0.2924625975443155  0.3569328220828002  0.5458005384317586  1.0000
  H   H4        1.0  0.1425205875656096  0.0577363299332061  0.4537100082412701  1.0000
  H   H5        1.0  0.2511386924632176  0.9133314348790691  0.4083340237927948  1.0000
  H   H6        1.0  0.380157720633426  0.9866641733854499  0.43251607960456445  1.0000
  H   H7        1.0  0.4010103444861761  0.3167742090229613  0.6833777229110809  1.0000
  H   H8        1.0  0.5293414294038598  0.392164546351724  0.7054622232721701  1.0000
  C   C15       1.0  0.9019988753203094  0.9968181060477223  0.5539810478375768  1.0000
  C   C16       1.0  0.900605852055468  0.9851194113598644  0.6908056280850028  1.0000
  C   C17       1.0  0.8998342085994591  0.8620563462959421  0.7599158702706297  1.0000
  C   C18       1.0  0.9004610300773573  0.7498708260317337  0.690444372506346  1.0000
  C   C19       1.0  0.9018572801378292  0.759613986509373  0.5537061398071721  1.0000
  C   C20       1.0  0.9026201094314813  0.8835485608645934  0.48627353484048585  1.0000
  C   C21       1.0  0.8983540036612013  0.8506624883531734  0.904570740231808  1.0000
  C   C22       1.0  0.8521536309941902  0.7599916603750904  0.9732658339278576  1.0000
  C   C23       1.0  0.8507358697686311  0.7493526404629752  0.10938628668729976  1.0000
  C   C24       1.0  0.8959856024533223  0.8282043796156798  0.1792651811175916  1.0000
  C   C25       1.0  0.9414671753398931  0.9198630970111615  0.11122316032478208  1.0000
  C   C26       1.0  0.9429023756275401  0.9306770872991971  0.9751021633425004  1.0000
  C   C27       1.0  0.8928824762345303  0.8192011416734295  0.3253899156194714  1.0000
  O   O1        1.0  0.8367286073805418  0.9050497242996046  0.3664514294530792  1.0000
  H   H9        1.0  0.9041401874375431  0.22621591056036072  0.2957253924452936  1.0000
  H   H10       1.0  0.8990762821637293  0.07197924767603904  0.7438340756434134  1.0000
  H   H11       1.0  0.9008861184553394  0.6547419909539758  0.7432691254477661  1.0000
  H   H12       1.0  0.9036949530540671  0.8917800614068381  0.3808032755759241  1.0000
  H   H13       1.0  0.9023437611357586  0.43588847644522855  0.5011125607442526  1.0000
  H   H14       1.0  0.8162288286548395  0.6986722248107562  0.9216860218656933  1.0000
  H   H15       1.0  0.8141869238822194  0.679768457791995  0.16029496111953312  1.0000
  H   H16       1.0  0.9760080952492494  0.9828012897428517  0.1635694195021724  1.0000
  H   H17       1.0  0.9794764388459113  0.0007057222604720598  0.924999725467827  1.0000
  H   H18       1.0  0.9481409519402059  0.844421643233678  0.3647483284323355  1.0000
  H   H19       1.0  0.8806710243648076  0.7177684719595112  0.3633796111162333  1.0000
  H   H20       1.0  0.8370003768118064  0.8953847241033374  0.46306949505484235  1.0000
  C   C28       1.0  0.901953659624274  0.3781003276778485  0.1724911583545592  1.0000
  C   C29       1.0  0.8283851376073278  0.3322814460510237  0.17640778057887063  1.0000
  C   C30       1.0  0.7910810594421663  0.3091817308740312  0.061244888442814505  1.0000
  C   C31       1.0  0.8283334817604329  0.3325152142150601  0.9411037424175577  1.0000
  C   C32       1.0  0.9019024820759092  0.3783318464939491  0.9351959696318186  1.0000
  C   C33       1.0  0.9383004837685518  0.40086834307000596  0.05141501132170712  1.0000
  C   C34       1.0  0.7132498268413547  0.2607085764464945  0.066441796205023  1.0000
  C   C35       1.0  0.6921543386503144  0.16324661163838838  0.16208539113070763  1.0000
  C   C36       1.0  0.6188960828953418  0.1176793731328165  0.16684304739075806  1.0000
  C   C37       1.0  0.5655744928883011  0.16873630704698828  0.07630211023685618  1.0000
  C   C38       1.0  0.5861742975334625  0.26583157384347644  0.9808252846302041  1.0000
  C   C39       1.0  0.6594099756817366  0.3115011525327256  0.9758016423065681  1.0000
  N   N3        1.0  0.49064831006748016  0.12207197773356726  0.0813048328543402  1.0000
  H   H21       1.0  0.9299994215421139  0.3955051428322651  0.49845617875558057  1.0000
  H   H22       1.0  0.7995452938090631  0.31614383078330577  0.2691223927714619  1.0000
  H   H23       1.0  0.800201714620094  0.31317137394540717  0.8521930329289419  1.0000
  H   H24       1.0  0.9950553746212326  0.4362146061102598  0.04762552840867307  1.0000
  H   H25       1.0  0.9299243193717912  0.3958456797587471  0.6054873792260249  1.0000
  H   H26       1.0  0.7325741491518722  0.12105935663777334  0.23215758945297393  1.0000
  H   H27       1.0  0.6037551313633904  0.04234421320945425  0.2409108648116682  1.0000
  H   H28       1.0  0.5454411700920483  0.30636823418251474  0.9104882288291831  1.0000
  H   H29       1.0  0.6736725081421691  0.38774451252735803  0.9020783989442611  1.0000
  H   H30       1.0  0.4505082596385722  0.15953382861917098  0.014215525159057222  1.0000
  H   H31       1.0  0.4747629481016792  0.04971761052625178  0.15213535303287729  1.0000
  Zn  Zn1       1.0  0.8196081402366758  0.3821193731943829  0.5550516458234933  1.0000
  Zn  Zn2       1.0  0.9842408213466083  0.37431248351071367  0.5526350278327397  1.0000
  C   C40       1.0  0.9019114496346795  0.373113996284288  0.791030348093433  1.0000
  C   C41       1.0  0.9019393094196128  0.3833194139743485  0.3166564260436937  1.0000
  C   C42       1.0  0.9018805242139559  0.6154279795015052  0.5485831937167072  1.0000
  C   C43       1.0  0.9019701789477255  0.14100387300023653  0.5591036510431007  1.0000
  O   O2        1.0  0.9644117389024395  0.3821026468162452  0.36412251495522674  1.0000
  O   O3        1.0  0.9643914159803133  0.3684045348882048  0.74172972856693  1.0000
  O   O4        1.0  0.9643656009982503  0.5640761811627724  0.5459519479301815  1.0000
  O   O5        1.0  0.9644374977113283  0.18643101246713906  0.5599001990427972  1.0000
  O   O6        1.0  0.839411407690902  0.5700008469034774  0.5477864754312769  1.0000
  O   O7        1.0  0.8394372223845219  0.37433076105132357  0.7435641862631868  1.0000
  O   O8        1.0  0.839457545469755  0.38802882724311605  0.36595541133389276  1.0000
  O   O9        1.0  0.8394833042707642  0.19235718363406895  0.5617331927884834  1.0000
