data_image0
_chemical_formula_structural       NC8NC6H8C7NH3C7OH4Zn2C4O8
_chemical_formula_sum              "N3 C32 H15 O9 Zn2"
_cell_length_a       17.457602349358154
_cell_length_b       10.302819778424748
_cell_length_c       9.274081674992354
_cell_angle_alpha    86.07103821472641
_cell_angle_beta     92.53340075860572
_cell_angle_gamma    91.68806980205999

_space_group_name_H-M_alt    "P 1"
_space_group_IT_number       1

loop_
  _space_group_symop_operation_xyz
  'x, y, z'

loop_
  _atom_site_type_symbol
  _atom_site_label
  _atom_site_symmetry_multiplicity
  _atom_site_fract_x
  _atom_site_fract_y
  _atom_site_fract_z
  _atom_site_occupancy
  N   N1        1.0  0.727086813151762  0.4403348927641184  0.47602181420804085  1.0000
  C   C1        1.0  0.6660449114046648  0.3943307932839825  0.4642429962690615  1.0000
  C   C2        1.0  0.5901061702114266  0.3371074898356441  0.449600734159072  1.0000
  C   C3        1.0  0.5313233284025076  0.37791385041811043  0.5327044301052557  1.0000
  C   C4        1.0  0.4568205844709889  0.3228135427331193  0.518743925872545  1.0000
  C   C5        1.0  0.3944318381195164  0.36590114206102375  0.6067538917069859  1.0000
  C   C6        1.0  0.32007444347376784  0.38387470249217137  0.5448807655920371  1.0000
  C   C7        1.0  0.261291232412257  0.42449814149000886  0.6281042429375334  1.0000
  C   C8        1.0  0.1855032020268715  0.44305793476458816  0.563772923340258  1.0000
  N   N2        1.0  0.1245825415916452  0.45797363216202824  0.5120507099806646  1.0000
  C   C9        1.0  0.2763715273141932  0.44739554655413216  0.7737650787287876  1.0000
  C   C10       1.0  0.34994290238788145  0.4298142520114094  0.8360682693993968  1.0000
  C   C11       1.0  0.4087129549603711  0.3893748263485006  0.7533526626982254  1.0000
  C   C12       1.0  0.4423941917106316  0.22621709637533405  0.42008981096994347  1.0000
  C   C13       1.0  0.5011639577063556  0.18569283797960123  0.33742994392481096  1.0000
  C   C14       1.0  0.574880069373423  0.24091031021931283  0.3520006521151746  1.0000
  H   H1        1.0  0.5434412146436064  0.4536693230092096  0.6066354073689412  1.0000
  H   H2        1.0  0.30807572762080615  0.3680141795626601  0.43167817608541115  1.0000
  H   H3        1.0  0.23131085847563848  0.4787848133885829  0.8390471477404009  1.0000
  H   H4        1.0  0.3614291741144403  0.44722867877172273  0.9488567029390882  1.0000
  H   H5        1.0  0.46504207759678895  0.37479207372975737  0.8045106755460179  1.0000
  H   H6        1.0  0.38594569057415845  0.1808021655459755  0.40827091910701807  1.0000
  H   H7        1.0  0.4895639485293328  0.11104297022391374  0.2621693538400156  1.0000
  H   H8        1.0  0.6199390472919799  0.20865609811757646  0.2872857083849025  1.0000
  C   C15       1.0  0.9258383182221939  0.06790142726280333  0.4940427962580665  1.0000
  C   C16       1.0  0.8806828597012258  0.057013562864984386  0.6161691202387958  1.0000
  C   C17       1.0  0.8582175742996099  0.9344941666180021  0.6769281198376205  1.0000
  C   C18       1.0  0.8806829215898994  0.8217125558385843  0.6161691305719759  1.0000
  C   C19       1.0  0.9258383307337547  0.8303974553447445  0.4940428402328072  1.0000
  C   C20       1.0  0.9481801469646021  0.953991557102255  0.4336177833161808  1.0000
  C   C21       1.0  0.8119266837086183  0.9244616218216263  0.8021255560910088  1.0000
  N   N3        1.0  0.7747239554298384  0.9163987681130203  0.9027432242738331  1.0000
  H   H9        1.0  0.8628740509563884  0.14357818086198804  0.6643341488164574  1.0000
  H   H10       1.0  0.8628741467876727  0.7274285807147829  0.6643341232604867  1.0000
  H   H11       1.0  0.9830024406906934  0.9615384499033781  0.33943836220845847  1.0000
  C   C22       1.0  0.9271327496621629  0.4458035452295659  0.07089042253694179  1.0000
  C   C23       1.0  0.9894245540034903  0.5050706349400138  0.14506261362367834  1.0000
  C   C24       1.0  0.04737285908384272  0.5737228411216759  0.06983208284286957  1.0000
  C   C25       1.0  0.04301380202710292  0.5834593538358872  0.9183142782560277  1.0000
  C   C26       1.0  0.9823292407568451  0.5235233228894409  0.8430849398619067  1.0000
  C   C27       1.0  0.9245439010531696  0.4524953735580373  0.917195184807739  1.0000
  C   C28       1.0  0.11145307422032817  0.6356537640292825  0.15108522528525414  1.0000
  O   O1        1.0  0.16423779796805804  0.698483703177222  0.08652989482985673  1.0000
  H   H12       1.0  0.7454042324242536  0.3534026003433899  0.16578738891937927  1.0000
  H   H13       1.0  0.0869296529206132  0.6363984300638299  0.8576869383220433  1.0000
  H   H14       1.0  0.8034033056022215  0.38500403327437965  0.6311306809197585  1.0000
  H   H15       1.0  0.11368910507679496  0.6274992998816659  0.26819508701695227  1.0000
  Zn  Zn1       1.0  0.8417954685804308  0.4454216360798295  0.4864272952754556  1.0000
  Zn  Zn2       1.0  0.009873835824432351  0.45287633754589796  0.5016570263593929  1.0000
  C   C29       1.0  0.9250315329488662  0.4460583006287189  0.7572253416881858  1.0000
  C   C30       1.0  0.9266396064339206  0.4522413936420878  0.23085928768688826  1.0000
  C   C31       1.0  0.9258519435917094  0.686223933675808  0.48830031171694804  1.0000
  C   C32       1.0  0.9258191382026518  0.21207419883024525  0.4997843892857088  1.0000
  O   O2        1.0  0.9902589674828566  0.4572253507159185  0.29032590374035805  1.0000
  O   O3        1.0  0.9889797648383226  0.44673130677287437  0.7093173243300588  1.0000
  O   O4        1.0  0.9896413923740389  0.6406680664783189  0.49215838202623297  1.0000
  O   O5        1.0  0.9895972829238842  0.2632885968997771  0.5074847328040917  1.0000
  O   O6        1.0  0.8620719641241048  0.6350093741833798  0.4805995836260173  1.0000
  O   O7        1.0  0.8614103368199394  0.441074173700118  0.697758449097521  1.0000
  O   O8        1.0  0.862689544815127  0.4515681587043473  0.27876529604178996  1.0000
  O   O9        1.0  0.8620278599225356  0.2576313964563323  0.4959242331408773  1.0000
