data_image0
_chemical_formula_structural       NC6NCNCH5C9H10C7OH5Zn2C4O8
_chemical_formula_sum              "N3 C28 H20 O9 Zn2"
_cell_length_a       14.933214217465613
_cell_length_b       10.297183801781406
_cell_length_c       9.274074313596557
_cell_angle_alpha    86.09469829957582
_cell_angle_beta     90.19933690330467
_cell_angle_gamma    90.03175022610812

_space_group_name_H-M_alt    "P 1"
_space_group_IT_number       1

loop_
  _space_group_symop_operation_xyz
  'x, y, z'

loop_
  _atom_site_type_symbol
  _atom_site_label
  _atom_site_symmetry_multiplicity
  _atom_site_fract_x
  _atom_site_fract_y
  _atom_site_fract_z
  _atom_site_occupancy
  N   N1        1.0  0.8391627683202303  0.40840157758153633  0.40862839711036403  1.0000
  C   C1        1.0  0.7616699717660506  0.40929066002641545  0.40763757273614387  1.0000
  C   C2        1.0  0.665268368284419  0.4103991175686992  0.4064021372569011  1.0000
  C   C3        1.0  0.6176877405954783  0.3249746613202036  0.5016215907524562  1.0000
  C   C4        1.0  0.524151559414519  0.32594062808764535  0.5005448934575183  1.0000
  C   C5        1.0  0.47729379164435415  0.4122821072257712  0.40430330576679263  1.0000
  C   C6        1.0  0.3807236319926807  0.41040104205331884  0.406400065720129  1.0000
  N   N2        1.0  0.3032424673058208  0.40883181481914876  0.4081488536120444  1.0000
  C   C7        1.0  0.5249701074937071  0.4987852425493424  0.30788161822881377  1.0000
  N   N3        1.0  0.4794023448607193  0.5885272101144994  0.20784987005933656  1.0000
  C   C8        1.0  0.6189891063726786  0.49695744779053164  0.3099191102517278  1.0000
  H   H1        1.0  0.6528775197627293  0.25762322218425493  0.5766956831828187  1.0000
  H   H2        1.0  0.4882587156694395  0.2591557586200808  0.5749873228351061  1.0000
  H   H3        1.0  0.5155770492197629  0.6519116094298179  0.1371976043997294  1.0000
  H   H4        1.0  0.4096472432357234  0.5933022486621639  0.20252738487806887  1.0000
  H   H5        1.0  0.6560083036213163  0.5630703501514391  0.2362255316835813  1.0000
  C   C9        1.0  0.0712105500753269  0.027142931523625128  0.40859285229792364  1.0000
  C   C10       1.0  0.0682158476311368  0.03565942598666339  0.2569312376508923  1.0000
  C   C11       1.0  0.06668136686555459  0.9234061875643812  0.17923055762632356  1.0000
  C   C12       1.0  0.06820386794823863  0.8004831256463184  0.25634342007472655  1.0000
  C   C13       1.0  0.07120329222740311  0.790080550778109  0.40819686353691464  1.0000
  C   C14       1.0  0.07268620359623724  0.9038778001946488  0.4833303159539506  1.0000
  C   C15       1.0  0.06344213695116419  0.9420495722678559  0.01519781258581965  1.0000
  C   C16       1.0  0.010804386839723845  0.842574617493236  0.9350206837988965  1.0000
  C   C17       1.0  0.11281147109529793  0.8429369169049717  0.9303367497145043  1.0000
  H   H6        1.0  0.072373007871436  0.35139971490987154  0.4670329282076189  1.0000
  H   H7        1.0  0.06705991530950417  0.1303696282342024  0.19838148679280931  1.0000
  H   H8        1.0  0.06707786316827452  0.7123791607945267  0.19941958671417037  1.0000
  H   H9        1.0  0.07499623058908661  0.8965797025945715  0.6003404369031062  1.0000
  H   H10       1.0  0.07685646476324794  0.5632165550188605  0.695005272059928  1.0000
  H   H11       1.0  0.062401813634378696  0.04229809253142023  0.9624748038762353  1.0000
  H   H12       1.0  0.9810890390235244  0.7594893784506919  0.0006416070142671895  1.0000
  H   H13       1.0  0.978954046921811  0.882516632169109  0.8330815411196384  1.0000
  H   H14       1.0  0.1450599510696278  0.7600725616661558  0.9931131868935662  1.0000
  H   H15       1.0  0.1405797794218211  0.8830883005566019  0.8256587238873809  1.0000
  C   C18       1.0  0.07013475139881137  0.40486932292130406  0.9851567451662393  1.0000
  C   C19       1.0  0.9920565116354327  0.44314847095386883  0.055106366913979965  1.0000
  C   C20       1.0  0.9183878013171095  0.4918715994187105  0.9759749295628782  1.0000
  C   C21       1.0  0.9210740818236285  0.5036117678492725  0.8246860604129258  1.0000
  C   C22       1.0  0.997943260044457  0.463763165036736  0.7535986159531651  1.0000
  C   C23       1.0  0.07227904489461225  0.4123541159338327  0.8316330519495191  1.0000
  C   C24       1.0  0.8440454571005424  0.5559041331921283  0.7393477650972181  1.0000
  O   O1        1.0  0.7738727820046047  0.5920336149317786  0.800107762314981  1.0000
  H   H16       1.0  0.2889340466336752  0.3719756871372473  0.0917364203123614  1.0000
  H   H17       1.0  0.859632334864029  0.5215551296039294  0.03342185674854115  1.0000
  H   H18       1.0  0.9989808428042385  0.47005946742302607  0.636437613590903  1.0000
  H   H19       1.0  0.21935319271836562  0.38549080475322595  0.5540292772591937  1.0000
  H   H20       1.0  0.8472251986006343  0.563792119979847  0.622470869934959  1.0000
  Zn  Zn1       1.0  0.9730861665197605  0.40852232277491884  0.4084983447090418  1.0000
  Zn  Zn2       1.0  0.1693190845283521  0.4087005172452407  0.4082907472985915  1.0000
  C   C25       1.0  0.07187180249467542  0.40576425862218213  0.6716335504269784  1.0000
  C   C26       1.0  0.07053559175352708  0.41146022366494184  0.14515567992359646  1.0000
  C   C27       1.0  0.07118549303147503  0.6458183086806983  0.40252840619630414  1.0000
  C   C28       1.0  0.07122183446568098  0.17140461349336641  0.4142609018752247  1.0000
  O   O2        1.0  0.14513948720013348  0.41373414673631337  0.19877400484240937  1.0000
  O   O3        1.0  0.14620415025427527  0.4036245973701027  0.6178572494963839  1.0000
  O   O4        1.0  0.14564894659684402  0.5974712910300075  0.4005529419275913  1.0000
  O   O5        1.0  0.14569462362271923  0.21988746135283077  0.41607820441211274  1.0000
  O   O6        1.0  0.99671056046071  0.597335378607867  0.400710887658782  1.0000
  O   O7        1.0  0.9972657639045038  0.40349024500155894  0.618015117569882  1.0000
  O   O8        1.0  0.9962010965207048  0.4135997337772106  0.19893014011771307  1.0000
  O   O9        1.0  0.9967562332134525  0.21975304005784357  0.41623444774976726  1.0000
