data_image0
_chemical_formula_structural       NC10NC3NH7C12NH11C12IH9Zn2C4O8
_chemical_formula_sum              "N4 C41 H27 I1 Zn2 O8"
_cell_length_a       19.210446455230148
_cell_length_b       10.299770795358612
_cell_length_c       10.299773350644651
_cell_angle_alpha    85.53972113204546
_cell_angle_beta     89.99988081382295
_cell_angle_gamma    89.96457025778629

_space_group_name_H-M_alt    "P 1"
_space_group_IT_number       1

loop_
  _space_group_symop_operation_xyz
  'x, y, z'

loop_
  _atom_site_type_symbol
  _atom_site_label
  _atom_site_symmetry_multiplicity
  _atom_site_fract_x
  _atom_site_fract_y
  _atom_site_fract_z
  _atom_site_occupancy
  N   N1        1.0  0.655575192925807  0.4205948645565112  0.5672648325930061  1.0000
  C   C1        1.0  0.5953468496143165  0.42280227146453647  0.5674958879681622  1.0000
  C   C2        1.0  0.5205426654648674  0.42553905187731966  0.5677821366607638  1.0000
  C   C3        1.0  0.48494287847179973  0.5417629491267502  0.5828890209244257  1.0000
  C   C4        1.0  0.412277405439817  0.5419144996216864  0.5828364174499598  1.0000
  C   C5        1.0  0.37537597775302  0.4262479801277286  0.5678685899476839  1.0000
  C   C6        1.0  0.2980537238050792  0.4248915736450378  0.5677180550446472  1.0000
  C   C7        1.0  0.2603009946479956  0.5284795681444827  0.5043522223158423  1.0000
  C   C8        1.0  0.18752251539125334  0.5270773947126774  0.504243206897308  1.0000
  C   C9        1.0  0.1514953693667126  0.4223447475532804  0.5674490168776556  1.0000
  C   C10       1.0  0.0765657305057811  0.42104272998101777  0.5673122429411122  1.0000
  N   N2        1.0  0.016327782667847603  0.41999586363433083  0.5672023115737206  1.0000
  C   C11       1.0  0.1885244483868357  0.3188824509744841  0.6307898360113  1.0000
  C   C12       1.0  0.2613047600657792  0.3200103459004049  0.6309491084990093  1.0000
  C   C13       1.0  0.41358580327978384  0.31184421951856733  0.5530497932230307  1.0000
  N   N3        1.0  0.48435596335748626  0.31428910127881093  0.5532152534103276  1.0000
  H   H1        1.0  0.5130522679363777  0.6311913259234232  0.5949336689251539  1.0000
  H   H2        1.0  0.3850171758613117  0.6319243059263806  0.5962757585421903  1.0000
  H   H3        1.0  0.28702900003066445  0.6097470566577731  0.4533584271348708  1.0000
  H   H4        1.0  0.1593769102530683  0.607516786783401  0.4545798338958942  1.0000
  H   H5        1.0  0.1611566346201596  0.23747970924502912  0.6803537649576554  1.0000
  H   H6        1.0  0.2888056613691349  0.23968969885002253  0.6820501965560741  1.0000
  H   H7        1.0  0.3873117656469378  0.2209715216070187  0.5395642412839488  1.0000
  C   C14       1.0  0.835891737502926  0.038926929696359025  0.567273176530898  1.0000
  C   C15       1.0  0.8156765675961295  0.04817386731873774  0.43586628182179127  1.0000
  C   C16       1.0  0.8054972262979442  0.9357231099845905  0.3692462660338949  1.0000
  C   C17       1.0  0.8158039711464441  0.812892062243602  0.4357977068988479  1.0000
  C   C18       1.0  0.8360178814049438  0.8016538347397059  0.5672051523735842  1.0000
  C   C19       1.0  0.8459489048887147  0.9152264341098184  0.6322068979396656  1.0000
  C   C20       1.0  0.7841110545902853  0.9465592379541327  0.23022539837592773  1.0000
  C   C21       1.0  0.7334208146126046  0.03783439956866829  0.18504702449729926  1.0000
  C   C22       1.0  0.713321997011235  0.04790408866499663  0.05419951780887277  1.0000
  C   C23       1.0  0.743533106013787  0.967119294795475  0.9664503121557333  1.0000
  C   C24       1.0  0.7940562303483504  0.8760427505129839  0.010738156220708507  1.0000
  C   C25       1.0  0.8142108077195203  0.865716951756327  0.14155568023150744  1.0000
  N   N4        1.0  0.7229449623351741  0.9775507167032167  0.8326183849266333  1.0000
  H   H8        1.0  0.843565050364678  0.3628557208413378  0.6173624330788883  1.0000
  H   H9        1.0  0.808723048039931  0.14310561149720202  0.3845152472816531  1.0000
  H   H10       1.0  0.8071032074456967  0.7258921878541638  0.3853870783339959  1.0000
  H   H11       1.0  0.86154346368125  0.9073248052685519  0.7335814977202695  1.0000
  H   H12       1.0  0.8437505810116357  0.46991906231833774  0.6172627772121078  1.0000
  H   H13       1.0  0.7086647133603652  0.10026739469865653  0.25125454174323747  1.0000
  H   H14       1.0  0.674073872255486  0.11845996337214569  0.021294750892139277  1.0000
  H   H15       1.0  0.8179514021867205  0.8132658299204625  0.9438415151030545  1.0000
  H   H16       1.0  0.853992444395702  0.7956708803617591  0.17302081215860143  1.0000
  H   H17       1.0  0.7451694309185367  0.9177376870816393  0.7664749182217556  1.0000
  H   H18       1.0  0.6853260409202302  0.04516416389915378  0.7986901678271036  1.0000
  C   C26       1.0  0.8359216433936236  0.42039651031401215  0.18586998890101247  1.0000
  C   C27       1.0  0.8990335022764472  0.4892951784804933  0.17951568920848238  1.0000
  C   C28       1.0  0.9310462279381955  0.5240987899781282  0.05916588345962359  1.0000
  C   C29       1.0  0.8991004251681375  0.48908091102208084  0.9442460833222369  1.0000
  C   C30       1.0  0.8359879836497395  0.4201842487676241  0.9486084247352755  1.0000
  C   C31       1.0  0.8047522658184967  0.3862267838712251  0.0698884591698079  1.0000
  C   C32       1.0  0.9978130358246489  0.5969855125634027  0.05349758257218151  1.0000
  C   C33       1.0  0.008780132740639825  0.6999863281201228  0.13329712521033565  1.0000
  C   C34       1.0  0.07165746409104613  0.7684741164010425  0.12776029040224168  1.0000
  C   C35       1.0  0.12426662558324765  0.735027184305272  0.042764796712069446  1.0000
  C   C36       1.0  0.11397113815716353  0.6329114504421138  0.9631077993204117  1.0000
  C   C37       1.0  0.051164385522291855  0.5641975732307956  0.9682387003844051  1.0000
  I   I1        1.0  0.21906296678785342  0.8385085187350478  0.034720892121843816  1.0000
  H   H19       1.0  0.8118529378936361  0.3942080276366371  0.5157397523604459  1.0000
  H   H20       1.0  0.9239293257735508  0.5145008100182231  0.26848599196942247  1.0000
  H   H21       1.0  0.9230779536306218  0.517228790052936  0.8511266154703487  1.0000
  H   H22       1.0  0.7560639493661442  0.3330757347129223  0.07402215261169265  1.0000
  H   H23       1.0  0.8119500897972851  0.3938957250343504  0.6228199236800922  1.0000
  H   H24       1.0  0.9684212078343298  0.7286312284610463  0.19869227385462263  1.0000
  H   H25       1.0  0.07937440042661636  0.8477381912260727  0.18933775489567095  1.0000
  H   H26       1.0  0.15467230606482585  0.6065022086113527  0.8974212514308713  1.0000
  H   H27       1.0  0.04465702530486637  0.4843906038614674  0.9068219844256183  1.0000
  Zn  Zn1       1.0  0.7596805968802185  0.4204185396934026  0.5672542897589075  1.0000
  Zn  Zn2       1.0  0.9122223619481964  0.42016160300323446  0.567223491136128  1.0000
  C   C38       1.0  0.8359730318137111  0.41505069867081756  0.8044349593448029  1.0000
  C   C39       1.0  0.8359315930481358  0.42553107980214744  0.33004294853442073  1.0000
  C   C40       1.0  0.8359900085628682  0.6574836533082025  0.5620428742551784  1.0000
  C   C41       1.0  0.8359145639950966  0.1830965649325329  0.5724351030122945  1.0000
  O   O1        1.0  0.893823736171221  0.4271511163579964  0.37841702341175276  1.0000
  O   O2        1.0  0.8938565586064866  0.4132346734949983  0.7560371352664148  1.0000
  O   O3        1.0  0.8938694872947984  0.6090023512864862  0.5603038116295398  1.0000
  O   O4        1.0  0.8938107554238054  0.23138344797149332  0.5741502496835684  1.0000
  O   O5        1.0  0.7780921513495911  0.6091966948142393  0.5603275312151461  1.0000
  O   O6        1.0  0.7780792229101431  0.41343057734407695  0.7560607854674506  1.0000
  O   O7        1.0  0.7780464003778905  0.42734697538561467  0.37843911221496085  1.0000
  O   O8        1.0  0.7780334196345604  0.2315792976832229  0.5741724358555147  1.0000
