data_image0
_chemical_formula_structural       NC9NC5H8C7F3H5C8H6Zn2C4O8
_chemical_formula_sum              "N2 C33 H19 F3 Zn2 O8"
_cell_length_a       17.807436237873137
_cell_length_b       9.272718291674593
_cell_length_c       9.275144076552241
_cell_angle_alpha    86.39339924805473
_cell_angle_beta     89.86257050345318
_cell_angle_gamma    87.96869977406762

_space_group_name_H-M_alt    "P 1"
_space_group_IT_number       1

loop_
  _space_group_symop_operation_xyz
  'x, y, z'

loop_
  _atom_site_type_symbol
  _atom_site_label
  _atom_site_symmetry_multiplicity
  _atom_site_fract_x
  _atom_site_fract_y
  _atom_site_fract_z
  _atom_site_occupancy
  N   N1        1.0  0.694852577699249  0.5302270024154294  0.4102760704630346  1.0000
  C   C1        1.0  0.6343639905419463  0.49106815053984487  0.3977437888768427  1.0000
  C   C2        1.0  0.5591228362761218  0.4423588510773071  0.38215499178356555  1.0000
  C   C3        1.0  0.5408512514302807  0.3622701364351415  0.2650104487648388  1.0000
  C   C4        1.0  0.4677960626909554  0.3148527296368779  0.24978208668506774  1.0000
  C   C5        1.0  0.4119651974531051  0.3471045678911555  0.35165906442751016  1.0000
  C   C6        1.0  0.3343262535652742  0.2968403000157067  0.3355673221363027  1.0000
  C   C7        1.0  0.2719215358569826  0.38782037101524325  0.3650465556376232  1.0000
  C   C8        1.0  0.1987249694690871  0.3401776036123658  0.34983166506181673  1.0000
  C   C9        1.0  0.1352603853453692  0.4341490024968389  0.37973749973878324  1.0000
  N   N2        1.0  0.0842478695187933  0.509695514067765  0.4037809352012003  1.0000
  C   C10       1.0  0.1873505570311773  0.20126810238628878  0.3051072288104748  1.0000
  C   C11       1.0  0.24889792519238108  0.11027258633856961  0.2756185667606794  1.0000
  C   C12       1.0  0.3219758049623895  0.15747572059798554  0.29060533240591613  1.0000
  C   C13       1.0  0.43092709350036734  0.4277438913769984  0.46905110014517376  1.0000
  C   C14       1.0  0.5040352462763078  0.4749487100618732  0.4841051000088341  1.0000
  H   H1        1.0  0.583011239470249  0.3367646252760912  0.18522719519261455  1.0000
  H   H2        1.0  0.45472968055826185  0.2546206493787444  0.15729625977605033  1.0000
  H   H3        1.0  0.280137324176667  0.496266116654626  0.3979193206609999  1.0000
  H   H4        1.0  0.130981543275087  0.16339356698670637  0.29306086929139985  1.0000
  H   H5        1.0  0.23997476735268816  0.0027285307768278805  0.24142039200935583  1.0000
  H   H6        1.0  0.3688086293586267  0.08432676251027016  0.26890893523869575  1.0000
  H   H7        1.0  0.3894922482626484  0.45266050806790137  0.5502665613812092  1.0000
  H   H8        1.0  0.5176199806818472  0.5365283876667615  0.5754451300720951  1.0000
  C   C15       1.0  0.8911768835851435  0.09647049034994692  0.403817185884145  1.0000
  C   C16       1.0  0.8449627714951152  0.17952108738308215  0.30497104261932595  1.0000
  C   C17       1.0  0.7934794673391518  0.11408497564739362  0.21758641051667116  1.0000
  C   C18       1.0  0.7901893272210999  0.9630288914950791  0.2260686056688257  1.0000
  C   C19       1.0  0.8364466484428377  0.8789950720824414  0.3217948490104219  1.0000
  C   C20       1.0  0.8879308211754886  0.9434406635929234  0.4102521748465735  1.0000
  C   C21       1.0  0.7458605827278271  0.20474264665761943  0.10959329867070511  1.0000
  F   F1        1.0  0.7267715225377287  0.3375358368396304  0.162299094540721  1.0000
  F   F2        1.0  0.6801479418467024  0.1365957730048717  0.08057344229875296  1.0000
  F   F3        1.0  0.785868462666974  0.22652966495376467  0.9826598666158421  1.0000
  H   H9        1.0  0.9816829935900243  0.17257361487945655  0.7133940915885111  1.0000
  H   H10       1.0  0.847934025559068  0.29628619512431276  0.2982124959080912  1.0000
  H   H11       1.0  0.7523453488139393  0.9094454605119535  0.1573830172746462  1.0000
  H   H12       1.0  0.8333880819665023  0.7624008536492622  0.3237852762157487  1.0000
  H   H13       1.0  0.049949137718781705  0.8202011953097695  0.5810424726095302  1.0000
  C   C22       1.0  0.8877953358018809  0.5170978465126161  0.9837562564921565  1.0000
  C   C23       1.0  0.838445053243868  0.6137313582265821  0.05126168754567063  1.0000
  C   C24       1.0  0.795096462280246  0.7171922403455397  0.9698119503772666  1.0000
  C   C25       1.0  0.8003131628822014  0.7261309165414767  0.819363884324865  1.0000
  C   C26       1.0  0.8481039722950299  0.6294738951888803  0.7501278357157157  1.0000
  C   C27       1.0  0.8913123822908825  0.5228133519012987  0.8303131026402095  1.0000
  C   C28       1.0  0.7558580735805821  0.8336136410335178  0.735592554769875  1.0000
  C   C29       1.0  0.7186403635580616  0.923601855281087  0.6654401335253848  1.0000
  H   H14       1.0  0.04472176769101477  0.31955133104317235  0.098316564184173  1.0000
  H   H15       1.0  0.8346959495483611  0.6115052656805873  0.1679760823719185  1.0000
  H   H16       1.0  0.7580074562743109  0.7912399176693226  0.024412210703518285  1.0000
  H   H17       1.0  0.8502351289536374  0.6353527924614163  0.6330528225431284  1.0000
  H   H18       1.0  0.9953597011087554  0.3853125251721572  0.557768683722036  1.0000
  H   H19       1.0  0.6859709418734193  0.002592321079946548  0.6038593908870151  1.0000
  Zn  Zn1       1.0  0.8072236957047466  0.524298266641315  0.408410021663544  1.0000
  Zn  Zn2       1.0  0.9718768275999237  0.5156125744418862  0.4056587445766069  1.0000
  C   C30       1.0  0.8906679258209685  0.5159879511790659  0.670252073963695  1.0000
  C   C31       1.0  0.8884343891048332  0.5239246156148547  0.14381681753124087  1.0000
  C   C32       1.0  0.8885166758726123  0.7833067011329908  0.40329196879790064  1.0000
  C   C33       1.0  0.8905855898282509  0.25660413650754  0.4107769873193931  1.0000
  O   O1        1.0  0.9511338908008421  0.5229132752496163  0.19649046087071653  1.0000
  O   O2        1.0  0.9529363438649753  0.5104059614051919  0.6154898517809666  1.0000
  O   O3        1.0  0.9511983462243626  0.7262692872528937  0.3999177035402705  1.0000
  O   O4        1.0  0.9528718317679539  0.3070499619524052  0.4120625020532278  1.0000
  O   O5        1.0  0.8262286353486454  0.7328608820963146  0.40200626511822923  1.0000
  O   O6        1.0  0.827966626026126  0.5169992883675214  0.6175783496678731  1.0000
  O   O7        1.0  0.8261641660048226  0.5295065402547479  0.19857722538846456  1.0000
  O   O8        1.0  0.8279021074573647  0.31364321737256495  0.4141493745604661  1.0000
