data_image0
_chemical_formula_structural       NC11NC3H8C12SCH12C12SCH12Zn2C4O8
_chemical_formula_sum              "N2 C44 H32 S2 Zn2 O8"
_cell_length_a       17.807433833752565
_cell_length_b       10.299776766347529
_cell_length_c       10.299780138516093
_cell_angle_alpha    85.57845135651907
_cell_angle_beta     88.51639907153644
_cell_angle_gamma    90.66624570658541

_space_group_name_H-M_alt    "P 1"
_space_group_IT_number       1

loop_
  _space_group_symop_operation_xyz
  'x, y, z'

loop_
  _atom_site_type_symbol
  _atom_site_label
  _atom_site_symmetry_multiplicity
  _atom_site_fract_x
  _atom_site_fract_y
  _atom_site_fract_z
  _atom_site_occupancy
  N   N1        1.0  0.7072600520042187  0.4380306759777931  0.5347827784790911  1.0000
  C   C1        1.0  0.6564418408745614  0.403323682706197  0.6013405640277589  1.0000
  C   C2        1.0  0.5932188607344309  0.3601510430568577  0.6841299554806006  1.0000
  C   C3        1.0  0.6049482233564044  0.2966372009685731  0.8068399797225669  1.0000
  C   C4        1.0  0.5436325024365812  0.2551436509620175  0.887345618874062  1.0000
  C   C5        1.0  0.4704330795334575  0.2768508640907117  0.8457819863660506  1.0000
  C   C6        1.0  0.4577269307313701  0.34051912264566775  0.7226117930939222  1.0000
  C   C7        1.0  0.37995925835913347  0.36355563281331493  0.6782676957206205  1.0000
  C   C8        1.0  0.3611889022236267  0.34664641604771174  0.5486927425997312  1.0000
  C   C9        1.0  0.2879595474153961  0.36831488917677746  0.5070850390469828  1.0000
  C   C10       1.0  0.2325574797479716  0.4072108651323756  0.594232066306159  1.0000
  C   C11       1.0  0.15719138742281272  0.4295374003763981  0.5512631597922546  1.0000
  N   N2        1.0  0.0966024226999174  0.4474862760153706  0.5167192862221821  1.0000
  C   C12       1.0  0.25063627470517  0.42433050243605797  0.7232759190863496  1.0000
  C   C13       1.0  0.32381285437691537  0.4026271734057121  0.7651390384758578  1.0000
  C   C14       1.0  0.5198999631044852  0.38200811252291506  0.6421225688084577  1.0000
  H   H1        1.0  0.6614146445828957  0.2792326289694066  0.8402032283723073  1.0000
  H   H2        1.0  0.5528323908058521  0.20571949930985145  0.9820752531183597  1.0000
  H   H3        1.0  0.4237952834278655  0.24231369660962865  0.9092166422663084  1.0000
  H   H4        1.0  0.4028784752911366  0.3149853914075397  0.47997816237625013  1.0000
  H   H5        1.0  0.2745284315179736  0.3544056358550858  0.40705465835769544  1.0000
  H   H6        1.0  0.2082301851167381  0.45476837488142274  0.7914757045906169  1.0000
  H   H7        1.0  0.3367152654113953  0.41808175473957393  0.8649867372313653  1.0000
  H   H8        1.0  0.5113982812401298  0.4327946589263836  0.5476272958041997  1.0000
  C   C15       1.0  0.9020056627521917  0.06139514398749356  0.5257459612578574  1.0000
  C   C16       1.0  0.9065092486137936  0.04998181623973496  0.662044093550644  1.0000
  C   C17       1.0  0.9087189204379716  0.9270582161174619  0.7311161561784381  1.0000
  C   C18       1.0  0.9063655954623385  0.814690555430791  0.6620659479097922  1.0000
  C   C19       1.0  0.9018640161004364  0.8241119841834312  0.5257669731807757  1.0000
  C   C20       1.0  0.8997088258242861  0.9479039471594818  0.45836996303290434  1.0000
  C   C21       1.0  0.9134749270021187  0.9160479082207238  0.8753045856129495  1.0000
  C   C22       1.0  0.8704728510887462  0.821564316413185  0.9513386584351582  1.0000
  C   C23       1.0  0.8749713728107719  0.8114373310604853  0.08703246682556065  1.0000
  C   C24       1.0  0.9222845169736461  0.8955113336571991  0.14850748136733116  1.0000
  C   C25       1.0  0.9654657644242272  0.989425882968368  0.07383809213291126  1.0000
  C   C26       1.0  0.9610774035493145  0.9999054294784806  0.9381287583466821  1.0000
  S   S1        1.0  0.9281395841353819  0.8820584924790557  0.32261746286184667  1.0000
  C   C27       1.0  0.8526459475403946  0.9962924589678864  0.3456477296017648  1.0000
  H   H9        1.0  0.9003191479681748  0.39319833970940476  0.4738088145265218  1.0000
  H   H10       1.0  0.9072729415801265  0.1368465976242368  0.7149643483246162  1.0000
  H   H11       1.0  0.9090881468020597  0.7197580460166303  0.7146991948691516  1.0000
  H   H12       1.0  0.8962350144718193  0.955940368414445  0.35322172551360564  1.0000
  H   H13       1.0  0.9001112028110614  0.5002472969562285  0.4738375678996542  1.0000
  H   H14       1.0  0.8326583179690534  0.7566683891378111  0.9059812887116563  1.0000
  H   H15       1.0  0.8413787338390856  0.7385751699904651  0.14430971112720237  1.0000
  H   H16       1.0  0.002480607131432941  0.0543587194573707  0.12082141865073404  1.0000
  H   H17       1.0  0.9956181119500005  0.07242206929110105  0.8822205004941053  1.0000
  H   H18       1.0  0.8676890923577044  0.09297350814166294  0.296074586506959  1.0000
  H   H19       1.0  0.8439324102593346  0.006790379998183885  0.4513260128295105  1.0000
  H   H20       1.0  0.7997854775781039  0.9594641208482241  0.30598020689841554  1.0000
  C   C28       1.0  0.9019650440712365  0.44264299842361116  0.14440293371538357  1.0000
  C   C29       1.0  0.8305447914769992  0.38289752461239607  0.15120979769106513  1.0000
  C   C30       1.0  0.7943258393237111  0.35273756041624743  0.03751335520244092  1.0000
  C   C31       1.0  0.830483244594128  0.38312146656014795  0.9159087609278308  1.0000
  C   C32       1.0  0.9019046178600008  0.44286414413399267  0.9071100066081333  1.0000
  C   C33       1.0  0.9372455445148246  0.4722911468015831  0.021898642984674144  1.0000
  C   C34       1.0  0.7187681684361635  0.28954685943365516  0.04577730391858958  1.0000
  C   C35       1.0  0.6631215067911356  0.3298559774151213  0.9574033439417841  1.0000
  C   C36       1.0  0.5920231004284093  0.2703511912526677  0.9654171158915535  1.0000
  C   C37       1.0  0.5755342916737705  0.1701419505114219  0.06174295648345661  1.0000
  C   C38       1.0  0.6305124905508706  0.1290176734424564  0.14974226423191617  1.0000
  C   C39       1.0  0.7016574068680146  0.18835016106161562  0.14208873909359054  1.0000
  S   S2        1.0  0.48433610247708925  0.09365667798189765  0.07157407674722949  1.0000
  C   C40       1.0  0.44578888031870867  0.20693460774614245  0.18209359336895603  1.0000
  H   H21       1.0  0.9291903939521172  0.465361503800373  0.46926570679366847  1.0000
  H   H22       1.0  0.8024725434008956  0.3612936554115113  0.24506116083060342  1.0000
  H   H23       1.0  0.8032449089215051  0.3584587965721844  0.8280998206601428  1.0000
  H   H24       1.0  0.9923434040436039  0.5183814573302044  0.015879056984605677  1.0000
  H   H25       1.0  0.9291027781091039  0.4656868364793651  0.5763002091781586  1.0000
  H   H26       1.0  0.6742781777161366  0.40849394567831765  0.8832089566226307  1.0000
  H   H27       1.0  0.5496876140240984  0.30265596569906705  0.8970505973154704  1.0000
  H   H28       1.0  0.6182074589749641  0.051047783686954507  0.22411480747272394  1.0000
  H   H29       1.0  0.743589074864777  0.15398461194790358  0.21037313892984374  1.0000
  H   H30       1.0  0.4775577397054722  0.20167610481830978  0.27363367325314636  1.0000
  H   H31       1.0  0.3861751637250319  0.18035832864984755  0.20563124421549103  1.0000
  H   H32       1.0  0.44867411670969304  0.30772566312802824  0.1353703439845273  1.0000
  Zn  Zn1       1.0  0.8196158497800433  0.44075588547768935  0.5295775289278102  1.0000
  Zn  Zn2       1.0  0.9842466112972645  0.4447504501459069  0.5219351210675156  1.0000
  C   C41       1.0  0.901915317254268  0.43764869202784923  0.7629419515681415  1.0000
  C   C42       1.0  0.9019489412713748  0.4478593258491771  0.28857074247873066  1.0000
  C   C43       1.0  0.9018873133871591  0.6799406771203143  0.5205882009391058  1.0000
  C   C44       1.0  0.901976889245841  0.2055657791336427  0.530924564908481  1.0000
  O   O1        1.0  0.9644200540923729  0.45112022379896743  0.33405452197874275  1.0000
  O   O2        1.0  0.9643951433399194  0.4374185964165396  0.711657387477537  1.0000
  O   O3        1.0  0.9643716875427573  0.6330724185353055  0.5159550582861361  1.0000
  O   O4        1.0  0.9644434537181975  0.25546640957898425  0.5297567564074973  1.0000
  O   O5        1.0  0.8394189511787113  0.6300399246828755  0.5217558961889759  1.0000
  O   O6        1.0  0.8394424066881171  0.43438766282544106  0.7174581561808107  1.0000
  O   O7        1.0  0.8394673176226569  0.44808924450107684  0.3398537293407824  1.0000
  O   O8        1.0  0.8394907172394201  0.2524354210205741  0.5355560611333319  1.0000
