data_image0
_chemical_formula_structural       NC9NC3NH7C8NH7C7ONH7Zn2C4O8
_chemical_formula_sum              "N5 C31 H21 O9 Zn2"
_cell_length_a       16.053384444249904
_cell_length_b       9.274263428431858
_cell_length_c       10.297855452804892
_cell_angle_alpha    85.50121379664337
_cell_angle_beta     89.79073978720562
_cell_angle_gamma    89.79185309571561

_space_group_name_H-M_alt    "P 1"
_space_group_IT_number       1

loop_
  _space_group_symop_operation_xyz
  'x, y, z'

loop_
  _atom_site_type_symbol
  _atom_site_label
  _atom_site_symmetry_multiplicity
  _atom_site_fract_x
  _atom_site_fract_y
  _atom_site_fract_z
  _atom_site_occupancy
  N   N1        1.0  0.7942819537377452  0.5596448191578085  0.5632472112554187  1.0000
  C   C1        1.0  0.7433934717366456  0.5365599582779202  0.4884024928096044  1.0000
  C   C2        1.0  0.6801530257652024  0.5078767608405557  0.3954271112569007  1.0000
  C   C3        1.0  0.6937049218909561  0.4945120289922916  0.2646813755919655  1.0000
  C   C4        1.0  0.6169130178140012  0.46640490947630125  0.21243774040233673  1.0000
  C   C5        1.0  0.5597899431511946  0.4641860611045059  0.3141274987993734  1.0000
  C   C6        1.0  0.4689743819568483  0.43773574625307554  0.3038964807655846  1.0000
  C   C7        1.0  0.4133605038322269  0.48513468430055173  0.39778753660311644  1.0000
  C   C8        1.0  0.3276572695134039  0.4600490618340039  0.3879879904215883  1.0000
  C   C9        1.0  0.2712750462115823  0.5093848280360056  0.4842500633390794  1.0000
  N   N2        1.0  0.2259603604126449  0.5490438274575729  0.5616296944316355  1.0000
  C   C10       1.0  0.2968411079986787  0.3874401360211277  0.2843111828340077  1.0000
  C   C11       1.0  0.3514472311689089  0.3401739541292026  0.19063174287969908  1.0000
  C   C12       1.0  0.4369434098331328  0.36507568000426804  0.20003476255025077  1.0000
  N   N3        1.0  0.5991218026378581  0.48965629060962673  0.4256838941011385  1.0000
  H   H1        1.0  0.7525061714626494  0.504120282189187  0.21305059236875867  1.0000
  H   H2        1.0  0.6045715106155678  0.4511462915209705  0.11125589777568057  1.0000
  H   H3        1.0  0.4360295739682422  0.5433618477313623  0.477560565935496  1.0000
  H   H4        1.0  0.2306959026883182  0.3674908935094927  0.2758904288648494  1.0000
  H   H5        1.0  0.3274991979936088  0.28377007998324344  0.11062362027021444  1.0000
  H   H6        1.0  0.4778279244108643  0.32574099135851287  0.12680093909019163  1.0000
  H   H7        1.0  0.5729613507625482  0.4922517637137163  0.5184565602978635  1.0000
  C   C13       1.0  0.0074892459637883  0.13082542361192792  0.5627243417783803  1.0000
  C   C14       1.0  0.9967348781959046  0.21449493973663272  0.44405345378513505  1.0000
  C   C15       1.0  0.9941501924097191  0.14969236403659458  0.3264265529110124  1.0000
  C   C16       1.0  0.002933045586869462  0.9996955552956911  0.324558527206024  1.0000
  C   C17       1.0  0.011452059185155685  0.914576637456137  0.44244155221884585  1.0000
  C   C18       1.0  0.012760956028538  0.977852010941283  0.5621637734790372  1.0000
  C   C19       1.0  0.9989036328203355  0.9298554677148091  0.19783704631391785  1.0000
  C   C20       1.0  0.9124825002084038  0.8930525214248499  0.1692920763392527  1.0000
  N   N4        1.0  0.8442721421804036  0.8640033914084383  0.1467707298440235  1.0000
  H   H8        1.0  0.07934107959829206  0.2072123957748278  0.8619259755210178  1.0000
  H   H9        1.0  0.9921305016122177  0.33122773038294007  0.4419432813186132  1.0000
  H   H10       1.0  0.9860755444685575  0.21685318633966952  0.23643934911674067  1.0000
  H   H11       1.0  0.01504881401172753  0.797999405219143  0.4407170935720843  1.0000
  H   H12       1.0  0.057894556475886594  0.6791704360287296  0.7653795787330008  1.0000
  H   H13       1.0  0.037386903647474094  0.8297931971037501  0.20271960384723764  1.0000
  H   H14       1.0  0.023510504957563683  0.004095284168170518  0.11691033578689702  1.0000
  C   C21       1.0  0.010158665586150308  0.5544812600960278  0.1810018201231038  1.0000
  C   C22       1.0  0.9251741064198021  0.5913426848429646  0.17790894348969633  1.0000
  C   C23       1.0  0.8818785333474914  0.6088012613280798  0.05934395024512695  1.0000
  C   C24       1.0  0.925070807900679  0.591020739003923  0.9426766251477079  1.0000
  C   C25       1.0  0.010091520948384945  0.5541960868271931  0.9438862601321326  1.0000
  C   C26       1.0  0.052026483579288074  0.5358359112995779  0.06351165150476157  1.0000
  C   C27       1.0  0.7921825789858892  0.6480752228838684  0.05865241917403097  1.0000
  O   O1        1.0  0.7617424847829056  0.7103717629429092  0.1525367109867093  1.0000
  N   N5        1.0  0.7386953613667486  0.6152802125287279  0.9542505793809295  1.0000
  H   H15       1.0  0.1708482125238575  0.4853284804776417  0.3940786571460826  1.0000
  H   H16       1.0  0.8923221600042845  0.6053003857425279  0.26818135125640263  1.0000
  H   H17       1.0  0.8931781348595385  0.608436500375731  0.8503942958711423  1.0000
  H   H18       1.0  0.11752437702213459  0.507422827631872  0.06514196462780886  1.0000
  H   H19       1.0  0.17110882217981205  0.4868605322743491  0.7387353472922901  1.0000
  H   H20       1.0  0.6767087849488004  0.6498428744687215  0.9533753548033612  1.0000
  H   H21       1.0  0.7580827794882956  0.548998275595295  0.8825322887392127  1.0000
  Zn  Zn1       1.0  0.9188549902694743  0.5565817528207035  0.5627879276644645  1.0000
  Zn  Zn2       1.0  0.10138722635887065  0.5520951400521212  0.5620996020874611  1.0000
  C   C28       1.0  0.010066602528755684  0.548504584342739  0.7996885881242436  1.0000
  C   C29       1.0  0.010177618660269562  0.560174079212912  0.32519906039779634  1.0000
  C   C30       1.0  0.011760654066103713  0.8177479598498145  0.5570935671919719  1.0000
  C   C31       1.0  0.008483494047074823  0.29092897245957827  0.5677941519636716  1.0000
  O   O2        1.0  0.07945397264666985  0.5603757032154603  0.37333175968699267  1.0000
  O   O3        1.0  0.07932798548717357  0.5448966371977213  0.7510330924510427  1.0000
  O   O4        1.0  0.08069501961576053  0.7623140904145844  0.5551358991770992  1.0000
  O   O5        1.0  0.07808687630497624  0.3429582618829772  0.5692288557955998  1.0000
  O   O6        1.0  0.9421552780340852  0.7657186325224816  0.5556586741843843  1.0000
  O   O7        1.0  0.9407882546920608  0.5483029120845093  0.7515557970527829  1.0000
  O   O8        1.0  0.9409142417315945  0.5637819284268015  0.3738529026209407  1.0000
  O   O9        1.0  0.9395471453137239  0.34636447674257137  0.5697500961229425  1.0000
