data_image0
_chemical_formula_structural       NC12NC2H8C7OClH5C7ONC2H10Zn2C4O8
_chemical_formula_sum              "N3 C34 H23 O10 Cl1 Zn2"
_cell_length_a       17.80743265337812
_cell_length_b       10.29851198555357
_cell_length_c       10.299292011521983
_cell_angle_alpha    85.57409494147583
_cell_angle_beta     91.51985544577353
_cell_angle_gamma    89.43739496170677

_space_group_name_H-M_alt    "P 1"
_space_group_IT_number       1

loop_
  _space_group_symop_operation_xyz
  'x, y, z'

loop_
  _atom_site_type_symbol
  _atom_site_label
  _atom_site_symmetry_multiplicity
  _atom_site_fract_x
  _atom_site_fract_y
  _atom_site_fract_z
  _atom_site_occupancy
  N   N1        1.0  0.7076446418364919  0.4064432001569416  0.6013559500328955  1.0000
  C   C1        1.0  0.6568349491283055  0.43598558765853346  0.5326583781359484  1.0000
  C   C2        1.0  0.5936226753736984  0.4727341743555003  0.44720724655172234  1.0000
  C   C3        1.0  0.6053679989241081  0.5267245549413455  0.3205896429993025  1.0000
  C   C4        1.0  0.5440627164443672  0.5619700690253753  0.2375344525862864  1.0000
  C   C5        1.0  0.4708579041266974  0.5434885069733313  0.28043697476449525  1.0000
  C   C6        1.0  0.4581357400405992  0.48937944492183694  0.40752271301158904  1.0000
  C   C7        1.0  0.5202983409670824  0.4541371803440075  0.4905613920111369  1.0000
  C   C8        1.0  0.3803623024529111  0.4697844530375719  0.45328548017479753  1.0000
  C   C9        1.0  0.36155959884183925  0.4970108122007047  0.5803278415989707  1.0000
  C   C10       1.0  0.28832483578826357  0.47857084006239936  0.6232709261298051  1.0000
  C   C11       1.0  0.23294968849908976  0.4326504505864526  0.5400096035298076  1.0000
  C   C12       1.0  0.1575781201530606  0.41365799513189355  0.5843535914696962  1.0000
  N   N2        1.0  0.09698471669580272  0.39838933825950124  0.62000310720315  1.0000
  C   C13       1.0  0.2510608223459164  0.4052553169242181  0.4135102024501301  1.0000
  C   C14       1.0  0.3242427651926161  0.4237100019256672  0.370311235074964  1.0000
  H   H1        1.0  0.6618385929115254  0.5415400405000743  0.28615323901995726  1.0000
  H   H2        1.0  0.5532747558032965  0.6040436188378835  0.13975706135682642  1.0000
  H   H3        1.0  0.4242279443143863  0.5731084151976424  0.21484729867875688  1.0000
  H   H4        1.0  0.5117846806280587  0.410678124521686  0.5882143372445812  1.0000
  H   H5        1.0  0.40322771444541927  0.5342134708436763  0.6458999569243807  1.0000
  H   H6        1.0  0.2748685658251788  0.500447425899071  0.7212782673718738  1.0000
  H   H7        1.0  0.20867579104639272  0.3693202078881534  0.34835103716281623  1.0000
  H   H8        1.0  0.3371705767464159  0.40029777824853996  0.27260722175378316  1.0000
  C   C15       1.0  0.90231036499844  0.02100316483339548  0.6106939637461701  1.0000
  C   C16       1.0  0.9681809058377454  0.024459606198303115  0.5385731570585472  1.0000
  C   C17       1.0  0.0017045755119786696  0.9091074946319628  0.5018685755252303  1.0000
  C   C18       1.0  0.9682152000761662  0.7892016851208157  0.5385355867919512  1.0000
  C   C19       1.0  0.9023261954457884  0.7838192411834738  0.6106766145700284  1.0000
  C   C20       1.0  0.869761957187963  0.9002122928733688  0.6463308245304277  1.0000
  C   C21       1.0  0.07137510746050045  0.9149705498502401  0.42558745340527815  1.0000
  O   O1        1.0  0.10072707104010603  0.023148000387470002  0.3934488871454467  1.0000
  Cl  Cl1       1.0  0.11561742483502702  0.7738276951647287  0.37715016263623286  1.0000
  H   H9        1.0  0.8771147383100119  0.34717401897639594  0.6382799748979642  1.0000
  H   H10       1.0  0.993486201725202  0.1173592001504653  0.5108665820082963  1.0000
  H   H11       1.0  0.9932429868638175  0.699542080834731  0.5111330053834868  1.0000
  H   H12       1.0  0.8189481528571443  0.8967777718136299  0.701966727899761  1.0000
  H   H13       1.0  0.877056799618215  0.4542440532305213  0.638340804179073  1.0000
  C   C22       1.0  0.9023738542784826  0.40231159193474064  0.22931676808490375  1.0000
  C   C23       1.0  0.9649194560162803  0.4844149031518703  0.22489066006693498  1.0000
  C   C24       1.0  0.9969159679044653  0.5252857375043218  0.1055255119755607  1.0000
  C   C25       1.0  0.9647791746728621  0.4846207660490583  0.9896043842794469  1.0000
  C   C26       1.0  0.9022626884054522  0.40251083066262383  0.9920538401625861  1.0000
  C   C27       1.0  0.8715185986374426  0.3615729964989669  0.11242474366554078  1.0000
  C   C28       1.0  0.06281216445079374  0.6123540069420772  0.10039295625412703  1.0000
  O   O2        1.0  0.07335019780946683  0.6853314864243651  0.9985221816756732  1.0000
  N   N3        1.0  0.11532045420175276  0.6136837084958475  0.20856185415217743  1.0000
  C   C29       1.0  0.17509471234319607  0.7100409196798334  0.21000682812051186  1.0000
  C   C30       1.0  0.22324558162932084  0.6906825295885128  0.33483835090634556  1.0000
  H   H14       1.0  0.8780566103935445  0.3718182989371226  0.5583999952113929  1.0000
  H   H15       1.0  0.9876643363614496  0.5184233477880242  0.3144559195796177  1.0000
  H   H16       1.0  0.9890720732359505  0.5161985963821865  0.8972959265752408  1.0000
  H   H17       1.0  0.8232939422659877  0.2982219601167693  0.11510536268621196  1.0000
  H   H18       1.0  0.11236105628298332  0.5418819238924907  0.2856218309272345  1.0000
  H   H19       1.0  0.1497766576412196  0.8094871843699101  0.2031515855201289  1.0000
  H   H20       1.0  0.21138196926008623  0.7008096142962705  0.12497098633349091  1.0000
  H   H21       1.0  0.18805366667163215  0.7009719189063524  0.4209844057123675  1.0000
  H   H22       1.0  0.2500280305918505  0.5924262196266157  0.34248812792258576  1.0000
  H   H23       1.0  0.2679445332810815  0.7651480785104046  0.333753615851091  1.0000
  Zn  Zn1       1.0  0.8199997794080081  0.40411556386078384  0.6067446037950597  1.0000
  Zn  Zn2       1.0  0.9846295748668524  0.40070638263790626  0.6146250467220524  1.0000
  C   C31       1.0  0.9022819205568446  0.3972989276784358  0.847880225256892  1.0000
  C   C32       1.0  0.902349231485668  0.4075246204345655  0.3734896387434908  1.0000
  C   C33       1.0  0.9023200798652345  0.6396295066530919  0.6055045534495826  1.0000
  C   C34       1.0  0.9023110159581876  0.1651924821582076  0.6158653771357778  1.0000
  O   O3        1.0  0.9648171171352136  0.4079747275167933  0.4248659583222425  1.0000
  O   O4        1.0  0.964764240420563  0.39426035099761925  0.8024846056953018  1.0000
  O   O5        1.0  0.9647942121394968  0.5899453760014398  0.6067644955169909  1.0000
  O   O6        1.0  0.9647870892536664  0.21228971294215704  0.6205859684367119  1.0000
  O   O7        1.0  0.8398422088411256  0.5925322347213312  0.6007836793843608  1.0000
  O   O8        1.0  0.839812237161214  0.3968487701840109  0.796503720281654  1.0000
  O   O9        1.0  0.8398651141524496  0.4105631010330879  0.4188835115129126  1.0000
  O   O10       1.0  0.8398350862534474  0.21487807719406618  0.6146036189951845  1.0000
