data_image0
_chemical_formula_structural       NC9NC3NH7C7NC2NH8C8H6Zn2C4O8
_chemical_formula_sum              "N5 C33 H21 Zn2 O8"
_cell_length_a       16.053384444249904
_cell_length_b       9.273995741505848
_cell_length_c       9.275144076552241
_cell_angle_alpha    86.09759500334717
_cell_angle_beta     90.26395466223778
_cell_angle_gamma    89.75855226915094

_space_group_name_H-M_alt    "P 1"
_space_group_IT_number       1

loop_
  _space_group_symop_operation_xyz
  'x, y, z'

loop_
  _atom_site_type_symbol
  _atom_site_label
  _atom_site_symmetry_multiplicity
  _atom_site_fract_x
  _atom_site_fract_y
  _atom_site_fract_z
  _atom_site_occupancy
  N   N1        1.0  0.7861905683262387  0.5478751935066668  0.41064820024574056  1.0000
  C   C1        1.0  0.7349146656019877  0.5241973093521803  0.3275191953482435  1.0000
  C   C2        1.0  0.6711929506866983  0.4947774336643746  0.22425269114530552  1.0000
  C   C3        1.0  0.6840592560383622  0.4803715612633454  0.07912175153636491  1.0000
  C   C4        1.0  0.6070008398583056  0.4518528050684702  0.021056956833590768  1.0000
  C   C5        1.0  0.5504151159329798  0.4504461508047745  0.13389456149210144  1.0000
  C   C6        1.0  0.4595542056871232  0.42391925763441685  0.12245632323226752  1.0000
  C   C7        1.0  0.4044203144372011  0.4720585794001561  0.22679903360106188  1.0000
  C   C8        1.0  0.318673562156696  0.44689956015520654  0.21584397925156606  1.0000
  C   C9        1.0  0.2627832050630071  0.49699426439769784  0.32282401611735256  1.0000
  N   N2        1.0  0.2178639024131062  0.5372633309988359  0.4088192141633271  1.0000
  C   C10       1.0  0.2873340092283838  0.3734769879130282  0.1005611228912664  1.0000
  C   C11       1.0  0.3414612188701656  0.32547208602023375  0.9964536680497416  1.0000
  C   C12       1.0  0.4269988830668884  0.3504440787040206  0.0069681080858456914  1.0000
  N   N3        1.0  0.5903273476510268  0.4768020054100501  0.2577700290821776  1.0000
  H   H1        1.0  0.7425849065107709  0.4895658070585169  0.021858119658466846  1.0000
  H   H2        1.0  0.5941303718760698  0.4357894132823858  0.9087268737595265  1.0000
  H   H3        1.0  0.4274913319445962  0.5309113402407226  0.315509788533038  1.0000
  H   H4        1.0  0.2211508839835707  0.35346436608473875  0.09115259898127603  1.0000
  H   H5        1.0  0.3171094020730059  0.2684403866496168  0.9074878846078324  1.0000
  H   H6        1.0  0.4675097863423864  0.31053235548902247  0.9255745377794833  1.0000
  H   H7        1.0  0.5646556174573526  0.48013756233926097  0.3607278274621917  1.0000
  C   C13       1.0  0.999535190458696  0.11913420329566458  0.4086912699984493  1.0000
  C   C14       1.0  0.013551812066332491  0.20111521937540355  0.278275790073113  1.0000
  C   C15       1.0  0.035046911485171695  0.1345995038780008  0.15323516358817302  1.0000
  C   C16       1.0  0.04342970187287154  0.9839601920474644  0.1550370800283416  1.0000
  C   C17       1.0  0.027658435326727522  0.9007363720351276  0.2842659098954643  1.0000
  C   C18       1.0  0.0045272263303712855  0.9659931037511064  0.41078849828884123  1.0000
  C   C19       1.0  0.06721897177932745  0.9154422846865838  0.020988003664517592  1.0000
  N   N4        1.0  0.06964217459351187  0.9887522613088456  0.8899983333916391  1.0000
  C   C20       1.0  0.09420367062512258  0.8896276708557433  0.7992381984338208  1.0000
  C   C21       1.0  0.10644579899430906  0.7589468443413888  0.8757078170386178  1.0000
  N   N5        1.0  0.08951086142098763  0.7753356103770368  0.01514868542739922  1.0000
  H   H8        1.0  0.9329544547775492  0.3868219015979406  0.616426276628464  1.0000
  H   H9        1.0  0.009905817550168951  0.3180162496379284  0.2736422034444639  1.0000
  H   H10       1.0  0.046345973419972736  0.2018376298299609  0.05526824651084627  1.0000
  H   H11       1.0  0.030488256121154134  0.7841186589809319  0.2862514845779851  1.0000
  H   H12       1.0  0.006735346345935422  0.6695826077104473  0.6504843502526185  1.0000
  H   H13       1.0  0.10288307595524772  0.9116330987486615  0.6842784437291294  1.0000
  H   H14       1.0  0.12670377207993044  0.6590388417900448  0.8328913788755936  1.0000
  H   H15       1.0  0.09443084642599087  0.695262530063571  0.09938482102807855  1.0000
  C   C22       1.0  5.182421359206829e-05  0.5396612485216754  0.986455403626882  1.0000
  C   C23       1.0  0.9462973255305013  0.6350344201857819  0.05289212368596408  1.0000
  C   C24       1.0  0.8992686154312518  0.7373876113430916  0.9704093274110314  1.0000
  C   C25       1.0  0.9051451824140236  0.7464588696608636  0.8199769988267303  1.0000
  C   C26       1.0  0.9571698177252341  0.6510224651950285  0.7517915109870601  1.0000
  C   C27       1.0  0.004010592333043573  0.5454661499034721  0.8330244378974512  1.0000
  C   C28       1.0  0.8569300460082159  0.8528055821929261  0.7351392303468489  1.0000
  C   C29       1.0  0.8165644717557794  0.9418427294150976  0.6640939688296035  1.0000
  H   H16       1.0  0.17209620942851722  0.3461187260396489  0.10385698709369251  1.0000
  H   H17       1.0  0.9421165798335407  0.6327129029458625  0.1695738977290402  1.0000
  H   H18       1.0  0.8588840759779578  0.8104880372249178  0.02419917764734092  1.0000
  H   H19       1.0  0.9595931412567505  0.6569554506312321  0.6347116204703469  1.0000
  H   H20       1.0  0.1180154506793738  0.4106203202513794  0.5623969813913363  1.0000
  H   H21       1.0  0.7811318737971393  0.019998355857768765  0.6017295003632501  1.0000
  Zn  Zn1       1.0  0.9107621818374955  0.5448090506760381  0.4101287012096537  1.0000
  Zn  Zn2       1.0  0.09329225128371532  0.5403178071599244  0.40935046494792804  1.0000
  C   C30       1.0  0.0032265785822076522  0.5386245631451667  0.6729905085254979  1.0000
  C   C31       1.0  0.0008298591479869464  0.5465040659807507  0.14648879511550872  1.0000
  C   C32       1.0  0.0035524767417556297  0.8058795071754098  0.4046481531457462  1.0000
  C   C33       1.0  0.0005038888509056878  0.27924739160149414  0.4148312233190117  1.0000
  O   O1        1.0  0.07036014778865973  0.5470898838326506  0.19990211103769373  1.0000
  O   O2        1.0  0.0722323808403067  0.5346289047509073  0.6189861116591135  1.0000
  O   O3        1.0  0.07249462095235693  0.75044068520873  0.4022977688176608  1.0000
  O   O4        1.0  0.07009784494687077  0.3312781144812697  0.4165903460933065  1.0000
  O   O5        1.0  0.9339565258857593  0.7538487448888521  0.402888820322272  1.0000
  O   O6        1.0  0.9336942956226616  0.5380386963142008  0.6195770905979694  1.0000
  O   O7        1.0  0.9318220542262214  0.5504996132636153  0.20049135684041164  1.0000
  O   O8        1.0  0.9315597518255903  0.33468783433995086  0.41717969993986115  1.0000
