data_image0
_chemical_formula_structural       NC8NC6H8C6OCH8C7F3H5Zn2C4O8
_chemical_formula_sum              "N2 C32 H21 O9 F3 Zn2"
_cell_length_a       17.457602349358154
_cell_length_b       9.273888216677433
_cell_length_c       9.272291681409872
_cell_angle_alpha    86.26440928452504
_cell_angle_beta     93.27365386630078
_cell_angle_gamma    91.10627454168798

_space_group_name_H-M_alt    "P 1"
_space_group_IT_number       1

loop_
  _space_group_symop_operation_xyz
  'x, y, z'

loop_
  _atom_site_type_symbol
  _atom_site_label
  _atom_site_symmetry_multiplicity
  _atom_site_fract_x
  _atom_site_fract_y
  _atom_site_fract_z
  _atom_site_occupancy
  N   N1        1.0  0.7081182639236822  0.5991936857636267  0.47956047884210795  1.0000
  C   C1        1.0  0.6472665439042994  0.5481064018427935  0.4676179251251135  1.0000
  C   C2        1.0  0.5715644274107263  0.48456025880191916  0.45277200397341594  1.0000
  C   C3        1.0  0.5131124553985484  0.5298866084954617  0.5360818822590918  1.0000
  C   C4        1.0  0.43883850982458844  0.4686980610151417  0.5219253909763375  1.0000
  C   C5        1.0  0.3768009209470985  0.5165583747980327  0.6101532840345116  1.0000
  C   C6        1.0  0.3019121560541371  0.5365077305917834  0.5482883670475849  1.0000
  C   C7        1.0  0.24346171660629745  0.5816309724444146  0.6317175154496655  1.0000
  C   C8        1.0  0.16712195845997643  0.6022309370272652  0.5673943035489992  1.0000
  N   N2        1.0  0.10575774764284099  0.6187862278777277  0.5156785875929619  1.0000
  C   C9        1.0  0.2594085738620048  0.607079811920928  0.7775771142904153  1.0000
  C   C10       1.0  0.3335119640055606  0.5875661155766905  0.8398737684731981  1.0000
  C   C11       1.0  0.3919516523041782  0.5426472900057135  0.756953532145936  1.0000
  C   C12       1.0  0.4243031796170363  0.3614169529043052  0.4228654661268163  1.0000
  C   C13       1.0  0.48274346463676965  0.3164039329388327  0.34000073249886453  1.0000
  C   C14       1.0  0.5562342829452723  0.3777226798097475  0.3547683314426299  1.0000
  H   H1        1.0  0.5252921351195701  0.614020968504781  0.6103282306585174  1.0000
  H   H2        1.0  0.28922857457942014  0.5188780015379328  0.4349377756209873  1.0000
  H   H3        1.0  0.2146117462450811  0.6419461744457844  0.843018921879594  1.0000
  H   H4        1.0  0.34567109425892373  0.6069213214341911  0.9528150533729038  1.0000
  H   H5        1.0  0.44871848347277726  0.5264616329500997  0.8081056878137918  1.0000
  H   H6        1.0  0.36804111182702226  0.3109839080980896  0.4108847752756817  1.0000
  H   H7        1.0  0.4710660029016502  0.23349709372260377  0.2644273535181101  1.0000
  H   H8        1.0  0.6010384174675658  0.34189592135668234  0.28989123215155405  1.0000
  C   C15       1.0  0.9091889783090557  0.18562585602817439  0.4963510176286119  1.0000
  C   C16       1.0  0.8907867094958616  0.2668560144758739  0.3659062102975228  1.0000
  C   C17       1.0  0.8658783537684983  0.19982763785848295  0.240526637619201  1.0000
  C   C18       1.0  0.8592286250730287  0.0485645134560726  0.24511583665000256  1.0000
  C   C19       1.0  0.8784233460977273  0.9661540495076157  0.3728593935141481  1.0000
  C   C20       1.0  0.9046944546568407  0.032343401932591  0.4989011563548067  1.0000
  O   O1        1.0  0.8479570834280284  0.2872856566023736  0.11436409571249118  1.0000
  C   C21       1.0  0.8218492358952719  0.23391462701785182  0.9793164235606748  1.0000
  H   H9        1.0  0.9167749357787502  0.26578622231455085  0.8518265408158103  1.0000
  H   H10       1.0  0.8940111723981229  0.3838530967375169  0.36192576928069564  1.0000
  H   H11       1.0  0.8399390580171424  0.993361876851524  0.15012128938069952  1.0000
  H   H12       1.0  0.8744345261851838  0.8494848963502692  0.37201701779896346  1.0000
  H   H13       1.0  0.9130150716279624  0.7359033157429863  0.7376203555859095  1.0000
  H   H14       1.0  0.7668527866470953  0.1732260978698834  0.9909366243809292  1.0000
  H   H15       1.0  0.8657364374137015  0.16309076025382252  0.9400726283019623  1.0000
  H   H16       1.0  0.8122173815042029  0.3264285473286311  0.8987337778916697  1.0000
  C   C22       1.0  0.9053463747051698  0.6052043474446489  0.07410753813886939  1.0000
  C   C23       1.0  0.9574304981260141  0.5170133455009818  0.1587407648181942  1.0000
  C   C24       1.0  0.01361534612555992  0.44194631584125715  0.09477520718663698  1.0000
  C   C25       1.0  0.019950217470691815  0.45483081272640535  0.9445021874808348  1.0000
  C   C26       1.0  0.9663626241836321  0.5381702590172497  0.8585455133926198  1.0000
  C   C27       1.0  0.9085370628349023  0.6127649508644265  0.9211445933225021  1.0000
  C   C28       1.0  0.07931942957725859  0.3704203276622744  0.8750043734252348  1.0000
  F   F1        1.0  0.143693451305982  0.3492429969885772  0.9676856406134052  1.0000
  F   F2        1.0  0.10190159704709933  0.44369972935363955  0.7492351932874439  1.0000
  F   F3        1.0  0.048404875971295634  0.23748719279530084  0.8417782896789578  1.0000
  H   H17       1.0  0.7957518432785419  0.891208928384276  0.14526144414256545  1.0000
  H   H18       1.0  0.9557053089198004  0.5083187780834351  0.275600677740015  1.0000
  H   H19       1.0  0.0526344050095009  0.3746368536792012  0.16329087140070286  1.0000
  H   H20       1.0  0.9685297751954169  0.5421235960144569  0.741768001483341  1.0000
  H   H21       1.0  0.733923006252133  0.7423070165826482  0.7924243965238864  1.0000
  Zn  Zn1       1.0  0.8228684813618783  0.6048438783143408  0.48999170040311996  1.0000
  Zn  Zn2       1.0  0.9910076231770614  0.6131243203894634  0.5052591380866185  1.0000
  C   C29       1.0  0.9079627384119993  0.6055923281144548  0.7610190308817387  1.0000
  C   C30       1.0  0.90591519307851  0.6123777813353304  0.23423212136086313  1.0000
  C   C31       1.0  0.9055184307722314  0.8722442707971922  0.4926716229377097  1.0000
  C   C32       1.0  0.9083594528281358  0.34572410439414347  0.5025795957694215  1.0000
  O   O2        1.0  0.9699140551615514  0.6179213462539666  0.29376528833719107  1.0000
  O   O3        1.0  0.9715775987010734  0.6063323358216195  0.7130730774028571  1.0000
  O   O4        1.0  0.9696029348570215  0.8216571228366798  0.4963805732946058  1.0000
  O   O5        1.0  0.97188866116902  0.4025965657613733  0.5104576791300562  1.0000
  O   O6        1.0  0.8419873859922459  0.8153716301182243  0.484793154142074  1.0000
  O   O7        1.0  0.8439620403487653  0.6000485745374058  0.7014855865681884  1.0000
  O   O8        1.0  0.8422984905952693  0.6116375192555923  0.28217606338612544  1.0000
  O   O9        1.0  0.8442730970616471  0.3963127294163251  0.49886856227676857  1.0000
