data_image0
_chemical_formula_structural       NC9NC3NH7C9H10C7ONH7Zn2C4O8
_chemical_formula_sum              "N4 C32 H24 O9 Zn2"
_cell_length_a       16.053384444249904
_cell_length_b       9.272676604525723
_cell_length_c       10.297855452804892
_cell_angle_alpha    85.79104961089988
_cell_angle_beta     89.79073978720562
_cell_angle_gamma    89.72820801156413

_space_group_name_H-M_alt    "P 1"
_space_group_IT_number       1

loop_
  _space_group_symop_operation_xyz
  'x, y, z'

loop_
  _atom_site_type_symbol
  _atom_site_label
  _atom_site_symmetry_multiplicity
  _atom_site_fract_x
  _atom_site_fract_y
  _atom_site_fract_z
  _atom_site_occupancy
  N   N1        1.0  0.793266008098048  0.5593179661902421  0.5703771103077996  1.0000
  C   C1        1.0  0.7423925634717827  0.5362379431780474  0.4954268596756242  1.0000
  C   C2        1.0  0.6791708016064971  0.5075607568453187  0.40232035320286474  1.0000
  C   C3        1.0  0.6927314034586317  0.49419882582850744  0.27151352081400204  1.0000
  C   C4        1.0  0.6159578082332601  0.4660975966891662  0.21914139423816795  1.0000
  C   C5        1.0  0.5588361789183306  0.4638792133188674  0.32082100919439727  1.0000
  C   C6        1.0  0.4680378473404405  0.43743444162944156  0.3104690738386142  1.0000
  C   C7        1.0  0.4123930937601742  0.4848234463360891  0.4045768133975411  1.0000
  C   C8        1.0  0.326706200103309  0.45974308103453526  0.3946625885701722  1.0000
  C   C9        1.0  0.27029183970467  0.5090685079968642  0.4911501993975591  1.0000
  N   N2        1.0  0.2249513202113926  0.5487191961276214  0.5687111311676292  1.0000
  C   C10       1.0  0.2959373357171841  0.3871493717905745  0.29065385008076805  1.0000
  C   C11       1.0  0.3505742478662949  0.33989309541792334  0.19675833329836315  1.0000
  C   C12       1.0  0.4360542056579762  0.3647896026669911  0.20627519093351968  1.0000
  N   N3        1.0  0.5981514472117364  0.4893441050573399  0.43249384136882824  1.0000
  H   H1        1.0  0.7515263942572886  0.5038050654348517  0.2199266616140878  1.0000
  H   H2        1.0  0.6036262404301229  0.450842176464818  0.11788979700817871  1.0000
  H   H3        1.0  0.4350242349830981  0.5430384071673549  0.4846160275639726  1.0000
  H   H4        1.0  0.2298051252539171  0.3672043100187048  0.2821418983699624  1.0000
  H   H5        1.0  0.3266629559216241  0.2835010417668744  0.11649236100163929  1.0000
  H   H6        1.0  0.47696434267546267  0.32546315734661  0.1328615493790739  1.0000
  H   H7        1.0  0.571989304656888  0.49193903423112156  0.5252783727421617  1.0000
  C   C13       1.0  0.006752631354958627  0.13058843783095606  0.567893897703666  1.0000
  C   C14       1.0  0.9733958065206897  0.19548056754216805  0.6755968964725745  1.0000
  C   C15       1.0  0.9476597833100143  0.11194881380715492  0.786445011239168  1.0000
  C   C16       1.0  0.9544500656805013  0.9610311556748802  0.7933199610126158  1.0000
  C   C17       1.0  0.9864422561148172  0.8947231050843623  0.6846214786384743  1.0000
  C   C18       1.0  0.01147261479486028  0.9774374551701063  0.5712054983544108  1.0000
  C   C19       1.0  0.9257340148760679  0.87809029967102  0.9182056153425012  1.0000
  C   C20       1.0  0.8836365141442727  0.7330325267564812  0.9054353576385271  1.0000
  C   C21       1.0  0.9715859064346702  0.7383035244976113  0.9600559359450357  1.0000
  H   H8        1.0  0.0252769208150101  0.42901004382488067  0.3549739101231748  1.0000
  H   H9        1.0  0.9690006060929027  0.3121110350348004  0.675488992614062  1.0000
  H   H10       1.0  0.9229730536381602  0.1659820486417309  0.8681535043733932  1.0000
  H   H11       1.0  0.9904159257287195  0.778224918147404  0.6858123102984399  1.0000
  H   H12       1.0  0.03312685582002728  0.900165667388432  0.253076892163679  1.0000
  H   H13       1.0  0.9021438835193081  0.9387730332845713  7.900631637036465e-05  1.0000
  H   H14       1.0  0.8797832950150838  0.6939003382445542  0.8064286215448894  1.0000
  H   H15       1.0  0.8353517696745109  0.7054179990586812  0.9805568872517705  1.0000
  H   H16       1.0  0.02113186044179072  0.7022453121388714  0.8943050767677961  1.0000
  H   H17       1.0  0.9747012052875527  0.7137636342315283  0.0671177331320465  1.0000
  C   C22       1.0  0.009146083465666255  0.5541554892495841  0.18810811402230532  1.0000
  C   C23       1.0  0.9241375129325727  0.5910091889902123  0.18518374898470746  1.0000
  C   C24       1.0  0.8808305674218464  0.608464106701571  0.06669856742957436  1.0000
  C   C25       1.0  0.9240344241275252  0.5906873106209893  0.9499499588708739  1.0000
  C   C26       1.0  0.009079124588488918  0.553870375744183  0.9509912503648872  1.0000
  C   C27       1.0  0.05102604695537938  0.5355140479373967  0.07053270839802228  1.0000
  C   C28       1.0  0.7911090301778435  0.6477298376584919  0.06618657683964435  1.0000
  O   O1        1.0  0.7606283562880846  0.7100133223034165  0.16035565659665307  1.0000
  N   N4        1.0  0.7376431750813522  0.6149417001158817  0.9616348150191799  1.0000
  H   H18       1.0  0.1698806762138445  0.48501720189953734  0.40086881987758827  1.0000
  H   H19       1.0  0.891276474533294  0.6049639647904819  0.27551996422680425  1.0000
  H   H20       1.0  0.8921304065375424  0.6080994221917547  0.8577472455549269  1.0000
  H   H21       1.0  0.11654244855348495  0.507106918766894  0.07203313142312684  1.0000
  H   H22       1.0  0.1701402878981304  0.48654893262591514  0.7455325137816522  1.0000
  H   H23       1.0  0.6756340847004413  0.649497118798639  0.9609175932686571  1.0000
  H   H24       1.0  0.7570737689593219  0.5486736538115953  0.8896135172353715  1.0000
  Zn  Zn1       1.0  0.9178410398974505  0.5562555417764197  0.5699038239429404  1.0000
  Zn  Zn2       1.0  0.10037619854627988  0.5517698692621056  0.5691949878652554  1.0000
  C   C29       1.0  0.00905791358804953  0.5481800660213463  0.8067675597162978  1.0000
  C   C30       1.0  0.009161328262946586  0.5598471153289253  0.3323313789566693  1.0000
  C   C31       1.0  0.01057658119823457  0.817367016504466  0.5654033818992708  1.0000
  C   C32       1.0  0.007642588704641409  0.2906584339623623  0.5736956194929264  1.0000
  O   O2        1.0  0.07843755091237582  0.5600486970773639  0.3804649999677647  1.0000
  O   O3        1.0  0.07832164674705511  0.5445728749896536  0.7580955703526009  1.0000
  O   O4        1.0  0.07954705612180325  0.761944764281377  0.563192298562973  1.0000
  O   O5        1.0  0.07721207931677987  0.34267681966752983  0.5753681746463861  1.0000
  O   O6        1.0  0.9410050968366688  0.7653485929033081  0.5637306373968745  1.0000
  O   O7        1.0  0.9397796971197592  0.5479784360273388  0.7586338467023375  1.0000
  O   O8        1.0  0.9398956011974758  0.563454208450013  0.38100171442261743  1.0000
  O   O9        1.0  0.938670129532446  0.3460823206906014  0.5759049864473107  1.0000
