data_image0
_chemical_formula_structural       NC8NC6H8C7OC3FC3H8C7OC4NC3H8Zn2C4O8
_chemical_formula_sum              "N3 C45 H24 O10 F1 Zn2"
_cell_length_a       17.457602349358154
_cell_length_b       10.29937835083307
_cell_length_c       10.299375074045738
_cell_angle_alpha    85.53063417163439
_cell_angle_beta     92.86983099302365
_cell_angle_gamma    91.70902404556999

_space_group_name_H-M_alt    "P 1"
_space_group_IT_number       1

loop_
  _space_group_symop_operation_xyz
  'x, y, z'

loop_
  _atom_site_type_symbol
  _atom_site_label
  _atom_site_symmetry_multiplicity
  _atom_site_fract_x
  _atom_site_fract_y
  _atom_site_fract_z
  _atom_site_occupancy
  N   N1        1.0  0.7228270339045118  0.45341814009018694  0.6262504323857347  1.0000
  C   C1        1.0  0.661740089815615  0.4074948559169982  0.615640497258424  1.0000
  C   C2        1.0  0.585745348894493  0.3503720014342566  0.6024512795473382  1.0000
  C   C3        1.0  0.5272201097945839  0.3905073365101644  0.6773466705427709  1.0000
  C   C4        1.0  0.4526638587116619  0.3355026083965451  0.6647716291484091  1.0000
  C   C5        1.0  0.3905478962749861  0.3778795208161812  0.7440887061119477  1.0000
  C   C6        1.0  0.3160089649226144  0.396369863644967  0.6883203294289648  1.0000
  C   C7        1.0  0.2574836765932874  0.43632122404626816  0.7633237036547682  1.0000
  C   C8        1.0  0.181506870007091  0.4554182858327122  0.7053396900160067  1.0000
  N   N2        1.0  0.12043443265604811  0.47076594346514744  0.6587206949711846  1.0000
  C   C9        1.0  0.2730051736640898  0.45802520169659156  0.8946039606427896  1.0000
  C   C10       1.0  0.3467594569566839  0.43992371653151974  0.9507598989975968  1.0000
  C   C11       1.0  0.40527314721737995  0.4001522454051538  0.8762142409835891  1.0000
  C   C12       1.0  0.4379214469972312  0.23968563728314504  0.5758683084788048  1.0000
  C   C13       1.0  0.4964349996635652  0.19982884347663152  0.5013728998645353  1.0000
  C   C14       1.0  0.5702064712764555  0.25494574417498206  0.5144978990518438  1.0000
  H   H1        1.0  0.5395755333351065  0.46567987002457345  0.7439699861483675  1.0000
  H   H2        1.0  0.30366777224045144  0.38143751893386324  0.5862935679738306  1.0000
  H   H3        1.0  0.22814672322237114  0.48888710802684576  0.9534380901380506  1.0000
  H   H4        1.0  0.3585872944354207  0.45641393369307104  0.052413172561313504  1.0000
  H   H5        1.0  0.4617524272517716  0.38514230499525354  0.922324679722014  1.0000
  H   H6        1.0  0.3814279084339875  0.19435206171039332  0.5652221748401831  1.0000
  H   H7        1.0  0.4845937046585561  0.12577327575816022  0.43355106070571137  1.0000
  H   H8        1.0  0.6150647462412079  0.22321390694577037  0.456175034259543  1.0000
  C   C15       1.0  0.9215535306740332  0.08070366382639693  0.6425432779064624  1.0000
  C   C16       1.0  0.8415074721710203  0.07722507631006681  0.6199808519605439  1.0000
  C   C17       1.0  0.801036940597672  0.9581779348213822  0.6100704446711092  1.0000
  C   C18       1.0  0.8416950684673165  0.8419892556363154  0.6200030474190539  1.0000
  C   C19       1.0  0.9217152500115006  0.8434707380281572  0.6424396854320642  1.0000
  C   C20       1.0  0.9611577829303718  0.9633266467871521  0.6539199918097709  1.0000
  C   C21       1.0  0.7166087239251605  0.9544718339017413  0.5848805666313781  1.0000
  O   O1        1.0  0.6869795171780909  0.8685144951441397  0.5157968065975  1.0000
  C   C22       1.0  0.6657930749996523  0.04818008470366929  0.6380723470656877  1.0000
  C   C23       1.0  0.5974554309765312  0.08522132167980144  0.5687077836778349  1.0000
  C   C24       1.0  0.5487160811809426  0.17233074447555863  0.6187909510883085  1.0000
  F   F1        1.0  0.483258928207747  0.20818932157265668  0.5507230303071322  1.0000
  C   C25       1.0  0.5673812489997455  0.22239594591135112  0.738925843957073  1.0000
  C   C26       1.0  0.6346173854996034  0.18505383131978426  0.8094150734020248  1.0000
  C   C27       1.0  0.6835153456846879  0.0980227799564806  0.7597495898434323  1.0000
  H   H9        1.0  0.07274394401176297  0.2947494934694932  0.6831360054269067  1.0000
  H   H10       1.0  0.8106386041083055  0.16739310272039634  0.6086464260931164  1.0000
  H   H11       1.0  0.8106364867453938  0.7501679135390139  0.6114140829790662  1.0000
  H   H12       1.0  0.022867345539514982  0.9652043762135257  0.6713132033844913  1.0000
  H   H13       1.0  0.5821759056841275  0.047588509869298294  0.47529731513135737  1.0000
  H   H14       1.0  0.5296306000638021  0.2897206663762206  0.7777239056279173  1.0000
  H   H15       1.0  0.648710803796793  0.2231219732427809  0.9029422598112982  1.0000
  H   H16       1.0  0.7346415669370512  0.0686709451240255  0.8170794168697135  1.0000
  C   C28       1.0  0.9216605073854836  0.46223068824112196  0.26110682885684233  1.0000
  C   C29       1.0  0.9807353120807878  0.5579227940613936  0.2574733584166742  1.0000
  C   C30       1.0  0.00993520583901009  0.6072415182262794  0.13833448412394  1.0000
  C   C31       1.0  0.9806110444328664  0.5576796270669637  0.022237930405610843  1.0000
  C   C32       1.0  0.9216082629808301  0.4619437130882296  0.02387616202766329  1.0000
  C   C33       1.0  0.8923368997998075  0.4150185243955704  0.14380510687168213  1.0000
  C   C34       1.0  0.072864800792811  0.7073099060808714  0.1344811226060152  1.0000
  O   O2        1.0  0.12189185398705726  0.7047637706238756  0.048850655723718495  1.0000
  C   C35       1.0  0.08016487241444058  0.810278005623231  0.22768805665594608  1.0000
  C   C36       1.0  0.1531321037901526  0.8600244731767357  0.26539628911547397  1.0000
  C   C37       1.0  0.1605873378856173  0.9583654734377498  0.35220683800157415  1.0000
  C   C38       1.0  0.23551898803956806  0.00798831277678681  0.3911066340478359  1.0000
  N   N3        1.0  0.29575559185239003  0.04787386776857261  0.42237392704712606  1.0000
  C   C39       1.0  0.09508271617311453  0.008360663799499965  0.4010427968410968  1.0000
  C   C40       1.0  0.022371493883987847  0.9606370965681683  0.3628542098142271  1.0000
  C   C41       1.0  0.01476373339896431  0.8625594368352352  0.2763067224278559  1.0000
  H   H17       1.0  0.8109859426357918  0.280219967614737  0.47546458804748953  1.0000
  H   H18       1.0  0.004694740808314446  0.5931708299511818  0.347607996735364  1.0000
  H   H19       1.0  0.003455171204046476  0.5949136305780898  0.9303527663138418  1.0000
  H   H20       1.0  0.8467947966752555  0.34124624464249886  0.1458024491938268  1.0000
  H   H21       1.0  0.20412763776959159  0.8215276830373301  0.22818636795471736  1.0000
  H   H22       1.0  0.10021675296856782  0.08446568752978269  0.4681296363382034  1.0000
  H   H23       1.0  0.9717583978166449  0.0001293096249002017  0.3999463938801507  1.0000
  H   H24       1.0  0.9577714263141272  0.8286780445789574  0.24635398769550745  1.0000
  Zn  Zn1       1.0  0.8375679391720827  0.4584208557080389  0.6356281480225745  1.0000
  Zn  Zn2       1.0  0.0056935101527804104  0.46575257547936166  0.649353613746749  1.0000
  C   C42       1.0  0.9216153487727642  0.45682391778951414  0.879696961654223  1.0000
  C   C43       1.0  0.9216479368168436  0.46735123211587865  0.4052850772459053  1.0000
  C   C44       1.0  0.9216810987716851  0.6992932785096548  0.6372835551117708  1.0000
  C   C45       1.0  0.9215821291128191  0.2248803084851072  0.6476985485582296  1.0000
  O   O3        1.0  0.9854464948111701  0.4718464168280135  0.45888135797084373  1.0000
  O   O4        1.0  0.9854202088097302  0.4578923591071779  0.8365176180998848  1.0000
  O   O5        1.0  0.9854724425809639  0.6536893963167623  0.6407670068010127  1.0000
  O   O6        1.0  0.9853942036787039  0.2760493864439495  0.6546318672061957  1.0000
  O   O7        1.0  0.8578671882731543  0.6481240422429115  0.6303498898724682  1.0000
  O   O8        1.0  0.8578149548340186  0.45232856544341726  0.8261004317108079  1.0000
  O   O9        1.0  0.8578412409837872  0.46628257849570565  0.4484626101269688  1.0000
  O   O10       1.0  0.8577889498395476  0.2704855387855811  0.6442132167351815  1.0000
