data_image0
_chemical_formula_structural       NC10NC5H10C7OC3OC4H12C7OC6H10Zn2C4O8
_chemical_formula_sum              "N2 C46 H32 O11 Zn2"
_cell_length_a       19.4436361288709
_cell_length_b       10.299371110280154
_cell_length_c       10.299382801718286
_cell_angle_alpha    85.58971110706742
_cell_angle_beta     89.6852200800954
_cell_angle_gamma    89.43124194409341

_space_group_name_H-M_alt    "P 1"
_space_group_IT_number       1

loop_
  _space_group_symop_operation_xyz
  'x, y, z'

loop_
  _atom_site_type_symbol
  _atom_site_label
  _atom_site_symmetry_multiplicity
  _atom_site_fract_x
  _atom_site_fract_y
  _atom_site_fract_z
  _atom_site_occupancy
  N   N1        1.0  0.6480731107676894  0.40904492546787874  0.5625690671482623  1.0000
  C   C1        1.0  0.5892366167824568  0.41894693959377993  0.5769565241041374  1.0000
  C   C2        1.0  0.5159066297438454  0.43129607903228623  0.5949531842777338  1.0000
  C   C3        1.0  0.4737304866407246  0.39929840761907603  0.5002679130213381  1.0000
  C   C4        1.0  0.39782639503457595  0.4097367353769552  0.5055996056460141  1.0000
  C   C5        1.0  0.3580711121078289  0.38498971589122244  0.6126641656346559  1.0000
  C   C6        1.0  0.2819526112535968  0.38890622812848874  0.5997060556517457  1.0000
  C   C7        1.0  0.2413849560083893  0.4465682813314388  0.6934970818832966  1.0000
  C   C8        1.0  0.1697232766579465  0.45020594774315636  0.6829543686163846  1.0000
  C   C9        1.0  0.13763441533134763  0.3957855520288748  0.5789070214341525  1.0000
  C   C10       1.0  0.0638435175266214  0.39948446042051033  0.5682090462901386  1.0000
  N   N2        1.0  0.004520640650318499  0.4024581886734343  0.5596085835550896  1.0000
  C   C11       1.0  0.17747704972378292  0.3374164117411461  0.4854989895334094  1.0000
  C   C12       1.0  0.2491551827074389  0.3337245193663864  0.4957899052737176  1.0000
  C   C13       1.0  0.3861830514597164  0.3445300114355958  0.7437456666741604  1.0000
  C   C14       1.0  0.4448458702066468  0.3876522294617437  0.7910032534042983  1.0000
  C   C15       1.0  0.48907389530469897  0.4855097667098398  0.7166690044817668  1.0000
  H   H1        1.0  0.49583722591889423  0.37018062437221433  0.40995056405909136  1.0000
  H   H2        1.0  0.37314208276183675  0.43223065098902375  0.4124484372024919  1.0000
  H   H3        1.0  0.2652505058091835  0.48985976751345317  0.7743607533203356  1.0000
  H   H4        1.0  0.1393747741012565  0.49552109678440615  0.7558912234189555  1.0000
  H   H5        1.0  0.15313959905018273  0.2943205855023166  0.4049698702374138  1.0000
  H   H6        1.0  0.278837720543649  0.28616598834156703  0.4235486168197098  1.0000
  H   H7        1.0  0.3552021448166089  0.2803134980323894  0.8079708894537802  1.0000
  H   H8        1.0  0.45997974026008037  0.3535857938118694  0.88892655977111  1.0000
  H   H9        1.0  0.4589786257813428  0.576223753655522  0.6914481137086799  1.0000
  H   H10       1.0  0.5323542041481315  0.5110962273455524  0.77976314391037  1.0000
  C   C16       1.0  0.8262538153147261  0.024380936467638836  0.5609744048560783  1.0000
  C   C17       1.0  0.8183537427669341  0.03379092394511841  0.4250565533966122  1.0000
  C   C18       1.0  0.8135922257535506  0.921364528238192  0.3566779899602404  1.0000
  C   C19       1.0  0.8183878259450618  0.7985224668787786  0.4253673525422119  1.0000
  C   C20       1.0  0.8263465169711793  0.7871120858994218  0.5612144842808806  1.0000
  C   C21       1.0  0.830053378611816  0.9006425026784521  0.628271120103465  1.0000
  C   C22       1.0  0.8059676045979504  0.9311595053531677  0.212996029055663  1.0000
  O   O1        1.0  0.8341731227565642  0.8455885567395155  0.14873960179762524  1.0000
  C   C23       1.0  0.7663375910208979  0.03794873726159187  0.1422151934769451  1.0000
  C   C24       1.0  0.7855853449879024  0.0827313027928267  0.01491431306298052  1.0000
  C   C25       1.0  0.7483959555882113  0.18241990784498485  0.9458432250143178  1.0000
  O   O2        1.0  0.7703777277942386  0.22379948812070666  0.8195643354470904  1.0000
  C   C26       1.0  0.7376075879297234  0.32387618748743  0.7384024999194688  1.0000
  C   C27       1.0  0.6906896344169968  0.23735507438546713  0.004809881720470925  1.0000
  C   C28       1.0  0.6707360284645486  0.1922954539910343  0.13059958388680193  1.0000
  C   C29       1.0  0.7080476094227841  0.0928857628391162  0.19891748856689695  1.0000
  H   H11       1.0  0.8422116862312602  0.21394332337256805  0.817231734894545  1.0000
  H   H12       1.0  0.8166602792649958  0.12874758089804605  0.37204154217916013  1.0000
  H   H13       1.0  0.8152350644095548  0.711711359464601  0.3726717259663721  1.0000
  H   H14       1.0  0.836144198373503  0.8925842824167362  0.7330538208900192  1.0000
  H   H15       1.0  0.8299760071374165  0.45527083944784513  0.6132705763953048  1.0000
  H   H16       1.0  0.8300634280389294  0.041005607478053145  0.9691726109579394  1.0000
  H   H17       1.0  0.765681436318073  0.3364325293037645  0.6442995838430546  1.0000
  H   H18       1.0  0.7386123886123329  0.41732235616871693  0.7854126460995939  1.0000
  H   H19       1.0  0.6837102652347973  0.2966354375916265  0.7190861581381053  1.0000
  H   H20       1.0  0.6608237546206553  0.31439748965533043  0.9541700756639432  1.0000
  H   H21       1.0  0.6259982219970693  0.2341871444776054  0.17512172566602316  1.0000
  H   H22       1.0  0.6908726940149572  0.058071361239635085  0.2954376457402623  1.0000
  C   C30       1.0  0.8263687638445606  0.40567201379274764  0.1797240546581731  1.0000
  C   C31       1.0  0.8986258866723952  0.4052002574397627  0.17782055048425005  1.0000
  C   C32       1.0  0.9350701495313649  0.403474234714258  0.059801893048367916  1.0000
  C   C33       1.0  0.8984582874635141  0.405231391369473  0.9425763826222867  1.0000
  C   C34       1.0  0.8262315344428022  0.40582100597181614  0.9424647748000529  1.0000
  C   C35       1.0  0.790605696824692  0.4056931741800483  0.061600847883230614  1.0000
  C   C36       1.0  0.011364447130389982  0.4043600786427122  0.05754047411353369  1.0000
  O   O3        1.0  0.04167629120094185  0.4645091605462211  0.9627810381736022  1.0000
  C   C37       1.0  0.053271643067999364  0.3370021214978368  0.16267755873501066  1.0000
  C   C38       1.0  0.1179247519594746  0.38626747732331723  0.1932579425808274  1.0000
  C   C39       1.0  0.15815494157990262  0.32258984455015494  0.2911583529020578  1.0000
  C   C40       1.0  0.13457420226858896  0.20872138511655902  0.3586820445050187  1.0000
  C   C41       1.0  0.07083295159107683  0.15799220832989172  0.3280706114955214  1.0000
  C   C42       1.0  0.030406784442872595  0.22129474809540262  0.23027376996164486  1.0000
  H   H23       1.0  0.6900090011167743  0.4085739893819205  0.39048142866601365  1.0000
  H   H24       1.0  0.9266460768038871  0.40763296799772175  0.26818760868645675  1.0000
  H   H25       1.0  0.9264852003908172  0.4048848378027412  0.8513921804508523  1.0000
  H   H26       1.0  0.7349008994463391  0.4060576614947234  0.062264071133174115  1.0000
  H   H27       1.0  0.7984853358559157  0.40715249124537656  0.6148804370538619  1.0000
  H   H28       1.0  0.1370306100425973  0.4745879549038759  0.14219178404028354  1.0000
  H   H29       1.0  0.20766866442702292  0.3615588549611607  0.31463240970044226  1.0000
  H   H30       1.0  0.16581265927392508  0.159516603833586  0.43435063712954003  1.0000
  H   H31       1.0  0.052846570921299074  0.06919513291990809  0.3797560903987778  1.0000
  H   H32       1.0  0.9817185338925813  0.1790282969153099  0.2066055996944798  1.0000
  Zn  Zn1       1.0  0.7509361676951513  0.4071406655932326  0.5617222466087778  1.0000
  Zn  Zn2       1.0  0.9016575720275153  0.4043518429055493  0.5604660819767964  1.0000
  C   C43       1.0  0.826255331370675  0.40061916397088004  0.7982888643796354  1.0000
  C   C44       1.0  0.8263400544012534  0.4108749527255973  0.323899578471341  1.0000
  C   C45       1.0  0.8263263792988268  0.6429387085877851  0.5559939273920014  1.0000
  C   C46       1.0  0.8262689548403422  0.16855384876453397  0.5661945846354217  1.0000
  O   O4        1.0  0.8835284060141884  0.4115570971191229  0.371809491608196  1.0000
  O   O5        1.0  0.883461038138285  0.397819387886615  0.7494251771969471  1.0000
  O   O6        1.0  0.8835176389396528  0.593495499244417  0.5537703081539105  1.0000
  O   O7        1.0  0.8834717538004598  0.21588099598419896  0.567464263707758  1.0000
  O   O8        1.0  0.7691219344883902  0.595611513467684  0.5547240652996523  1.0000
  O   O9        1.0  0.7690653338859651  0.3999369624071415  0.7503788655880792  1.0000
  O   O10       1.0  0.7691327020829797  0.4136746260776568  0.37276161857801426  1.0000
  O   O11       1.0  0.7690760498477954  0.21799851567295492  0.5684164880428876  1.0000
