data_image0
_chemical_formula_structural       NC10NC5H10C6NCOC6H11C7OC6H10Zn2C4O8
_chemical_formula_sum              "N3 C45 H31 O10 Zn2"
_cell_length_a       19.4436361288709
_cell_length_b       10.29965916528486
_cell_length_c       10.299382801718286
_cell_angle_alpha    85.58981362736998
_cell_angle_beta     89.6852200800954
_cell_angle_gamma    89.43524921522018

_space_group_name_H-M_alt    "P 1"
_space_group_IT_number       1

loop_
  _space_group_symop_operation_xyz
  'x, y, z'

loop_
  _atom_site_type_symbol
  _atom_site_label
  _atom_site_symmetry_multiplicity
  _atom_site_fract_x
  _atom_site_fract_y
  _atom_site_fract_z
  _atom_site_occupancy
  N   N1        1.0  0.6481253097776626  0.40900438501084685  0.5625711266500704  1.0000
  C   C1        1.0  0.5892891826191542  0.4189061142400988  0.5769585980790228  1.0000
  C   C2        1.0  0.5159596530626578  0.43125489837427966  0.5949552763024877  1.0000
  C   C3        1.0  0.4737823245844373  0.39925814758481953  0.5002699582773471  1.0000
  C   C4        1.0  0.397878619673109  0.4096961750154557  0.5056016661589924  1.0000
  C   C5        1.0  0.3581224199765035  0.38494986754071775  0.6126661899766574  1.0000
  C   C6        1.0  0.2820040642120821  0.3888662670937162  0.5997080857182373  1.0000
  C   C7        1.0  0.2414385450961319  0.4465266612679528  0.6934991962303538  1.0000
  C   C8        1.0  0.16977700050546993  0.4501642230182385  0.6829564882803625  1.0000
  C   C9        1.0  0.1376861231389795  0.39574539306504425  0.5789090615556676  1.0000
  C   C10       1.0  0.0638953623627841  0.39944419503321943  0.5682110918180883  1.0000
  N   N2        1.0  0.0045725956502296996  0.40241783772726564  0.5596106334295281  1.0000
  C   C11       1.0  0.1775265952076444  0.337377932150046  0.4855009443408598  1.0000
  C   C12       1.0  0.2492045914226826  0.33368614599688534  0.4957918546849889  1.0000
  C   C13       1.0  0.3862328604716276  0.34449132717495173  0.7437476318790588  1.0000
  C   C14       1.0  0.44489727670991447  0.38761230450650186  0.7910052816379083  1.0000
  C   C15       1.0  0.48912892700576555  0.4854670262380644  0.7166711757468525  1.0000
  H   H1        1.0  0.49588798517488675  0.37014120210275836  0.4099525667556856  1.0000
  H   H2        1.0  0.3731951407024913  0.4321894434418998  0.4124505305932433  1.0000
  H   H3        1.0  0.265305698658934  0.48981690188525534  0.7743629309435114  1.0000
  H   H4        1.0  0.1394301766787295  0.49547806827078794  0.7558934093168983  1.0000
  H   H5        1.0  0.1531875480203894  0.2942833458464806  0.4049717620547275  1.0000
  H   H6        1.0  0.2788853674213597  0.28612898330642333  0.42355049671802353  1.0000
  H   H7        1.0  0.3552495748849088  0.28027666138267304  0.80797276079792  1.0000
  H   H8        1.0  0.4600298847494956  0.35354684900200534  0.8889285382122085  1.0000
  H   H9        1.0  0.4590370180426184  0.5761784031984838  0.6914504175640162  1.0000
  H   H10       1.0  0.5324101837167144  0.5110527507107285  0.779765352573385  1.0000
  C   C16       1.0  0.8262917641904167  0.02435146340358795  0.5609759021216041  1.0000
  C   C17       1.0  0.8267839430194238  0.03359795424535327  0.4241575019167161  1.0000
  C   C18       1.0  0.82804608000122  0.9214013119529182  0.35531226954451434  1.0000
  C   C19       1.0  0.8269134779444677  0.7984053227930155  0.42445280673562436  1.0000
  C   C20       1.0  0.8264127036561837  0.7870606223334606  0.5612170553921296  1.0000
  C   C21       1.0  0.8263466959506943  0.9006368855982092  0.6287046407678205  1.0000
  N   N3        1.0  0.8274926955839953  0.9344583719572053  0.21525245489103706  1.0000
  C   C22       1.0  0.8597471220286171  0.8427187260402574  0.13525943735140467  1.0000
  O   O1        1.0  0.9071856889552309  0.7690321920532872  0.18184290317410068  1.0000
  C   C23       1.0  0.8397805136080871  0.836865450153292  0.9970607466776701  1.0000
  C   C24       1.0  0.7761903543394191  0.8878892096849577  0.951243695842988  1.0000
  C   C25       1.0  0.7577837145449962  0.8811918192651895  0.8208755603653097  1.0000
  C   C26       1.0  0.8023268087782461  0.8232659532766202  0.7350500571516161  1.0000
  C   C27       1.0  0.8653117578186419  0.7714656013053118  0.7794959324756761  1.0000
  C   C28       1.0  0.8839809849998327  0.7778017877129378  0.9097574137815959  1.0000
  H   H11       1.0  0.8247068853110671  0.21418559831311798  0.8190647151239384  1.0000
  H   H12       1.0  0.8267145342603576  0.12819858595660968  0.37033577010969965  1.0000
  H   H13       1.0  0.825214955741646  0.7116363436421252  0.3716622531079632  1.0000
  H   H14       1.0  0.8259764783578407  0.8926433266631341  0.7341761114699188  1.0000
  H   H15       1.0  0.8253055715347448  0.4552766218521563  0.6136870663130203  1.0000
  H   H16       1.0  0.8078765131959993  0.020945293375769673  0.16947554103641682  1.0000
  H   H17       1.0  0.7401371156663784  0.9312641436795273  0.01602465254875218  1.0000
  H   H18       1.0  0.7087733101047874  0.9205243399086679  0.7864973209728044  1.0000
  H   H19       1.0  0.7879415615880287  0.8181558192901371  0.634213347983763  1.0000
  H   H20       1.0  0.8997379785580065  0.7263246319783574  0.7129647925114924  1.0000
  H   H21       1.0  0.9331640236692924  0.7372795475640463  0.9419155400584035  1.0000
  C   C29       1.0  0.8264208379027689  0.40563157037973396  0.17972610923003418  1.0000
  C   C30       1.0  0.8986779432540746  0.40515982759992697  0.17782260436657804  1.0000
  C   C31       1.0  0.9351221421713799  0.4034338545348332  0.059803944407890164  1.0000
  C   C32       1.0  0.8985103451985705  0.40519096063386484  0.9425784365501199  1.0000
  C   C33       1.0  0.8262836140205254  0.4057805582720608  0.9424668295896846  1.0000
  C   C34       1.0  0.7906577716668011  0.4056527301582166  0.06160290248602007  1.0000
  C   C35       1.0  0.011416472587084895  0.4043196729761531  0.05754252676783134  1.0000
  O   O2        1.0  0.04173054492053252  0.4644670242951885  0.9627831787435799  1.0000
  C   C36       1.0  0.053321173204202495  0.33696365382652393  0.16267951293692207  1.0000
  C   C37       1.0  0.11797610716367446  0.3862275922095899  0.19325996879044283  1.0000
  C   C38       1.0  0.1582039378036837  0.32255179154290564  0.2911602860385585  1.0000
  C   C39       1.0  0.13461898015926987  0.20868660828546526  0.35868381120800596  1.0000
  C   C40       1.0  0.07087585018553555  0.1579588910576628  0.32807230405124055  1.0000
  C   C41       1.0  0.030452028122178953  0.22125960950871648  0.23027555504223107  1.0000
  H   H22       1.0  0.6900611826806057  0.40853346247446676  0.39048348747948797  1.0000
  H   H23       1.0  0.9266982235069532  0.4075924681649454  0.2681896661245067  1.0000
  H   H24       1.0  0.9265372452875653  0.4048444170380287  0.8513942338721532  1.0000
  H   H25       1.0  0.7349529877911241  0.4060172069860133  0.06226612626870875  1.0000
  H   H26       1.0  0.7985374647593998  0.40711200523667856  0.6148824937896324  1.0000
  H   H27       1.0  0.13708523713785414  0.4745455286699464  0.14219393934172575  1.0000
  H   H28       1.0  0.20771910428381157  0.3615196807536829  0.314634399795203  1.0000
  H   H29       1.0  0.1658556143406329  0.1594832427020807  0.43435233191336087  1.0000
  H   H30       1.0  0.05288617996881651  0.06916437048035684  0.37975765316606025  1.0000
  H   H31       1.0  0.9817622117829857  0.17899437440145238  0.20660732299716902  1.0000
  Zn  Zn1       1.0  0.7509882961605462  0.4071001799247774  0.5617243033272636  1.0000
  Zn  Zn2       1.0  0.9017095971791118  0.4043114374759455  0.5604681346190559  1.0000
  C   C42       1.0  0.8263072182426883  0.40057886593636893  0.7982909115661012  1.0000
  C   C43       1.0  0.8263923212058083  0.4108343596157795  0.32390164064797133  1.0000
  C   C44       1.0  0.8263872430601485  0.642891438635694  0.5559963287598924  1.0000
  C   C45       1.0  0.8263122446978219  0.1685202276171602  0.5661962926283477  1.0000
  O   O3        1.0  0.8835806980892377  0.41151648438292887  0.3718115547818688  1.0000
  O   O4        1.0  0.8835128212907242  0.397779170406102  0.7494272202911769  1.0000
  O   O5        1.0  0.8835766710442746  0.5934496518518686  0.5537726372541418  1.0000
  O   O6        1.0  0.8835167969237049  0.2158460131597466  0.5674660408754442  1.0000
  O   O7        1.0  0.7691810449821719  0.5955656051940503  0.5547263974927132  1.0000
  O   O8        1.0  0.769117195485366  0.3998966840006508  0.7503809117774187  1.0000
  O   O9        1.0  0.7691850726033033  0.41363395241679646  0.37276368484673017  1.0000
  O   O10       1.0  0.7691211714159708  0.217963471924103  0.5684182683056034  1.0000
