data_image0
_chemical_formula_structural       NC8NH4C6NH7C7NH4Zn2C4O8
_chemical_formula_sum              "N4 C25 H15 Zn2 O8"
_cell_length_a       13.859017124695912
_cell_length_b       9.274771166103582
_cell_length_c       9.275157849593905
_cell_angle_alpha    86.00874675488272
_cell_angle_beta     89.74086887057864
_cell_angle_gamma    90.59707951677755

_space_group_name_H-M_alt    "P 1"
_space_group_IT_number       1

loop_
  _space_group_symop_operation_xyz
  'x, y, z'

loop_
  _atom_site_type_symbol
  _atom_site_label
  _atom_site_symmetry_multiplicity
  _atom_site_fract_x
  _atom_site_fract_y
  _atom_site_fract_z
  _atom_site_occupancy
  N   N1        1.0  0.9243118962735941  0.5633177962368046  0.40751270397455125  1.0000
  C   C1        1.0  0.8519640006941299  0.5399126308283555  0.35140164579918004  1.0000
  C   C2        1.0  0.7619675165026674  0.5108000204479802  0.28160670011658473  1.0000
  C   C3        1.0  0.6743443079252862  0.5391818540793389  0.3496479896167184  1.0000
  C   C4        1.0  0.5867372069142245  0.5108012409618001  0.2816061186817487  1.0000
  C   C5        1.0  0.5869357329261405  0.4540310913903711  0.1455020706273653  1.0000
  C   C6        1.0  0.6743763492657938  0.4257583456506638  0.07772269055748637  1.0000
  C   C7        1.0  0.7618010719131045  0.45402875276487387  0.14550325305799028  1.0000
  C   C8        1.0  0.4967241699176176  0.5399135527889685  0.3514011461793538  1.0000
  N   N2        1.0  0.42436302475311777  0.5633181168372375  0.40751248741487733  1.0000
  H   H1        1.0  0.6743318529319459  0.5831241479468332  0.4549957820522131  1.0000
  H   H2        1.0  0.5196466353628186  0.4316934957740059  0.09194612368111765  1.0000
  H   H3        1.0  0.6743888503069907  0.3819057934205099  0.9725882438209061  1.0000
  H   H4        1.0  0.8291028144740847  0.43168906558228937  0.0919483089983395  1.0000
  C   C9        1.0  0.17137743544284503  0.13972898551881308  0.40829810469642625  1.0000
  C   C10       1.0  0.14955534986040875  0.2217960764174254  0.27942586825825555  1.0000
  C   C11       1.0  0.136744498943836  0.1554971588151992  0.14973598972935687  1.0000
  C   C12       1.0  0.1458090971342394  0.005744626937753673  0.14797899167455622  1.0000
  C   C13       1.0  0.16585217333753288  0.9223410501241761  0.27508090095931514  1.0000
  C   C14       1.0  0.177306616575172  0.9868960129572795  0.40673961994004393  1.0000
  N   N3        1.0  0.11551942599875666  0.24065010171257173  0.01944737240784899  1.0000
  H   H5        1.0  0.2790347332319343  0.22242806465950074  0.7236880935762935  1.0000
  H   H6        1.0  0.144691890597346  0.33838344760209993  0.27887230084645886  1.0000
  H   H7        1.0  0.13640911817371482  0.953296015839567  0.04819571441102233  1.0000
  H   H8        1.0  0.170116658430697  0.8061372729150307  0.27095364144864087  1.0000
  H   H9        1.0  0.2459009952947178  0.6918971323701347  0.6213164836060114  1.0000
  H   H10       1.0  0.10887158846165912  0.3527235472914161  0.019400568201292323  1.0000
  H   H11       1.0  0.10620327270389929  0.19224153236501218  0.922034066758461  1.0000
  C   C15       1.0  0.17559380274823977  0.5592351768752285  0.9843285773432777  1.0000
  C   C16       1.0  0.25908851171871117  0.6062592237869925  0.05393806794031477  1.0000
  C   C17       1.0  0.3377129889280948  0.6646258265297169  0.9739524964529159  1.0000
  C   C18       1.0  0.3337610752841529  0.6768962904727922  0.8232709772045017  1.0000
  C   C19       1.0  0.25224195404650684  0.6287041864025569  0.7523220928271259  1.0000
  C   C20       1.0  0.17309026126312443  0.5673897462638975  0.8307091471133924  1.0000
  C   C21       1.0  0.42216746004040795  0.713658688284627  0.0468658832464064  1.0000
  N   N4        1.0  0.49004722535893097  0.753067887825804  0.10547595508940444  1.0000
  H   H12       1.0  0.9404851211991657  0.5105996684222229  0.09225575149891996  1.0000
  H   H13       1.0  0.39416407534371367  0.7225234860593933  0.7603642179070436  1.0000
  H   H14       1.0  0.2520815744555098  0.636287842315989  0.6352437016606873  1.0000
  H   H15       1.0  0.015761683005112388  0.5285877336703172  0.5533740895439947  1.0000
  Zn  Zn1       1.0  0.06861580167942405  0.5633141177896037  0.4075209750810178  1.0000
  Zn  Zn2       1.0  0.28005899439590065  0.5633101424149296  0.40751605770822774  1.0000
  C   C22       1.0  0.17352109050047315  0.5601019482591182  0.6707356428849909  1.0000
  C   C23       1.0  0.17515602684758047  0.566524133290655  0.14430152794686246  1.0000
  C   C24       1.0  0.17619788360429367  0.8267080517020671  0.4012914949441684  1.0000
  C   C25       1.0  0.1724791492364921  0.29991629755065835  0.4137457559090163  1.0000
  O   O1        1.0  0.25525065090323307  0.5689625720377454  0.19798805700008804  1.0000
  O   O2        1.0  0.25390695086527004  0.557659400113336  0.6170449688190864  1.0000
  O   O3        1.0  0.25606740902184955  0.7729472147954497  0.399466910260738  1.0000
  O   O4        1.0  0.2530901209872505  0.35367476663464603  0.41556600748824524  1.0000
  O   O5        1.0  0.0955846029329237  0.7729494935727415  0.39947102529509537  1.0000
  O   O6        1.0  0.09342415712846064  0.5576634111905294  0.617049003826208  1.0000
  O   O7        1.0  0.09476786200384812  0.5689665161555346  0.19799035947399626  1.0000
  O   O8        1.0  0.09260733169211721  0.35367870147627495  0.4155684180264401  1.0000
