data_image0
_chemical_formula_structural       NC6NCNCH5C9H8C7ONH6Zn2C4O8
_chemical_formula_sum              "N4 C28 H19 O9 Zn2"
_cell_length_a       14.933214217465613
_cell_length_b       9.275152443626249
_cell_length_c       9.273042158839658
_cell_angle_alpha    85.96394158152518
_cell_angle_beta     90.05893816914777
_cell_angle_gamma    90.60755784757023

_space_group_name_H-M_alt    "P 1"
_space_group_IT_number       1

loop_
  _space_group_symop_operation_xyz
  'x, y, z'

loop_
  _atom_site_type_symbol
  _atom_site_label
  _atom_site_symmetry_multiplicity
  _atom_site_fract_x
  _atom_site_fract_y
  _atom_site_fract_z
  _atom_site_occupancy
  N   N1        1.0  0.851336509237996  0.5628654307481535  0.4038517905492407  1.0000
  C   C1        1.0  0.7738513767299173  0.5638520315239113  0.4028579516029569  1.0000
  C   C2        1.0  0.6774593285461449  0.5650820692931899  0.40161875771905  1.0000
  C   C3        1.0  0.6291422975712284  0.4702879105511602  0.49712785716998154  1.0000
  C   C4        1.0  0.5356144434814705  0.47135982851161734  0.4960478846042482  1.0000
  C   C5        1.0  0.48950098415587334  0.567171592977453  0.39951354164017916  1.0000
  C   C6        1.0  0.39291460873278394  0.565084204915808  0.40161667966104986  1.0000
  N   N2        1.0  0.31541991705327604  0.5633428581778746  0.40337078826079  1.0000
  C   C7        1.0  0.5379230018702882  0.663162744803989  0.30279855071151845  1.0000
  N   N3        1.0  0.49312886130278405  0.7627479772952812  0.20246251735507048  1.0000
  C   C8        1.0  0.6319262440287319  0.6611344701512079  0.3048422401857902  1.0000
  H   H1        1.0  0.6637514723348235  0.3955490910609352  0.5724303159556834  1.0000
  H   H2        1.0  0.49914587965392854  0.39724972226764793  0.5707167592805156  1.0000
  H   H3        1.0  0.5298499722450941  0.8330846358099284  0.13159533624974973  1.0000
  H   H4        1.0  0.42341492288664573  0.7680467615822688  0.19712384160820615  1.0000
  H   H5        1.0  0.6695153689051485  0.7344989050790887  0.23092449472706653  1.0000
  C   C9        1.0  0.08074243429421313  0.13948462080025958  0.4050855262002325  1.0000
  C   C10       1.0  0.04830651760119567  0.22090084118742914  0.2826710081321875  1.0000
  C   C11       1.0  0.024192082756487217  0.15412072732316928  0.15795533128962602  1.0000
  C   C12       1.0  0.03213437203965652  0.004736793577754694  0.15318473708030145  1.0000
  C   C13       1.0  0.06281806270768402  0.9216197232985794  0.27456622575389256  1.0000
  C   C14       1.0  0.08602250259087274  0.9867127022599038  0.4021495448375749  1.0000
  C   C15       1.0  0.007733857790253261  0.9362014940197627  0.024033217852689193  1.0000
  C   C16       1.0  0.9873041182363843  0.8787857592994973  0.9158890680886147  1.0000
  C   C17       1.0  0.9625166649310162  0.8091099198091372  0.7846751082263448  1.0000
  H   H6        1.0  0.20972633515630457  0.2243008395479897  0.6928024394785814  1.0000
  H   H7        1.0  0.04358888074292214  0.3374086986192477  0.2822225231395281  1.0000
  H   H8        1.0  0.00014937384473556327  0.2193524749697544  0.06463235302273129  1.0000
  H   H9        1.0  0.06658403111546307  0.8052712142273755  0.2705415428796798  1.0000
  H   H10       1.0  0.16999616742443174  0.6935735310020454  0.59894265517482  1.0000
  H   H11       1.0  0.978901626840773  0.6925467811050116  0.7981232594470553  1.0000
  H   H12       1.0  0.889610680803078  0.821409643654368  0.7650189552236508  1.0000
  H   H13       1.0  0.00023322573086503556  0.8605145208838583  0.6913407538732524  1.0000
  C   C18       1.0  0.08292647271495124  0.5586398655909199  0.9803685420543502  1.0000
  C   C19       1.0  0.0007353414170618821  0.5677413279780918  0.05310275841698275  1.0000
  C   C20       1.0  0.9202482610203162  0.5907978921397576  0.9768499761340709  1.0000
  C   C21       1.0  0.9224379134366253  0.6030110947459886  0.825306769703436  1.0000
  C   C22       1.0  0.003149868946843878  0.5917901501025182  0.7515719815583446  1.0000
  C   C23       1.0  0.0838384839313746  0.5675573856746461  0.8268665938060291  1.0000
  C   C24       1.0  0.8347390470942012  0.6006684908007605  0.056764172116500866  1.0000
  O   O1        1.0  0.8284086312574378  0.5448381165770384  0.18433444502660423  1.0000
  N   N4        1.0  0.7590241932144927  0.673775014419471  0.9930530414960845  1.0000
  H   H14       1.0  0.3005327780634657  0.613964907287404  0.07991248098033954  1.0000
  H   H15       1.0  0.9998335232473851  0.5613445613117787  0.1702698685840478  1.0000
  H   H16       1.0  0.8616311976293798  0.6172115014197679  0.762697322310252  1.0000
  H   H17       1.0  0.23047029248676748  0.5981284953400448  0.5436876201449778  1.0000
  H   H18       1.0  0.7637249634217684  0.7360730710072372  0.8951668740977166  1.0000
  H   H19       1.0  0.6984976834226072  0.6735503843860335  0.049358793966566276  1.0000
  Zn  Zn1       1.0  0.9852609414396327  0.5629994230139037  0.403721328991351  1.0000
  Zn  Zn2       1.0  0.18149540918692553  0.5631971561599929  0.4035131268878758  1.0000
  C   C25       1.0  0.0836282580972918  0.5601249576796827  0.6668802297514611  1.0000
  C   C26       1.0  0.08313024689947084  0.5660734453007814  0.1403543590109193  1.0000
  C   C27       1.0  0.08501365442179237  0.8265080222580803  0.396961057820006  1.0000
  C   C28       1.0  0.08174477289529584  0.2996886483008594  0.410273613861527  1.0000
  O   O2        1.0  0.1576685539811982  0.5686369678254977  0.19396807086578183  1.0000
  O   O3        1.0  0.15802736425003092  0.5577104174039372  0.61310808618874  1.0000
  O   O4        1.0  0.15914508702675328  0.7728181257010782  0.3951464409984138  1.0000
  O   O5        1.0  0.15655076419082914  0.35352926864188344  0.4119296080235083  1.0000
  O   O6        1.0  0.010205519470537494  0.7726673104660273  0.3953048479191812  1.0000
  O   O7        1.0  0.009087807408298508  0.5575613345244248  0.6132664102538167  1.0000
  O   O8        1.0  0.00872899501881119  0.5684878164211815  0.19412466223881197  1.0000
  O   O9        1.0  0.00761120527689707  0.353380108058055  0.4120863074926008  1.0000
