data_image0
_chemical_formula_structural       NC6NC2H4C6BrH5C7NH4Zn2C4O8
_chemical_formula_sum              "N3 C25 H13 Br1 Zn2 O8"
_cell_length_a       14.927258858638513
_cell_length_b       9.276564384272257
_cell_length_c       9.275157849593905
_cell_angle_alpha    86.064957766791
_cell_angle_beta     89.74087902936087
_cell_angle_gamma    90.58593300640023

_space_group_name_H-M_alt    "P 1"
_space_group_IT_number       1

loop_
  _space_group_symop_operation_xyz
  'x, y, z'

loop_
  _atom_site_type_symbol
  _atom_site_label
  _atom_site_symmetry_multiplicity
  _atom_site_fract_x
  _atom_site_fract_y
  _atom_site_fract_z
  _atom_site_occupancy
  N   N1        1.0  0.8579717096561542  0.5629053456602792  0.40905191295838095  1.0000
  C   C1        1.0  0.78044521827814  0.5629053172529792  0.4090519235679413  1.0000
  C   C2        1.0  0.6840127116025986  0.5629054318694089  0.4090518736258415  1.0000
  C   C3        1.0  0.637157861623316  0.5379951150416561  0.2824243525694281  1.0000
  C   C4        1.0  0.5434465508095024  0.5379951393920639  0.2824242191301085  1.0000
  C   C5        1.0  0.4961966464309458  0.5629052545013447  0.4090518923992541  1.0000
  C   C6        1.0  0.39976407276390363  0.5629053691206816  0.4090518424512293  1.0000
  N   N2        1.0  0.3222375813858893  0.5629053407133814  0.4090518530607896  1.0000
  C   C7        1.0  0.5430514294187273  0.5878155713320045  0.5356794134497427  1.0000
  C   C8        1.0  0.6367627402325415  0.5878155469815967  0.5356795468890625  1.0000
  H   H1        1.0  0.6730077440869503  0.5186134828500477  0.18390087366456576  1.0000
  H   H2        1.0  0.5079040898452442  0.5186136803372445  0.18390086856418653  1.0000
  H   H3        1.0  0.5072016135803148  0.6071971942469894  0.6342030004156847  1.0000
  H   H4        1.0  0.6723052015109865  0.6071971044233189  0.634203007368463  1.0000
  C   C9        1.0  0.0874088895361447  0.13942791850023803  0.4094204146305318  1.0000
  C   C10       1.0  0.07629053039609193  0.22165852677395034  0.277705638036424  1.0000
  C   C11       1.0  0.07350596358624407  0.15541282714552063  0.14722114249467744  1.0000
  C   C12       1.0  0.08182665916903403  0.005993651685091806  0.1459737921408495  1.0000
  C   C13       1.0  0.09137230511361887  0.9220505298302779  0.27569681902966425  1.0000
  C   C14       1.0  0.09280888877937328  0.9863717412330211  0.40869579691682123  1.0000
  Br  Br1       1.0  0.07867743053490406  0.9159112862279205  0.9669262658679858  1.0000
  H   H5        1.0  0.060495627984276545  0.40423703520743043  0.6437131508175746  1.0000
  H   H6        1.0  0.07187639937156942  0.33829115577356084  0.2752384728165489  1.0000
  H   H7        1.0  0.06573156016205428  0.2206661701181327  0.04683834811334097  1.0000
  H   H8        1.0  0.0955257756456227  0.8057806201061614  0.27258977738200163  1.0000
  H   H9        1.0  0.14161092168432274  0.6906009968565656  0.6331468608637001  1.0000
  C   C15       1.0  0.09127159412734148  0.5588236137250568  0.9858638469090235  1.0000
  C   C16       1.0  0.16878533725839828  0.6058352126276425  0.055519653983033386  1.0000
  C   C17       1.0  0.24177597383185567  0.664186383507418  0.975591562946923  1.0000
  C   C18       1.0  0.23810535278906875  0.6764536185100386  0.8249221213880698  1.0000
  C   C19       1.0  0.16242596267047088  0.6282742686242719  0.7539257713331233  1.0000
  C   C20       1.0  0.0889462046166194  0.5669760371683428  0.8322524431754905  1.0000
  C   C21       1.0  0.32018054684325903  0.7132062674374021  0.04855324398105476  1.0000
  N   N3        1.0  0.3831977435973848  0.7526050363058493  0.10720213137174461  1.0000
  H   H10       1.0  0.8729940529024521  0.5102010910853071  0.09374307032511253  1.0000
  H   H11       1.0  0.2941800755761474  0.7220687512676415  0.7620602962154877  1.0000
  H   H12       1.0  0.1622761216509111  0.6358559272121722  0.6368548454018206  1.0000
  H   H13       1.0  0.9428813595025415  0.5281843622038886  0.554879139476455  1.0000
  Zn  Zn1       1.0  0.9919487720066602  0.5629015602836611  0.40906022608538706  1.0000
  Zn  Zn2       1.0  0.1882604221261112  0.5628974278566856  0.40905537167618444  1.0000
  C   C22       1.0  0.08934710443008537  0.5596901583613951  0.6722717650374825  1.0000
  C   C23       1.0  0.09086424463235826  0.5661106506427349  0.14584397256034753  1.0000
  C   C24       1.0  0.09179933746713624  0.8262260389022356  0.40309006270572767  1.0000
  C   C25       1.0  0.08841193335006842  0.29957303826117654  0.41502575320814805  1.0000
  O   O1        1.0  0.16522674244165425  0.5685483872458448  0.19953292732472572  1.0000
  O   O2        1.0  0.16398060092255848  0.5572481934482031  0.6185787119731956  1.0000
  O   O3        1.0  0.16595980171019406  0.7724793022457782  0.40121258157713524  1.0000
  O   O4        1.0  0.1632474750287971  0.3533172877248936  0.41689894965970575  1.0000
  O   O5        1.0  0.016961652112473583  0.7724817004183598  0.4012166480959407  1.0000
  O   O6        1.0  0.014982462578576168  0.5572523234644104  0.6185827001700297  1.0000
  O   O7        1.0  0.016228608597202997  0.5685524503202806  0.1995351829224341  1.0000
  O   O8        1.0  0.01424934081806707  0.35332134152561245  0.41690131331256985  1.0000
