data_image0
_chemical_formula_structural       NC9NC4H8C9H10C12H10Zn2C4O8
_chemical_formula_sum              "N2 C38 H28 Zn2 O8"
_cell_length_a       16.32274767691083
_cell_length_b       9.27267660452572
_cell_length_c       10.299141136925906
_cell_angle_alpha    85.79349771759213
_cell_angle_beta     89.48989962439883
_cell_angle_gamma    90.07922574154927

_space_group_name_H-M_alt    "P 1"
_space_group_IT_number       1

loop_
  _space_group_symop_operation_xyz
  'x, y, z'

loop_
  _atom_site_type_symbol
  _atom_site_label
  _atom_site_symmetry_multiplicity
  _atom_site_fract_x
  _atom_site_fract_y
  _atom_site_fract_z
  _atom_site_occupancy
  N   N1        1.0  0.7797261377504436  0.5682920595971941  0.5628329510769032  1.0000
  C   C1        1.0  0.7270973693587176  0.5156340080424384  0.5083337205114808  1.0000
  C   C2        1.0  0.6616795484166754  0.45023229805026377  0.44064524039971786  1.0000
  C   C3        1.0  0.6727341606594028  0.36077443131860104  0.348055152641481  1.0000
  C   C4        1.0  0.5931254531150608  0.31711851677635217  0.3028742544232126  1.0000
  C   C5        1.0  0.5345481973384505  0.3810079389335843  0.3690029535613845  1.0000
  C   C6        1.0  0.4445166852708566  0.36412253781844295  0.3515292613754237  1.0000
  C   C7        1.0  0.3893354367270572  0.43858978780403196  0.42859913713579134  1.0000
  C   C8        1.0  0.30454656244476974  0.4241587126287918  0.4136650134643371  1.0000
  C   C9        1.0  0.2489661360975532  0.5009152230737396  0.49310339132993625  1.0000
  N   N2        1.0  0.2042983443231566  0.5626148270116662  0.5569583941324278  1.0000
  C   C10       1.0  0.2738852278905268  0.33513995084752213  0.32153699560829874  1.0000
  C   C11       1.0  0.3277451073943121  0.2607713380694807  0.2445695458360246  1.0000
  C   C12       1.0  0.41237302107848145  0.27481370683009204  0.2591012566271125  1.0000
  C   C13       1.0  0.5728209734064623  0.47416577165668855  0.46541993600812986  1.0000
  H   H1        1.0  0.7314479974860876  0.3259884860906104  0.312048975728376  1.0000
  H   H2        1.0  0.5844231059339221  0.24400471384812206  0.22720030635574345  1.0000
  H   H3        1.0  0.41183476483835213  0.5080839383413622  0.5005206929310115  1.0000
  H   H4        1.0  0.20842728631185234  0.3232517344215726  0.3092345999457693  1.0000
  H   H5        1.0  0.303853239172913  0.1919070267093288  0.17330008656408014  1.0000
  H   H6        1.0  0.45182308115889347  0.2153236035761836  0.19753264556405226  1.0000
  H   H7        1.0  0.5558584666165525  0.43555559232396324  0.5667788721445577  1.0000
  H   H8        1.0  0.5566692941848256  0.5897209152797693  0.44370011944363574  1.0000
  C   C14       1.0  0.9896944987010722  0.14199631657822012  0.5582686514194324  1.0000
  C   C15       1.0  0.9569226655987392  0.20651340685361744  0.6662825609867828  1.0000
  C   C16       1.0  0.9316471060385714  0.1226936498981759  0.7773668687455941  1.0000
  C   C17       1.0  0.938327769991395  0.9718537413657158  0.7841747025423917  1.0000
  C   C18       1.0  0.9697571254874238  0.9059051238081832  0.6751787462879855  1.0000
  C   C19       1.0  0.9943378032088687  0.9888993067659021  0.5615337940717093  1.0000
  C   C20       1.0  0.9101258960048281  0.888591592287698  0.9093237394536448  1.0000
  C   C21       1.0  0.8687178045380063  0.7430532536525959  0.8969656133275101  1.0000
  C   C22       1.0  0.9552360778796527  0.7493296040629331  0.9507214618515235  1.0000
  H   H9        1.0  0.007843598817693033  0.44061872811241637  0.3451963407549043  1.0000
  H   H10       1.0  0.9525998458637308  0.3230937605258813  0.6662175230659704  1.0000
  H   H11       1.0  0.90739397444498  0.17644942295767188  0.8593051952353199  1.0000
  H   H12       1.0  0.9736657155522185  0.7894522977461602  0.6763306779378409  1.0000
  H   H13       1.0  0.015530706683215096  0.9118588767624728  0.24323632368779344  1.0000
  H   H14       1.0  0.8869513491605545  0.9490093742063203  0.9914162504452028  1.0000
  H   H15       1.0  0.8648955315982659  0.7038723065295626  0.7980095957067905  1.0000
  H   H16       1.0  0.8212532986077641  0.7148919079623609  0.9725479232953422  1.0000
  H   H17       1.0  0.003944093243228201  0.7138330454779541  0.8844962812866825  1.0000
  H   H18       1.0  0.958335236085121  0.7248304524522144  0.05773866507225011  1.0000
  C   C23       1.0  0.9919236930394089  0.5655721311177196  0.17850997910385646  1.0000
  C   C24       1.0  0.0775815317915951  0.5799579882425123  0.17557058443901696  1.0000
  C   C25       1.0  0.12110865235292984  0.5871244659513923  0.0569446627125727  1.0000
  C   C26       1.0  0.07782010308095531  0.5797109331658561  0.9403006202539975  1.0000
  C   C27       1.0  0.9921086055184937  0.565323501968436  0.9412924812817696  1.0000
  C   C28       1.0  0.9496881501901288  0.5583403135557752  0.06083610265854799  1.0000
  C   C29       1.0  0.21172603718528135  0.602345071866746  0.05487984953138847  1.0000
  C   C30       1.0  0.2600494670824163  0.5228397350132934  0.9716778520977427  1.0000
  C   C31       1.0  0.34533760816578796  0.5373456021554135  0.9699730590154702  1.0000
  C   C32       1.0  0.38328552294328944  0.6311568634433835  0.050976854391870274  1.0000
  C   C33       1.0  0.3360220824519371  0.7106575923153771  0.13391954216438082  1.0000
  C   C34       1.0  0.25071445574255097  0.6965135500644317  0.13609584255409235  1.0000
  H   H19       1.0  0.9589701912717926  0.5601118547379248  0.5071116321738246  1.0000
  H   H20       1.0  0.11075436659970368  0.5836311638701497  0.2658801631733012  1.0000
  H   H21       1.0  0.11095020262257327  0.587164761884426  0.8484474272843205  1.0000
  H   H22       1.0  0.8836181065633304  0.5472481825657423  0.06238742910259008  1.0000
  H   H23       1.0  0.8302844136105019  0.5390834611214403  0.735813533497359  1.0000
  H   H24       1.0  0.23198285230850169  0.44815187784813754  0.9092597565694542  1.0000
  H   H25       1.0  0.38204751684196364  0.47549160232315973  0.9059952956959945  1.0000
  H   H26       1.0  0.4493116875656875  0.64224515340226  0.04947491051617447  1.0000
  H   H27       1.0  0.36548637537932427  0.7836245931251654  0.19639181867957012  1.0000
  H   H28       1.0  0.21519783328896414  0.7605226759820287  0.19996150440556448  1.0000
  Zn  Zn1       1.0  0.9022484921088176  0.566649860214997  0.5611451663466929  1.0000
  Zn  Zn2       1.0  0.08177593383949855  0.5642451898442802  0.5586567730443937  1.0000
  C   C35       1.0  0.9920403083966661  0.5596258777424974  0.7970881083646593  1.0000
  C   C36       1.0  0.9919860879920931  0.5712709654750479  0.3227139383418555  1.0000
  C   C37       1.0  0.9934546258716509  0.8288183696524353  0.5557411843087592  1.0000
  C   C38       1.0  0.9905716997750325  0.3020767418644652  0.5640609258101226  1.0000
  O   O1        1.0  0.0601367223383964  0.572264695454767  0.37016574783749046  1.0000
  O   O2        1.0  0.06014684228681322  0.5568059708682123  0.7477472878681141  1.0000
  O   O3        1.0  0.06128800344035379  0.7741823243507665  0.5528579576343586  1.0000
  O   O4        1.0  0.0589954999572535  0.3548883531400019  0.5650549815797685  1.0000
  O   O5        1.0  0.9250288647271641  0.7760066977414439  0.5547469586536591  1.0000
  O   O6        1.0  0.9238877130518016  0.5586320767817032  0.7496362263173881  1.0000
  O   O7        1.0  0.9238775925038818  0.5740907516260412  0.37205312460020057  1.0000
  O   O8        1.0  0.9227363700864435  0.35671439896565516  0.5669424556762974  1.0000
