data_image0
_chemical_formula_structural       NC10NC3NCH9C7OC3NC3H11C6NCOC6H11Zn2C4O8
_chemical_formula_sum              "N5 C44 H31 O10 Zn2"
_cell_length_a       19.437513618241372
_cell_length_b       10.298746005989749
_cell_length_c       10.299662537453274
_cell_angle_alpha    85.54306763902352
_cell_angle_beta     90.33361086240306
_cell_angle_gamma    89.53148363849229

_space_group_name_H-M_alt    "P 1"
_space_group_IT_number       1

loop_
  _space_group_symop_operation_xyz
  'x, y, z'

loop_
  _atom_site_type_symbol
  _atom_site_label
  _atom_site_symmetry_multiplicity
  _atom_site_fract_x
  _atom_site_fract_y
  _atom_site_fract_z
  _atom_site_occupancy
  N   N1        1.0  0.6481432223856884  0.4111306150091129  0.5758157042398155  1.0000
  C   C1        1.0  0.5892116196392377  0.42814325667234104  0.5728421988579608  1.0000
  C   C2        1.0  0.5157733107731101  0.4493989842564523  0.5691513199463174  1.0000
  C   C3        1.0  0.4740030462798642  0.348206270178451  0.5574766066747154  1.0000
  C   C4        1.0  0.3981145654578344  0.3582749515148025  0.5502566466733858  1.0000
  C   C5        1.0  0.3585419004961482  0.4391010862054028  0.6160124700273539  1.0000
  C   C6        1.0  0.282359618615278  0.43049584501011817  0.6075669248023164  1.0000
  C   C7        1.0  0.24921281251543181  0.30913979887511545  0.6121921291673467  1.0000
  C   C8        1.0  0.17747815639668682  0.3027706828769454  0.6050229869921078  1.0000
  C   C9        1.0  0.1379196096671048  0.4172847327834386  0.5935908074038345  1.0000
  C   C10       1.0  0.0640704642061685  0.4105774844708452  0.5862535200329589  1.0000
  N   N2        1.0  0.004700849299702398  0.4051854467372377  0.5803547994891745  1.0000
  C   C11       1.0  0.17034973321968463  0.5383298555342164  0.5897108454544244  1.0000
  C   C12       1.0  0.24206881155905713  0.5449529549305223  0.5969420483538068  1.0000
  C   C13       1.0  0.3872268796368289  0.5313532353490906  0.7059478678537454  1.0000
  N   N3        1.0  0.44421928239792213  0.5945796784309575  0.6855528274405123  1.0000
  C   C14       1.0  0.4880676673068339  0.5853682975801138  0.572441910446442  1.0000
  H   H1        1.0  0.4963792687679541  0.25314820456915976  0.5453408883285735  1.0000
  H   H2        1.0  0.3733984011438396  0.2887834930421051  0.4919270408147552  1.0000
  H   H3        1.0  0.2786540948775401  0.21921619362550526  0.6231996374247784  1.0000
  H   H4        1.0  0.1528756798930823  0.20853552614656043  0.6088960466359545  1.0000
  H   H5        1.0  0.1402229352362751  0.6275974684849337  0.5810154265225973  1.0000
  H   H6        1.0  0.2661898052335259  0.639600949547166  0.5930535907705827  1.0000
  H   H7        1.0  0.357219213336461  0.551702605198753  0.7903190499591914  1.0000
  H   H8        1.0  0.5308262759401575  0.655683498634655  0.5782159912898894  1.0000
  H   H9        1.0  0.4584099303499585  0.6135197693340675  0.48179899595417464  1.0000
  C   C15       1.0  0.8263924583125041  0.026756421985449454  0.5780677239497538  1.0000
  C   C16       1.0  0.8585920527609706  0.03477272921050023  0.4559720993094057  1.0000
  C   C17       1.0  0.874150341410065  0.9217151169634868  0.39353642925692944  1.0000
  C   C18       1.0  0.8585925747047941  0.7995361389068693  0.4559229683439611  1.0000
  C   C19       1.0  0.8264581950714578  0.7895495007084947  0.5781141158896221  1.0000
  C   C20       1.0  0.8103964510591037  0.9037250898600321  0.6382545709770422  1.0000
  C   C21       1.0  0.9087375253385745  0.9299788013498619  0.26515987131747654  1.0000
  O   O1        1.0  0.9507480343612454  0.8413100223384785  0.24048216587446425  1.0000
  C   C22       1.0  0.895667894829125  0.03877282339206479  0.16478675047996383  1.0000
  C   C23       1.0  0.8305228313596642  0.09925578337392159  0.15184985204465473  1.0000
  C   C24       1.0  0.8184788053341575  0.20116442658889455  0.055788730699345646  1.0000
  N   N4        1.0  0.7522322891987014  0.2625076002673943  0.043741195860673925  1.0000
  C   C25       1.0  0.8716225639519107  0.2421974777340108  0.9713302299865312  1.0000
  C   C26       1.0  0.9361398519636738  0.18156093287861608  0.9824030460775037  1.0000
  C   C27       1.0  0.9481304007041792  0.08007777210058631  0.07815927560242386  1.0000
  H   H10       1.0  0.7665050634890391  0.218888486270171  0.8096432977171742  1.0000
  H   H11       1.0  0.8722795845167548  0.12907902724440024  0.4099240800431079  1.0000
  H   H12       1.0  0.8710067078002466  0.7121558585635032  0.408382641016928  1.0000
  H   H13       1.0  0.785579768517383  0.8967938304036804  0.732370125078466  1.0000
  H   H14       1.0  0.7659991146394508  0.5633573079297213  0.8091938811749888  1.0000
  H   H15       1.0  0.7888505464469947  0.06652200109111606  0.21528261010363672  1.0000
  H   H16       1.0  0.7122500638351124  0.23269607146998705  0.10618399727782468  1.0000
  H   H17       1.0  0.7426966656941593  0.3383092734885251  0.9723806954983796  1.0000
  H   H18       1.0  0.8629613846279999  0.32072200877381624  0.8967320859316925  1.0000
  H   H19       1.0  0.9769694568738683  0.21327405341635727  0.9166272270925004  1.0000
  H   H20       1.0  0.9985884973033977  0.03459200183576638  0.08532924784836204  1.0000
  C   C28       1.0  0.8264727041809464  0.40829270013538993  0.19671555627693202  1.0000
  C   C29       1.0  0.8967073951901936  0.43949893178262367  0.19379762275282886  1.0000
  C   C30       1.0  0.9322906222993462  0.45333192139292094  0.07564680939181234  1.0000
  C   C31       1.0  0.8965869805125097  0.4391908399433188  0.9586527747272756  1.0000
  C   C32       1.0  0.8263779794686518  0.4080131867058119  0.959466289925281  1.0000
  C   C33       1.0  0.7917759336866578  0.39229458743759826  0.07907184587862637  1.0000
  N   N5        1.0  0.003937012918455051  0.4872258540022415  0.07607741827138725  1.0000
  C   C34       1.0  0.05262642695396092  0.4465605840345448  0.9824818710515123  1.0000
  O   O2        1.0  0.04006949437938179  0.3482033693474063  0.9207646105180975  1.0000
  C   C35       1.0  0.1186881049641837  0.5157937626067997  0.9609766297093221  1.0000
  C   C36       1.0  0.12699933942703837  0.6437363203542275  0.9974438994874193  1.0000
  C   C37       1.0  0.18942011890380894  0.7082566310220424  0.9760518671149417  1.0000
  C   C38       1.0  0.24402999586054142  0.6463138631036789  0.9177685940165161  1.0000
  C   C39       1.0  0.23627716201998883  0.5198085008253718  0.8803025514086529  1.0000
  C   C40       1.0  0.17397364902015156  0.454829163865811  0.9013669698591946  1.0000
  H   H21       1.0  0.6938281279547398  0.35063619688435854  0.4093882213095428  1.0000
  H   H22       1.0  0.9242736180259026  0.4522595898724868  0.283569717743984  1.0000
  H   H23       1.0  0.9232360944693851  0.4547117739881749  0.8668797822873288  1.0000
  H   H24       1.0  0.7376350765222174  0.3682211106040489  0.0804571582258462  1.0000
  H   H25       1.0  0.7992238232981727  0.39773800306085494  0.6321963914929176  1.0000
  H   H26       1.0  0.022717635004635642  0.5341205463480777  0.1552419148256825  1.0000
  H   H27       1.0  0.0851997406639551  0.6949728096113117  0.0406886444138701  1.0000
  H   H28       1.0  0.19534711668959304  0.8066457339468402  0.004249058659347769  1.0000
  H   H29       1.0  0.29227568081229377  0.6964918893973966  0.9012683123341385  1.0000
  H   H30       1.0  0.2785856012564223  0.47198112854815893  0.8348675077005537  1.0000
  H   H31       1.0  0.1692255933952811  0.35664304334671215  0.8718097626603926  1.0000
  Zn  Zn1       1.0  0.751038055719546  0.4094114756027436  0.5771330979480913  1.0000
  Zn  Zn2       1.0  0.901806019930523  0.4068939117725996  0.579048075184853  1.0000
  C   C41       1.0  0.8263938859858518  0.402891937620387  0.8152897406174058  1.0000
  C   C42       1.0  0.8264518361711124  0.41341506097620995  0.3408915809953368  1.0000
  C   C43       1.0  0.8264428788577128  0.6453673103057085  0.5729300540152602  1.0000
  C   C44       1.0  0.8264027917095859  0.1709381286886031  0.5832513360889043  1.0000
  O   O3        1.0  0.8836604888722149  0.414173103488765  0.3900050954917298  1.0000
  O   O4        1.0  0.8836146295496439  0.40022214274394075  0.7676292756221859  1.0000
  O   O5        1.0  0.8836534204511107  0.5960240850914048  0.5719221042413927  1.0000
  O   O6        1.0  0.883621646536751  0.2183711713270735  0.58571216884332  1.0000
  O   O7        1.0  0.7692223776636123  0.5979342169088078  0.5704690036293054  1.0000
  O   O8        1.0  0.7691835869021052  0.40213383502416516  0.766176105858358  1.0000
  O   O9        1.0  0.7692294464604865  0.4160847510805519  0.3885503642986117  1.0000
  O   O10       1.0  0.7691906041093137  0.22028280959362484  0.5842575350190866  1.0000
