data_image0
_chemical_formula_structural       NC8NH4C6ClH5C6NCH8Zn2C4O8
_chemical_formula_sum              "N3 C25 H17 Cl1 Zn2 O8"
_cell_length_a       13.859017124695912
_cell_length_b       9.276545438789551
_cell_length_c       9.274690524155616
_cell_angle_alpha    86.08901854457557
_cell_angle_beta     89.68734820513919
_cell_angle_gamma    89.40963735980037

_space_group_name_H-M_alt    "P 1"
_space_group_IT_number       1

loop_
  _space_group_symop_operation_xyz
  'x, y, z'

loop_
  _atom_site_type_symbol
  _atom_site_label
  _atom_site_symmetry_multiplicity
  _atom_site_fract_x
  _atom_site_fract_y
  _atom_site_fract_z
  _atom_site_occupancy
  N   N1        1.0  0.9036038438415961  0.5642002352825528  0.411103394133401  1.0000
  C   C1        1.0  0.8316154794902644  0.5408544171391125  0.3549292635134267  1.0000
  C   C2        1.0  0.7420662002872443  0.5118156269830964  0.28505586479970724  1.0000
  C   C3        1.0  0.6540070133799657  0.5401254949321039  0.3531736378285011  1.0000
  C   C4        1.0  0.5668358741218339  0.5118168475852116  0.28505528624530174  1.0000
  C   C5        1.0  0.5679064600400422  0.45519065119555613  0.14879825297434301  1.0000
  C   C6        1.0  0.6557813787516161  0.4269895941808532  0.08094268339158983  1.0000
  C   C7        1.0  0.7427718307478063  0.45518831233885293  0.14879942989374007  1.0000
  C   C8        1.0  0.47637563622912404  0.5408553392212472  0.35492876606240276  1.0000
  N   N2        1.0  0.40365496800625755  0.5642005559641063  0.41110317832291243  1.0000
  H   H1        1.0  0.653319551498453  0.583956365287805  0.458639846510865  1.0000
  H   H2        1.0  0.5009604971973617  0.4329096997274207  0.09518210998380239  1.0000
  H   H3        1.0  0.6564675092563484  0.3832482395419352  0.9756900620351012  1.0000
  H   H4        1.0  0.8104167364329716  0.43290526914729344  0.09518428485442576  1.0000
  C   C9        1.0  0.15654699740685918  0.14076319737662057  0.4108657018515305  1.0000
  C   C10       1.0  0.15739675427392585  0.22325431348906344  0.27783377837905765  1.0000
  C   C11       1.0  0.14945751472321644  0.15703981871784856  0.14769732176204897  1.0000
  C   C12       1.0  0.1404765869614013  0.007456461944323816  0.14859067119193248  1.0000
  C   C13       1.0  0.14112437697369207  0.9234056332715115  0.27918079146458363  1.0000
  C   C14       1.0  0.1507210984180032  0.9876266744729831  0.4113533614326854  1.0000
  Cl  Cl1       1.0  0.14930921554347432  0.262226001050174  0.9831518173620429  1.0000
  H   H5        1.0  0.20507010421297656  0.4056987486127204  0.6374667059835035  1.0000
  H   H6        1.0  0.16192835345075585  0.33994999226714495  0.2749801906746814  1.0000
  H   H7        1.0  0.1339123379211462  0.9558566789415357  0.04790933786810636  1.0000
  H   H8        1.0  0.1364167877673781  0.8071220473672949  0.2765304718612742  1.0000
  H   H9        1.0  0.11752682835721329  0.690923937204772  0.6444155794516913  1.0000
  C   C15       1.0  0.15520441032826948  0.560503132539427  0.9878601048338295  1.0000
  C   C16       1.0  0.23316830126677668  0.6228783980593411  0.05663336399985308  1.0000
  C   C17       1.0  0.3060951238047527  0.6961741731157309  0.9761777439493433  1.0000
  C   C18       1.0  0.3003052309230376  0.7068252924219987  0.8252874184510954  1.0000
  C   C19       1.0  0.22440626436775846  0.6435909512619864  0.7553029786354633  1.0000
  C   C20       1.0  0.15206362635907622  0.5678866896296497  0.8343589042087731  1.0000
  N   N3        1.0  0.3859424622755796  0.7616109202272248  0.04493718383844714  1.0000
  C   C21       1.0  0.399072265747918  0.7565350010841096  0.2012158037620817  1.0000
  H   H10       1.0  0.04626510280027896  0.3866906828329275  0.2807588379501402  1.0000
  H   H11       1.0  0.35549482669727794  0.7632706609729163  0.7612613407538028  1.0000
  H   H12       1.0  0.22362364980297048  0.6510306661358054  0.6382345479496561  1.0000
  H   H13       1.0  4.8268554949886554e-05  0.5002395735477199  0.5588818275013949  1.0000
  H   H14       1.0  0.4380689000568989  0.8155486500338969  0.9803340755225692  1.0000
  H   H15       1.0  0.46620554151851645  0.8136693904311443  0.22692699279684914  1.0000
  H   H16       1.0  0.40525662239249693  0.6425409564013402  0.24537481245658602  1.0000
  H   H17       1.0  0.33716040754945653  0.8105922462897552  0.2524489704560555  1.0000
  Zn  Zn1       1.0  0.04790779517199106  0.5641965506533648  0.41111165731811394  1.0000
  Zn  Zn2       1.0  0.25935104609884707  0.5641925811723665  0.41110672976987805  1.0000
  C   C22       1.0  0.15269469491380686  0.5607466655776375  0.6743492306511674  1.0000
  C   C23       1.0  0.15456644226966354  0.5676442868124014  0.14786929889499903  1.0000
  C   C24       1.0  0.15183864199211716  0.8275013200874433  0.4055176830563012  1.0000
  C   C25       1.0  0.15542243467345895  0.30088790055652725  0.41670092233613176  1.0000
  O   O1        1.0  0.23459398941873277  0.570033126301785  0.20156797252272574  1.0000
  O   O2        1.0  0.23314769177721262  0.5583537219305537  0.620646401601558  1.0000
  O   O3        1.0  0.2324553309608708  0.7737614921127292  0.40356302577945513  1.0000
  O   O4        1.0  0.2352862784138177  0.3546253654933593  0.4186512402844609  1.0000
  O   O5        1.0  0.07197249070183358  0.7737637663352301  0.4035671467976323  1.0000
  O   O6        1.0  0.07266483988088288  0.5583577279019816  0.6206504467675704  1.0000
  O   O7        1.0  0.07411114436167954  0.5700370669102166  0.20157028479194272  1.0000
  O   O8        1.0  0.07480343302283465  0.3546292967308995  0.41865366060814724  1.0000
