data_image0
_chemical_formula_structural       NC9NC5H8C7OH6C6SCH8Zn2C4O8
_chemical_formula_sum              "N2 C32 H22 O9 S1 Zn2"
_cell_length_a       17.807436237873137
_cell_length_b       9.274078303013077
_cell_length_c       10.302812801239595
_cell_angle_alpha    85.73623522774189
_cell_angle_beta     89.39214003622364
_cell_angle_gamma    87.81002060722456

_space_group_name_H-M_alt    "P 1"
_space_group_IT_number       1

loop_
  _space_group_symop_operation_xyz
  'x, y, z'

loop_
  _atom_site_type_symbol
  _atom_site_label
  _atom_site_symmetry_multiplicity
  _atom_site_fract_x
  _atom_site_fract_y
  _atom_site_fract_z
  _atom_site_occupancy
  N   N1        1.0  0.6992614036086104  0.5413834711827019  0.5619615189098022  1.0000
  C   C1        1.0  0.6388805623124365  0.5022984906807655  0.5508300505931345  1.0000
  C   C2        1.0  0.5637734321108958  0.45368107919968953  0.5369837128209072  1.0000
  C   C3        1.0  0.5461015307225208  0.3743614642848352  0.4317885897054332  1.0000
  C   C4        1.0  0.4731770311550503  0.32703386642137977  0.4182617357069738  1.0000
  C   C5        1.0  0.41687793185713556  0.35860656334208185  0.5098963723374137  1.0000
  C   C6        1.0  0.3393773124993534  0.30843715260192855  0.4956032405085662  1.0000
  C   C7        1.0  0.2767207609856497  0.3992431475362581  0.5217919221979215  1.0000
  C   C8        1.0  0.2036551490618409  0.3516900361502808  0.5082781044650793  1.0000
  C   C9        1.0  0.1399327003472045  0.44548530017598775  0.5348390653797506  1.0000
  N   N2        1.0  0.08871287418852478  0.5208902033140608  0.5561933332642894  1.0000
  C   C10       1.0  0.19266405902094147  0.21304439292369295  0.46854944937903475  1.0000
  C   C11       1.0  0.25446332207720446  0.12222301236989727  0.4423523369285016  1.0000
  C   C12       1.0  0.327411819414634  0.1693379103745325  0.4556624352570773  1.0000
  C   C13       1.0  0.4352383340001826  0.4384752670440255  0.615312215792676  1.0000
  C   C14       1.0  0.5082168232599509  0.4855913958842271  0.628682867311342  1.0000
  H   H1        1.0  0.5886285618700181  0.3493877431486544  0.3600274472857681  1.0000
  H   H2        1.0  0.4605798279933763  0.26740981581255263  0.3351979965309346  1.0000
  H   H3        1.0  0.2846457614513342  0.507496700047734  0.5509673512133457  1.0000
  H   H4        1.0  0.13639894689017057  0.1752408003170307  0.4578505252181435  1.0000
  H   H5        1.0  0.24583516098836358  0.01488034865709409  0.4119794612678631  1.0000
  H   H6        1.0  0.3744388093248637  0.09631536943769879  0.43641262023548455  1.0000
  H   H7        1.0  0.3934313483616004  0.46285025972498334  0.6883657490003929  1.0000
  H   H8        1.0  0.5213352077000447  0.5465711521396017  0.7107091578355991  1.0000
  C   C15       1.0  0.896230569455012  0.10755135908913083  0.5578800304362994  1.0000
  C   C16       1.0  0.8817004479141223  0.1917802426530215  0.4408981661459881  1.0000
  C   C17       1.0  0.8606774924795045  0.12778427144715132  0.3284470612957344  1.0000
  C   C18       1.0  0.8539849746955563  0.9774927895800067  0.3329088388302677  1.0000
  C   C19       1.0  0.8693607398009322  0.8921608088577625  0.4474619551495089  1.0000
  C   C20       1.0  0.8917509572194204  0.9547108506381771  0.5602859890994893  1.0000
  C   C21       1.0  0.845195920657238  0.2195166244740725  0.20784848620437105  1.0000
  O   O1        1.0  0.8258824458883801  0.16523588267671618  0.10533839308109204  1.0000
  H   H9        1.0  0.8939191352743161  0.18430079161752874  0.8775646065748666  1.0000
  H   H10       1.0  0.8850617297071443  0.308468982225901  0.4380482150169924  1.0000
  H   H11       1.0  0.8375468298089758  0.9255062247046302  0.24744374930779964  1.0000
  H   H12       1.0  0.8654436577278558  0.7759297817168102  0.44682547713213155  1.0000
  H   H13       1.0  0.8934843728205785  0.6557293012310242  0.774970092143326  1.0000
  H   H14       1.0  0.8503835814152557  0.33555822983083383  0.20640744077182926  1.0000
  C   C22       1.0  0.8939907791365737  0.531131123048561  0.17783453160866314  1.0000
  C   C23       1.0  0.8678869790604095  0.6763114417147187  0.16742113068081355  1.0000
  C   C24       1.0  0.854705940522559  0.7483460277680418  0.045266431125845275  1.0000
  C   C25       1.0  0.8678869121137398  0.6763112938614151  0.932269961564943  1.0000
  C   C26       1.0  0.8939907304446123  0.5311311158927259  0.9403314359325301  1.0000
  C   C27       1.0  0.9068919853176032  0.45923903761065943  0.0636577841783843  1.0000
  S   S1        1.0  0.8215082478133534  0.933934032516716  0.033454643602411904  1.0000
  C   C28       1.0  0.7229268452959873  0.8887384539372525  0.03828768396457649  1.0000
  H   H15       1.0  0.9038002128392234  0.4764026755244309  0.5090735641512623  1.0000
  H   H16       1.0  0.8575175213643257  0.733977528724207  0.25385155491581113  1.0000
  H   H17       1.0  0.8575173720105447  0.7339773288554999  0.838501243571951  1.0000
  H   H18       1.0  0.9270134268905713  0.3472461773938571  0.07078385764843098  1.0000
  H   H19       1.0  0.9037988175680016  0.47640200027704105  0.6160579972343525  1.0000
  H   H20       1.0  0.7099406678908874  0.825270405821735  0.9546564851607409  1.0000
  H   H21       1.0  0.7099409820348733  0.8252718466520368  0.13089117656733085  1.0000
  H   H22       1.0  0.6876204301657886  0.9901304788371587  0.0321490577295247  1.0000
  Zn  Zn1       1.0  0.8116487045619883  0.5354657078718363  0.56030444262148  1.0000
  Zn  Zn2       1.0  0.9763256172116667  0.526796208593227  0.5578610493997094  1.0000
  C   C29       1.0  0.8940194509847633  0.5253848103206975  0.7961869124792602  1.0000
  C   C30       1.0  0.8939566594317687  0.5368788314835173  0.3219786854551496  1.0000
  C   C31       1.0  0.8925938207513479  0.7945798950790767  0.5546577032824833  1.0000
  C   C32       1.0  0.8953822426363726  0.2676820166600729  0.56350795978068  1.0000
  O   O2        1.0  0.9564392719525862  0.5355114922236347  0.3694275073934994  1.0000
  O   O3        1.0  0.9565228105547612  0.5201711120518606  0.7468832348034962  1.0000
  O   O4        1.0  0.9553707536622255  0.7375495917819017  0.551846706277412  1.0000
  O   O5        1.0  0.9575912725974893  0.3181330257705295  0.5644639394387412  1.0000
  O   O6        1.0  0.8303829929800092  0.7441288936545785  0.5537015534094343  1.0000
  O   O7        1.0  0.8315350407052001  0.5267521469496467  0.7487380176337513  1.0000
  O   O8        1.0  0.8314515024188927  0.5420924768531559  0.3712807291727358  1.0000
  O   O9        1.0  0.8326035031152718  0.3247140000831591  0.5663172585258065  1.0000
