data_image0
_chemical_formula_structural       NC8NC6H8C10IC2H7C10SH7Zn2C4O8
_chemical_formula_sum              "N2 C40 H22 I1 S1 Zn2 O8"
_cell_length_a       17.457602349358154
_cell_length_b       10.299770258652044
_cell_length_c       10.297424231287906
_cell_angle_alpha    85.58113724288043
_cell_angle_beta     92.88854128297355
_cell_angle_gamma    91.70636658755173

_space_group_name_H-M_alt    "P 1"
_space_group_IT_number       1

loop_
  _space_group_symop_operation_xyz
  'x, y, z'

loop_
  _atom_site_type_symbol
  _atom_site_label
  _atom_site_symmetry_multiplicity
  _atom_site_fract_x
  _atom_site_fract_y
  _atom_site_fract_z
  _atom_site_occupancy
  N   N1        1.0  0.7225143572723158  0.4523565700724548  0.6262957319697005  1.0000
  C   C1        1.0  0.6614262801151896  0.40642809388332335  0.6156761930986154  1.0000
  C   C2        1.0  0.5854301314744064  0.34929878707441975  0.6024750307685782  1.0000
  C   C3        1.0  0.5269192616186366  0.38948571700682755  0.6773887435800732  1.0000
  C   C4        1.0  0.4523616805232202  0.3344748655408274  0.6648022194053695  1.0000
  C   C5        1.0  0.3902609385340634  0.3769064256137454  0.7441386775880192  1.0000
  C   C6        1.0  0.3157102225315352  0.3953558047625463  0.6883650838237998  1.0000
  C   C7        1.0  0.2571993295882353  0.4353588471335583  0.7633867641601233  1.0000
  C   C8        1.0  0.18121027302486536  0.4544133245117003  0.7053973038947738  1.0000
  N   N2        1.0  0.12012798686625221  0.46972674472448545  0.6587739286739425  1.0000
  C   C9        1.0  0.2727471049185375  0.4571558222937699  0.8946906635916565  1.0000
  C   C10       1.0  0.34651324315429305  0.43909555826477553  0.950851945392096  1.0000
  C   C11       1.0  0.405012627312048  0.39927272392655033  0.876288081849897  1.0000
  C   C12       1.0  0.43760329260162617  0.23859918432726898  0.575868759450749  1.0000
  C   C13       1.0  0.49610255132352155  0.19869106783134582  0.5013551380501214  1.0000
  C   C14       1.0  0.5698754625568502  0.2538144803481228  0.5144917227616557  1.0000
  H   H1        1.0  0.5392865820306629  0.46470207010392706  0.7440352319245631  1.0000
  H   H2        1.0  0.3033485638293156  0.38035108357616193  0.5863202852976912  1.0000
  H   H3        1.0  0.2278999571952551  0.4880582940657909  0.9535390697293331  1.0000
  H   H4        1.0  0.35836143556430944  0.45565780211110435  0.05252347085535646  1.0000
  H   H5        1.0  0.46150164489587864  0.38429663848795226  0.9224028826420412  1.0000
  H   H6        1.0  0.3811086003629477  0.193260359753749  0.5652131193016972  1.0000
  H   H7        1.0  0.48424909004161903  0.12459076231491163  0.4335101393628777  1.0000
  H   H8        1.0  0.6147225585510148  0.22204249006989207  0.45615450716288786  1.0000
  C   C15       1.0  0.9212525357595551  0.07967338745347209  0.642526126541266  1.0000
  C   C16       1.0  0.9269279885471163  0.08943664076742365  0.5065691014289802  1.0000
  C   C17       1.0  0.9298773093646958  0.9772476895846816  0.4376937406479591  1.0000
  C   C18       1.0  0.9270741583030709  0.8541552374882061  0.5065986603684767  1.0000
  C   C19       1.0  0.9213971303894719  0.8424002024007347  0.6425553887807296  1.0000
  C   C20       1.0  0.9185185308638348  0.9557174059709898  0.7097578765030039  1.0000
  C   C21       1.0  0.9358819190225388  0.9886297523022531  0.29386440911179923  1.0000
  C   C22       1.0  0.9849674731189014  0.9079165918193081  0.23391551770399643  1.0000
  C   C23       1.0  0.9905418215004375  0.9188380373977092  0.09852582829693145  1.0000
  C   C24       1.0  0.9472535186095198  0.010185112539961686  0.02145857416813279  1.0000
  I   I1        1.0  0.95577790931592  0.02634373192011762  0.817249551719124  1.0000
  C   C25       1.0  0.8983085863318708  0.09080962060741671  0.07989989893190708  1.0000
  C   C26       1.0  0.892580495675101  0.0803067997040019  0.21525849718640158  1.0000
  H   H9        1.0  0.9301266055911656  0.18456817414129964  0.4541297138815818  1.0000
  H   H10       1.0  0.9282711932534972  0.767355503933463  0.4537551296812214  1.0000
  H   H11       1.0  0.9141394819583598  0.9474172412799216  0.8146423547477615  1.0000
  H   H12       1.0  0.01975383926761909  0.8375881738490769  0.29184566971647685  1.0000
  H   H13       1.0  0.028667330262347693  0.8564799529986354  0.053634300439883376  1.0000
  H   H14       1.0  0.8645371056298699  0.16142105042482946  0.020489197188351408  1.0000
  H   H15       1.0  0.8535795102512801  0.1426464544097283  0.258287809068801  1.0000
  C   C27       1.0  0.9212731885551263  0.4609068145679764  0.261098418381412  1.0000
  C   C28       1.0  0.9977531478496267  0.5073624602349025  0.2633099923820772  1.0000
  C   C29       1.0  0.03680991468719208  0.5308243031533645  0.14729210409574445  1.0000
  C   C30       1.0  0.9978837064401925  0.5076609726184242  0.028093129487505083  1.0000
  C   C31       1.0  0.9213764648238547  0.4611667534564971  0.02398308631683998  1.0000
  C   C32       1.0  0.8835715529918172  0.43797650072644956  0.14096126783261242  1.0000
  C   C33       1.0  0.1177384687760814  0.5800161950323164  0.14967959465454572  1.0000
  C   C34       1.0  0.16894324226149124  0.5813517982394519  0.2581803964771836  1.0000
  C   C35       1.0  0.24161629109283103  0.6338827229902004  0.22945053328585696  1.0000
  C   C36       1.0  0.24874644020244396  0.6743276052905167  0.09889410469382677  1.0000
  S   S1        1.0  0.16450507257570854  0.6443905464129374  0.019406761326182798  1.0000
  H   H16       1.0  0.02633938702836724  0.5266147652691828  0.3556755836600043  1.0000
  H   H17       1.0  0.02727813607157437  0.524862527992557  0.9380564921360439  1.0000
  H   H18       1.0  0.8245975796388546  0.40213692294130476  0.13857424523967699  1.0000
  H   H19       1.0  0.7769323056616694  0.3732950631432246  0.8089788506048284  1.0000
  H   H20       1.0  0.15540532457753622  0.5443208213345634  0.35564585244846536  1.0000
  H   H21       1.0  0.28804162796023713  0.6417523128575631  0.3023003183788857  1.0000
  H   H22       1.0  0.29976427141724327  0.717258958895648  0.05603151282575536  1.0000
  Zn  Zn1       1.0  0.837257062233522  0.45736574711864286  0.63567573774934  1.0000
  Zn  Zn2       1.0  0.005385267076398528  0.46470692349664067  0.6494045570603246  1.0000
  C   C37       1.0  0.9213542677715966  0.45594391196624473  0.8797811999977007  1.0000
  C   C38       1.0  0.9212898978210188  0.4661304774753279  0.40529937228404833  1.0000
  C   C39       1.0  0.9213651565720121  0.6982266835715147  0.6373733482520633  1.0000
  C   C40       1.0  0.9212789513637607  0.22384614308810558  0.6477072885371432  1.0000
  O   O1        1.0  0.9850992820595047  0.47066385890842444  0.45890454486873455  1.0000
  O   O2        1.0  0.985150300550631  0.4569813336921504  0.836595509651239  1.0000
  O   O3        1.0  0.9851582334721178  0.6526276987517654  0.6408493841081171  1.0000
  O   O4        1.0  0.9850912917558239  0.2750175006007811  0.6546505683340846  1.0000
  O   O5        1.0  0.8575509801801914  0.6470551675107303  0.6304297217837755  1.0000
  O   O6        1.0  0.8575430475416409  0.4514103627292956  0.8261757781276348  1.0000
  O   O7        1.0  0.8574920288814999  0.46509284215967245  0.4484832516463093  1.0000
  O   O8        1.0  0.8574840385861074  0.26944647459628546  0.6442293724976269  1.0000
