data_image0
_chemical_formula_structural       NC6NCNCH5C6NH5C7NH4Zn2C4O8
_chemical_formula_sum              "N5 C25 H14 Zn2 O8"
_cell_length_a       14.933214217465613
_cell_length_b       9.274771166103582
_cell_length_c       9.275157849593905
_cell_angle_alpha    86.00874675488272
_cell_angle_beta     89.70661770832213
_cell_angle_gamma    90.63112361825276

_space_group_name_H-M_alt    "P 1"
_space_group_IT_number       1

loop_
  _space_group_symop_operation_xyz
  'x, y, z'

loop_
  _atom_site_type_symbol
  _atom_site_label
  _atom_site_symmetry_multiplicity
  _atom_site_fract_x
  _atom_site_fract_y
  _atom_site_fract_z
  _atom_site_occupancy
  N   N1        1.0  0.8578315165468218  0.5642003165719363  0.40662559463390346  1.0000
  C   C1        1.0  0.7803504315091616  0.5651877475880984  0.40563350461874714  1.0000
  C   C2        1.0  0.6839634299862322  0.5664188205731491  0.4043964912229536  1.0000
  C   C3        1.0  0.6352574371391666  0.4715448734198904  0.49973754763116  1.0000
  C   C4        1.0  0.5417339812571107  0.4726176935886391  0.4986594752660858  1.0000
  C   C5        1.0  0.4960136591284692  0.5685101029527924  0.4022949792641748  1.0000
  C   C6        1.0  0.3994187186540323  0.5664209579267692  0.4043944169395328  1.0000
  N   N2        1.0  0.32191688325570217  0.5646781458297585  0.4061454386843324  1.0000
  C   C7        1.0  0.5448295497535611  0.6645820505848827  0.305750153286239  1.0000
  N   N3        1.0  0.5004440288682769  0.7642511038948729  0.2055906561396399  1.0000
  C   C8        1.0  0.6388244689929439  0.6625520686235797  0.3077902471892966  1.0000
  H   H1        1.0  0.6695599417892198  0.3967431461721753  0.574907515784798  1.0000
  H   H2        1.0  0.5049613275624028  0.3984452088928496  0.5731969738595453  1.0000
  H   H3        1.0  0.5374537471853965  0.8346469649366981  0.1348481619017996  1.0000
  H   H4        1.0  0.43075183228649727  0.7695543481127959  0.20026137361699758  1.0000
  H   H5        1.0  0.6767146247133059  0.7359782545203581  0.23400255597592512  1.0000
  C   C9        1.0  0.08712706819607012  0.14084740064585022  0.4071738739377455  1.0000
  C   C10       1.0  0.06687451833182512  0.22289365611611897  0.27832258126977893  1.0000
  C   C11       1.0  0.054985077425217854  0.15658250688895192  0.14864499796888242  1.0000
  C   C12       1.0  0.06339771177939046  0.00683862976566995  0.14687930015617945  1.0000
  C   C13       1.0  0.08199920606400535  0.9234541898066531  0.2739619730769072  1.0000
  C   C14       1.0  0.09262979780836923  0.9880200891852294  0.4056096986433684  1.0000
  N   N4        1.0  0.035286600551016845  0.2417151843774676  0.018376751434055375  1.0000
  H   H6        1.0  0.18704120259385082  0.22364926949951977  0.7224605386097966  1.0000
  H   H7        1.0  0.05467381864361667  0.9543810436963552  0.04710504453260356  1.0000
  H   H8        1.0  0.1562905817502407  0.6930867015711167  0.6201207287802819  1.0000
  H   H9        1.0  0.029116903310078893  0.35378228269210976  0.01833632749675451  1.0000
  H   H10       1.0  0.026640503988234268  0.19329772009437748  0.9209723869728527  1.0000
  C   C15       1.0  0.09104017671981302  0.5603576177320024  0.9832002999215219  1.0000
  C   C16       1.0  0.1685295968046696  0.6074613842479819  0.05272965638145589  1.0000
  C   C17       1.0  0.241499072578097  0.6659030565643604  0.9726686249671452  1.0000
  C   C18       1.0  0.23783139710176504  0.6781697472744312  0.8219908985721189  1.0000
  C   C19       1.0  0.16217547221236459  0.629899809864082  0.7511202522593865  1.0000
  C   C20       1.0  0.08871670041536128  0.5685097967735615  0.8295832724682808  1.0000
  C   C21       1.0  0.3198792246950517  0.7150165542912292  0.045500956490779794  1.0000
  N   N5        1.0  0.3828767932222832  0.7544905645023536  0.10404588065570852  1.0000
  H   H11       1.0  0.8728414954525235  0.511497630730934  0.09135311988818362  1.0000
  H   H12       1.0  0.29388996061692413  0.7238546148179443  0.7590261674301222  1.0000
  H   H13       1.0  0.16202662779272362  0.6374833126492774  0.634042015017434  1.0000
  H   H14       1.0  0.9427038519089981  0.5295575690089227  0.5523992111717715  1.0000
  Zn  Zn1       1.0  0.9917564811793996  0.5643344175165976  0.4064953699113174  1.0000
  Zn  Zn2       1.0  0.18799179460848112  0.5645323252054757  0.40628751970597277  1.0000
  C   C22       1.0  0.08911654261098595  0.5612224101186356  0.6696093547510535  1.0000
  C   C23       1.0  0.09063388749397472  0.5676461561649973  0.1431736706810003  1.0000
  C   C24       1.0  0.09160080955268568  0.8278310693269665  0.4001626377551588  1.0000
  C   C25       1.0  0.08814954212312337  0.30103576457893144  0.4126204677793319  1.0000
  O   O1        1.0  0.1649677710000792  0.5701610681618086  0.19678332883229155  1.0000
  O   O2        1.0  0.1637207154920881  0.5588566132910124  0.615841530268852  1.0000
  O   O3        1.0  0.16572578445675967  0.7741464907489742  0.3982613982084544  1.0000
  O   O4        1.0  0.16296263543724132  0.35487119991434546  0.4143633528913686  1.0000
  O   O5        1.0  0.01678557338518828  0.7739955427416891  0.39841953678926734  1.0000
  O   O6        1.0  0.014780515884218024  0.5587073975954222  0.6159995888105738  1.0000
  O   O7        1.0  0.016027575881706117  0.5700117855114328  0.19693965483615727  1.0000
  O   O8        1.0  0.014022439951583811  0.35472190798743175  0.4145197869599011  1.0000
