data_image0
_chemical_formula_structural       NC9NC4H8C6NCOCH7C8NH7Zn2C4O8
_chemical_formula_sum              "N4 C33 H22 O9 Zn2"
_cell_length_a       16.32274767691083
_cell_length_b       10.300268703208216
_cell_length_c       9.274266800404106
_cell_angle_alpha    85.98590923950522
_cell_angle_beta     89.02225532851281
_cell_angle_gamma    89.50441699892957

_space_group_name_H-M_alt    "P 1"
_space_group_IT_number       1

loop_
  _space_group_symop_operation_xyz
  'x, y, z'

loop_
  _atom_site_type_symbol
  _atom_site_label
  _atom_site_symmetry_multiplicity
  _atom_site_fract_x
  _atom_site_fract_y
  _atom_site_fract_z
  _atom_site_occupancy
  N   N1        1.0  0.7783054072791341  0.40108713692007253  0.3980492650562837  1.0000
  C   C1        1.0  0.726257328706815  0.35324196630840343  0.33778134145666505  1.0000
  C   C2        1.0  0.6615607291007598  0.2938178918281651  0.2629280984253599  1.0000
  C   C3        1.0  0.6736018658588728  0.21253632987330962  0.16053741774067665  1.0000
  C   C4        1.0  0.594474569073352  0.17287052326626018  0.11057416927525154  1.0000
  C   C5        1.0  0.5351927408801801  0.2309205731375008  0.18370255223609844  1.0000
  C   C6        1.0  0.445347422672718  0.21557849325758793  0.1643792946344158  1.0000
  C   C7        1.0  0.38934498781297966  0.2832395198324651  0.2496069407165282  1.0000
  C   C8        1.0  0.3047152451338602  0.27012743906534853  0.23309206023399476  1.0000
  C   C9        1.0  0.24828839167334682  0.3398684842644753  0.3209389088558922  1.0000
  N   N2        1.0  0.2029402137588387  0.3959288055826933  0.3915528965827928  1.0000
  C   C10       1.0  0.2750355533569133  0.1892449077684073  0.13121239061315393  1.0000
  C   C11       1.0  0.32971552968560974  0.12167350573301451  0.046098013621443945  1.0000
  C   C12       1.0  0.4141885988485656  0.1344324064721576  0.062167885715761706  1.0000
  C   C13       1.0  0.5724382034919626  0.31556390972997694  0.2903251907701725  1.0000
  H   H1        1.0  0.7326993272572745  0.18092974633649583  0.12072000404765723  1.0000
  H   H2        1.0  0.5865785081070237  0.10643920259536399  0.026890188504617996  1.0000
  H   H3        1.0  0.4110779776956345  0.34638197168649026  0.3291413164062753  1.0000
  H   H4        1.0  0.2097087020685041  0.17844327127598802  0.1176078039386914  1.0000
  H   H5        1.0  0.3065830528839295  0.059103328366115544  0.9672847592402545  1.0000
  H   H6        1.0  0.454294681554521  0.08037963736506804  0.9940823006696217  1.0000
  H   H7        1.0  0.5551684524468957  0.2815846960585102  0.402997534253651  1.0000
  H   H8        1.0  0.5557452336675134  0.4194554424362291  0.26572170951442664  1.0000
  C   C14       1.0  0.9907099409569076  0.017159305238503734  0.394808269031401  1.0000
  C   C15       1.0  0.00519070887189743  0.02536456613178717  0.24474304382940137  1.0000
  C   C16       1.0  0.013603920459771988  0.9121873234497189  0.16941592528315505  1.0000
  C   C17       1.0  0.005005189521307238  0.7902075420963258  0.24478184337488004  1.0000
  C   C18       1.0  0.9905434642591538  0.7798466171735501  0.39480623036501594  1.0000
  C   C19       1.0  0.9837802534856537  0.8939158477810305  0.46911027089927354  1.0000
  N   N3        1.0  0.027155530126788948  0.9190108610185516  0.01543281967350851  1.0000
  C   C20       1.0  0.0756021863269003  0.01701055952820686  0.9372360413533757  1.0000
  O   O1        1.0  0.12157088291802953  0.08989398409793337  0.00309817664612866  1.0000
  C   C21       1.0  0.07635518792057527  0.026804447366504114  0.7757458444788607  1.0000
  H   H9        1.0  0.008305401542390902  0.11978269127739449  0.18605316161457197  1.0000
  H   H10       1.0  0.010354251562072697  0.7033846100043732  0.18569408525406111  1.0000
  H   H11       1.0  0.9726339726406688  0.8867778317368363  0.5848570202332661  1.0000
  H   H12       1.0  0.004844561643571053  0.8434694292230184  0.9578550692841067  1.0000
  H   H13       1.0  0.013826756330189484  0.010254891487980547  0.7358344070653587  1.0000
  H   H14       1.0  0.09685604786542962  0.12493345657866019  0.7333997904615002  1.0000
  H   H15       1.0  0.1188236304293828  0.9522969219013929  0.7354152727102372  1.0000
  C   C22       1.0  0.9925118332564858  0.3956407091844785  0.97146770840878  1.0000
  C   C23       1.0  0.9449176240448139  0.30325569743576497  0.053345876808323034  1.0000
  C   C24       1.0  0.8923631007295432  0.22103055993046208  0.9862533676103253  1.0000
  C   C25       1.0  0.885650713777179  0.2299385486291073  0.8356581428704397  1.0000
  C   C26       1.0  0.934370435481122  0.3192052386987472  0.7524565230533937  1.0000
  C   C27       1.0  0.9887415620590955  0.40136518800507215  0.8181467695189203  1.0000
  C   C28       1.0  0.8298620680573794  0.13991492241622264  0.7634303819819891  1.0000
  C   C29       1.0  0.8742574691327267  0.020653073849964183  0.7315368135605035  1.0000
  N   N4        1.0  0.9093017048376294  0.9265278700716322  0.7063625205276112  1.0000
  H   H16       1.0  0.08270956466528534  0.6803525407344255  0.049521370420780864  1.0000
  H   H17       1.0  0.9470110060231263  0.29650468265211494  0.1703279141408831  1.0000
  H   H18       1.0  0.8562193305350744  0.15106865946239112  0.05205071697115126  1.0000
  H   H19       1.0  0.9311788978837636  0.3222070390751772  0.6356143358058821  1.0000
  H   H20       1.0  0.05244646480090953  0.5904942138756042  0.5208310429571945  1.0000
  H   H21       1.0  0.8064806078975877  0.1877488525855107  0.6610187660891729  1.0000
  H   H22       1.0  0.7761292648289173  0.11388556231050907  0.8344141508854803  1.0000
  Zn  Zn1       1.0  0.9008458097076009  0.3995951248186853  0.396182878835339  1.0000
  Zn  Zn2       1.0  0.08039976723874775  0.3974102411285643  0.3934310928812508  1.0000
  C   C30       1.0  0.9894535433607783  0.39510975963550776  0.6581063684311297  1.0000
  C   C31       1.0  0.991793993321508  0.4018972219419881  0.13150771472615874  1.0000
  C   C32       1.0  0.9905963068111229  0.635643672545207  0.3890619797574408  1.0000
  C   C33       1.0  0.9906511686002287  0.1613617500778741  0.4005521812014996  1.0000
  O   O2        1.0  0.059692872048065615  0.4031621473634299  0.1841743144162908  1.0000
  O   O3        1.0  0.0578319658663502  0.39218557557184575  0.6033508118876794  1.0000
  O   O4        1.0  0.05875383657275019  0.586419773525148  0.38609557857411847  1.0000
  O   O5        1.0  0.05877094055136278  0.20892795871459488  0.40142944057782426  1.0000
  O   O6        1.0  0.9224745751220661  0.5880774079796109  0.38818453207023174  1.0000
  O   O7        1.0  0.9215527044136809  0.39384476972767996  0.605439688513608  1.0000
  O   O8        1.0  0.9234136183778421  0.40482128454645583  0.18626145780464043  1.0000
  O   O9        1.0  0.9224916863985223  0.21058708734010967  0.40351669204966867  1.0000
