data_image0
_chemical_formula_structural       NC8NH4C7NH5C6SCH7Zn2C4O8
_chemical_formula_sum              "N3 C26 H16 S1 Zn2 O8"
_cell_length_a       13.859017124695912
_cell_length_b       9.275154477615127
_cell_length_c       9.275274088470228
_cell_angle_alpha    86.32665131531041
_cell_angle_beta     89.7257703154182
_cell_angle_gamma    89.43373790894346

_space_group_name_H-M_alt    "P 1"
_space_group_IT_number       1

loop_
  _space_group_symop_operation_xyz
  'x, y, z'

loop_
  _atom_site_type_symbol
  _atom_site_label
  _atom_site_symmetry_multiplicity
  _atom_site_fract_x
  _atom_site_fract_y
  _atom_site_fract_z
  _atom_site_occupancy
  N   N1        1.0  0.9033244285188423  0.5628565181005907  0.41657067586097224  1.0000
  C   C1        1.0  0.8313047768458958  0.5394691876488191  0.360324211503648  1.0000
  C   C2        1.0  0.7417165803468054  0.5103787614855815  0.2903608402922919  1.0000
  C   C3        1.0  0.6536953330978348  0.538738967991929  0.35856632755414086  1.0000
  C   C4        1.0  0.5664862542568758  0.5103799815488019  0.2903602659275011  1.0000
  C   C5        1.0  0.567480949562973  0.45365309197735404  0.15392778486270786  1.0000
  C   C6        1.0  0.6553180746121816  0.4254018901841133  0.08598483813760605  1.0000
  C   C7        1.0  0.7423463201564282  0.4536507542059076  0.15392895374625026  1.0000
  C   C8        1.0  0.4760649336149719  0.5394701092773126  0.36032371722459877  1.0000
  N   N2        1.0  0.4033755526750131  0.562856838591387  0.4165704611585973  1.0000
  H   H1        1.0  0.6530666125965325  0.5826477772192771  0.4641683398615362  1.0000
  H   H2        1.0  0.5005051246046538  0.43133251840151793  0.10024260796964679  1.0000
  H   H3        1.0  0.6559455829024939  0.38158275445604767  0.9805966907171002  1.0000
  H   H4        1.0  0.8099613635994862  0.43132808983514637  0.10024476762399703  1.0000
  C   C9        1.0  0.1561522108002633  0.1394515673162542  0.41490287777998125  1.0000
  C   C10       1.0  0.13008201136169673  0.22142433767140737  0.2878350392002689  1.0000
  C   C11       1.0  0.09614151703722329  0.15424349206577959  0.16749817702150233  1.0000
  C   C12       1.0  0.0877105348410665  0.004173406401324356  0.17281192599933504  1.0000
  C   C13       1.0  0.11468447535428729  0.920965465095991  0.29698335381554575  1.0000
  C   C14       1.0  0.15055703877811033  0.9862508637795936  0.41825074230966  1.0000
  C   C15       1.0  0.06879261954158  0.23978353481893658  0.038898840004728104  1.0000
  N   N3        1.0  0.04681170097829335  0.3085421358716558  0.935537913466964  1.0000
  H   H5        1.0  0.17370627627366897  0.21948094694486198  0.7686578108736141  1.0000
  H   H6        1.0  0.13403650114063526  0.33834314608366545  0.28355890586289934  1.0000
  H   H7        1.0  0.06111100099718514  0.9511688082916688  0.08032548985682332  1.0000
  H   H8        1.0  0.10961818008149482  0.8044966614173363  0.2968565249281654  1.0000
  H   H9        1.0  0.1664750501271044  0.6897307926662355  0.6552766083311694  1.0000
  C   C16       1.0  0.1547361368967708  0.5588335178288305  0.9933639898105288  1.0000
  C   C17       1.0  0.2365699331931641  0.6095849411165648  0.06291294722512975  1.0000
  C   C18       1.0  0.31296868858396354  0.6718234243741091  0.9830949117862136  1.0000
  C   C19       1.0  0.30881417452376936  0.6834487658402215  0.8325807482172201  1.0000
  C   C20       1.0  0.22904946164961393  0.6316059419937785  0.7615245631117031  1.0000
  C   C21       1.0  0.15197311168285485  0.5668689163829947  0.8397895827702829  1.0000
  S   S1        1.0  0.4161666594133426  0.73719565920055  0.07404167297519983  1.0000
  C   C22       1.0  0.36537891454791027  0.9176664081579182  0.08648734885935427  1.0000
  H   H10       1.0  0.9214741378831319  0.49950742017594374  0.10183424668751952  1.0000
  H   H11       1.0  0.3677846286855899  0.7317582913782101  0.7702738438541856  1.0000
  H   H12       1.0  0.22871658194092603  0.6390760897382224  0.6444946330083265  1.0000
  H   H13       1.0  0.9961163909533297  0.5210438751270108  0.562693673654834  1.0000
  H   H14       1.0  0.35125306097435366  0.9680534737378268  0.9767244683187922  1.0000
  H   H15       1.0  0.2971996336859668  0.9122502231245749  0.14983152991991489  1.0000
  H   H16       1.0  0.4176464042554149  0.9849406053323204  0.14175261714175624  1.0000
  Zn  Zn1       1.0  0.04762838251374734  0.5628528401203668  0.41657892564266186  1.0000
  Zn  Zn2       1.0  0.2590716301730165  0.5628488671443896  0.4165739852592634  1.0000
  C   C23       1.0  0.15253117813843864  0.5596060862551375  0.6797743155095417  1.0000
  C   C24       1.0  0.15417113101976976  0.5660974415449676  0.15337874398288198  1.0000
  C   C25       1.0  0.1516284219414361  0.826133231907793  0.41187489637109564  1.0000
  C   C26       1.0  0.15507382626113486  0.2995685643366732  0.42127823310992873  1.0000
  O   O1        1.0  0.23422316198943705  0.5685274827312905  0.20707925751771672  1.0000
  O   O2        1.0  0.23295968821969804  0.5571719380214515  0.6260696331732443  1.0000
  O   O3        1.0  0.2322296145866425  0.7723959930782347  0.4097389627384658  1.0000
  O   O4        1.0  0.23495316375582534  0.3533034369642636  0.4234098199363203  1.0000
  O   O5        1.0  0.07174677677574941  0.7723982703033461  0.40974309095971667  1.0000
  O   O6        1.0  0.07247683920925363  0.5571759468050548  0.6260736914000069  1.0000
  O   O7        1.0  0.07374031903134948  0.568531424821394  0.20708158282791445  1.0000
  O   O8        1.0  0.07447032050921631  0.35330736976746424  0.4234122532568055  1.0000
