data_image0
_chemical_formula_structural       NC9NC4H8C8NH7C8NH7Zn2C4O8
_chemical_formula_sum              "N4 C33 H22 Zn2 O8"
_cell_length_a       16.32274767691083
_cell_length_b       9.274263428431858
_cell_length_c       9.274266800404106
_cell_angle_alpha    85.95096221083165
_cell_angle_beta     89.02225532851281
_cell_angle_gamma    90.1410557844374

_space_group_name_H-M_alt    "P 1"
_space_group_IT_number       1

loop_
  _space_group_symop_operation_xyz
  'x, y, z'

loop_
  _atom_site_type_symbol
  _atom_site_label
  _atom_site_symmetry_multiplicity
  _atom_site_fract_x
  _atom_site_fract_y
  _atom_site_fract_z
  _atom_site_occupancy
  N   N1        1.0  0.7881414813728645  0.5561223707005043  0.39680469098702975  1.0000
  C   C1        1.0  0.735757514595763  0.5029829631955107  0.33657926785516445  1.0000
  C   C2        1.0  0.6706437392237355  0.43698340526641166  0.2617788107357688  1.0000
  C   C3        1.0  0.6821142537523136  0.3467077517753143  0.15946033178761687  1.0000
  C   C4        1.0  0.6027084904799531  0.3026527837532713  0.10953231812882036  1.0000
  C   C5        1.0  0.5438341919661508  0.3671262764037651  0.18260913571240822  1.0000
  C   C6        1.0  0.4538811675136779  0.3500865412687417  0.16329950635288393  1.0000
  C   C7        1.0  0.3983537344244299  0.42523449909610284  0.24846704970693922  1.0000
  C   C8        1.0  0.31363194079819257  0.4106715203416227  0.23196381657687026  1.0000
  C   C9        1.0  0.2576946914956765  0.48812965819089427  0.3197487148074387  1.0000
  N   N2        1.0  0.2127400747378403  0.5503932518055676  0.3903129046164313  1.0000
  C   C10       1.0  0.2833844281129229  0.3208390516582469  0.1301559942369408  1.0000
  C   C11       1.0  0.3375900318636949  0.24579063564179826  0.04510164036055375  1.0000
  C   C12       1.0  0.4221526725384562  0.25996135375243057  0.06116017882929326  1.0000
  C   C13       1.0  0.5816738775269034  0.46113569675418464  0.289156586273456  1.0000
  H   H1        1.0  0.7409898269545244  0.3116037882836735  0.11967099396029601  1.0000
  H   H2        1.0  0.5943460606668596  0.22887060312573076  0.025907347748700623  1.0000
  H   H3        1.0  0.42053000425629716  0.49536388597129793  0.3279453364810325  1.0000
  H   H4        1.0  0.21798174592572564  0.30884217598713143  0.11656100256647896  1.0000
  H   H5        1.0  0.3140182926603974  0.17629684744432317  0.9663439665483442  1.0000
  H   H6        1.0  0.4618792877381453  0.19992745508232246  0.9931226084091027  1.0000
  H   H7        1.0  0.564165581672943  0.42339656323446984  0.4018591132102791  1.0000
  H   H8        1.0  0.5657102590657499  0.576523194012883  0.2644608190319111  1.0000
  C   C14       1.0  0.9978507204472158  0.1297115702077234  0.39390473486693534  1.0000
  C   C15       1.0  0.9878428839397254  0.21222588440574297  0.2623170382186548  1.0000
  C   C16       1.0  0.9858655805812776  0.14636966573453036  0.13179910672324602  1.0000
  C   C17       1.0  0.9945132035049454  0.9964559958924569  0.12963035680536783  1.0000
  C   C18       1.0  0.0023261712155802096  0.9124601181852281  0.26036797848877224  1.0000
  C   C19       1.0  0.0030385687645204636  0.9767929425700064  0.3932252431422052  1.0000
  C   C20       1.0  0.9911585735478698  0.9254667106155838  0.9890346913362161  1.0000
  C   C21       1.0  0.9062934520976592  0.8874370298715248  0.9582948286467919  1.0000
  N   N3        1.0  0.8393111792593202  0.8574197393043574  0.9340420435564867  1.0000
  H   H9        1.0  0.06708582434075216  0.20951747045178415  0.7251864291746579  1.0000
  H   H10       1.0  0.9833242396180902  0.32888818417768984  0.26002519695234083  1.0000
  H   H11       1.0  0.978355702948694  0.21265541639082897  0.03201631451184084  1.0000
  H   H12       1.0  0.005872154710461206  0.7959085772163349  0.2584149876971502  1.0000
  H   H13       1.0  0.04645512182933498  0.6803919692077158  0.6182695209875047  1.0000
  H   H14       1.0  0.028986552854608497  0.8258825272215878  0.9940348165741173  1.0000
  H   H15       1.0  0.015750115035939146  0.9992802613501263  0.8989519515533085  1.0000
  C   C22       1.0  0.0023096717078057148  0.5500732765246827  0.9702279723560575  1.0000
  C   C23       1.0  0.9540668905431372  0.44746553735463607  0.05218820559438187  1.0000
  C   C24       1.0  0.9009351208000341  0.35614189835014326  0.9851687363032409  1.0000
  C   C25       1.0  0.8942852707410269  0.36603558741960485  0.8345655986709657  1.0000
  C   C26       1.0  0.9436316727951704  0.4651799516174753  0.751284683994391  1.0000
  C   C27       1.0  0.9985795881592368  0.5564311891188338  0.8169019484591966  1.0000
  C   C28       1.0  0.8378646307402988  0.26605052942428475  0.7624178050221335  1.0000
  C   C29       1.0  0.8814227759818427  0.13359193663967542  0.730630175910393  1.0000
  N   N4        1.0  0.9158062230362363  0.02905144705372198  0.7055394935144115  1.0000
  H   H16       1.0  0.09450617007170159  0.86628947650487  0.04802872721230744  1.0000
  H   H17       1.0  0.9561128782660392  0.43996749897219756  0.16917623979731444  1.0000
  H   H18       1.0  0.8643001959738446  0.27843846681739226  0.051028232239296756  1.0000
  H   H19       1.0  0.9404612087842724  0.46851391179386237  0.6344398302725325  1.0000
  H   H20       1.0  0.06361223638005598  0.7664880088202048  0.5194182201542961  1.0000
  H   H21       1.0  0.8148189798738347  0.31917745269229925  0.6599636986463557  1.0000
  H   H22       1.0  0.7839490931851375  0.23714092880903762  0.8334246955900628  1.0000
  Zn  Zn1       1.0  0.9106714094052777  0.554465262197297  0.394939630108045  1.0000
  Zn  Zn2       1.0  0.09021002836304355  0.5520386134200842  0.3921897849679956  1.0000
  C   C30       1.0  0.9992476543786173  0.5494835755352905  0.6568671040164817  1.0000
  C   C31       1.0  0.0016357544678762285  0.5570220944875229  0.13026242106510644  1.0000
  C   C32       1.0  0.0020790418460487933  0.8166334143481085  0.3876090510653223  1.0000
  C   C33       1.0  0.998804294785158  0.28987052421648474  0.3995205532027244  1.0000
  O   O1        1.0  0.06954351337029197  0.5584269883686412  0.18292789713249125  1.0000
  O   O2        1.0  0.06760554818875253  0.5462358201904566  0.6021141450014533  1.0000
  O   O3        1.0  0.06989100429413408  0.7619627172731223  0.38468637506274916  1.0000
  O   O4        1.0  0.06725799653992781  0.3427001016200144  0.4003555599109021  1.0000
  O   O5        1.0  0.9336233799607176  0.7638037748269759  0.38677385609594195  1.0000
  O   O6        1.0  0.9313379348029471  0.5480786100321391  0.604201547778991  1.0000
  O   O7        1.0  0.933275907366965  0.5602697149332737  0.18501356672305747  1.0000
  O   O8        1.0  0.9309903899939074  0.34454281868021736  0.40244133759256506  1.0000
