data_image0
_chemical_formula_structural       NC14NH8C12H10C12H10Zn2C4O8
_chemical_formula_sum              "N2 C42 H28 Zn2 O8"
_cell_length_a       17.45760127107867
_cell_length_b       14.388199552941785
_cell_length_c       14.389300134226545
_cell_angle_alpha    82.75983295492937
_cell_angle_beta     86.9942696228219
_cell_angle_gamma    92.14570548014439

_space_group_name_H-M_alt    "P 1"
_space_group_IT_number       1

loop_
  _space_group_symop_operation_xyz
  'x, y, z'

loop_
  _atom_site_type_symbol
  _atom_site_label
  _atom_site_symmetry_multiplicity
  _atom_site_fract_x
  _atom_site_fract_y
  _atom_site_fract_z
  _atom_site_occupancy
  N   N1        1.0  0.7559102330816581  0.06536117361240472  0.911471953364649  1.0000
  C   C1        1.0  0.6940178914430631  0.03949143737169463  0.9375824890763544  1.0000
  C   C2        1.0  0.6170213434844587  0.0073102781156773175  0.970055749341635  1.0000
  C   C3        1.0  0.5583960187269633  0.010316133364616453  0.9069927502420407  1.0000
  C   C4        1.0  0.4828735334376834  0.9792912080226034  0.9381850826471614  1.0000
  C   C5        1.0  0.46726864032459764  0.9452601626941832  0.033608335758322665  1.0000
  C   C6        1.0  0.5258831317402722  0.9423108612661817  0.09630733253141073  1.0000
  C   C7        1.0  0.6006164216588769  0.9732425287942488  0.06472966985894489  1.0000
  C   C8        1.0  0.42064896499094045  0.9823935729307133  0.8714535223783193  1.0000
  C   C9        1.0  0.3471698220945276  0.010745299642383585  0.897760522050714  1.0000
  C   C10       1.0  0.28853944330572995  0.013602736271481506  0.8347096082818335  1.0000
  C   C11       1.0  0.3028946971865528  0.9881101315442711  0.744936289302387  1.0000
  C   C12       1.0  0.37559221648651037  0.9598883402053142  0.7182257684411113  1.0000
  C   C13       1.0  0.4342090820097912  0.9570079805767793  0.7809190925203785  1.0000
  C   C14       1.0  0.21366193961931268  0.04299988206586508  0.862116256412667  1.0000
  N   N2        1.0  0.15347320347679788  0.06663117850500935  0.8841539466482969  1.0000
  H   H1        1.0  0.5714662397668799  0.0379485570168572  0.8340456166745948  1.0000
  H   H2        1.0  0.4099822087835295  0.919774345569965  0.059489375381638565  1.0000
  H   H3        1.0  0.5133643743024051  0.9157429396665108  0.169512546374729  1.0000
  H   H4        1.0  0.6455428830001724  0.9705998733549538  0.11404224137860441  1.0000
  H   H5        1.0  0.33577440646212287  0.03178092233162594  0.9667032584119981  1.0000
  H   H6        1.0  0.2579439819916741  0.9900501457953081  0.695681518303241  1.0000
  H   H7        1.0  0.38651052983183126  0.9399492676608796  0.6488470791801105  1.0000
  H   H8        1.0  0.4898177730151733  0.9337421970952614  0.759049183470986  1.0000
  C   C15       1.0  0.945212600572887  0.7925055360801586  0.9002487814414251  1.0000
  C   C16       1.0  0.8684975311624915  0.8129169309997049  0.920576123485423  1.0000
  C   C17       1.0  0.8114807186691716  0.7411352948105839  0.9358199865537804  1.0000
  C   C18       1.0  0.8301517628306893  0.648316662262423  0.9309931233319575  1.0000
  C   C19       1.0  0.9064435342928941  0.6261164670830347  0.9106973320170888  1.0000
  C   C20       1.0  0.9636620445109542  0.6988406895752223  0.8954451491064365  1.0000
  C   C21       1.0  0.9263338196305265  0.5273603183072182  0.9054335197016359  1.0000
  C   C22       1.0  0.892897615664543  0.4543778386520342  0.9708078955207085  1.0000
  C   C23       1.0  0.9116348910912815  0.36145669826644145  0.9658791636278719  1.0000
  C   C24       1.0  0.9641779415644895  0.3394793639901188  0.895384718469002  1.0000
  C   C25       1.0  0.9975747235442756  0.4123526188397259  0.8299909366333543  1.0000
  C   C26       1.0  0.9788819560533325  0.5052838417316033  0.8349682286346047  1.0000
  H   H9        1.0  0.12374544100133256  0.8990300171006214  0.8529657102917667  1.0000
  H   H10       1.0  0.8525028558400741  0.8843374984364737  0.9246997446878596  1.0000
  H   H11       1.0  0.7525183909387503  0.7575453633962114  0.9511903845498071  1.0000
  H   H12       1.0  0.7847557839546897  0.5940324455887057  0.9418998923906802  1.0000
  H   H13       1.0  0.02275194235893354  0.6821783547836923  0.8810943634187232  1.0000
  H   H14       1.0  0.8529566636576271  0.4692659944182838  0.02660564924567131  1.0000
  H   H15       1.0  0.8850750968204247  0.30686757476133025  0.017470562156864704  1.0000
  H   H16       1.0  0.05040809695849661  0.15312187654716808  0.815396065768375  1.0000
  H   H17       1.0  0.0380780393248519  0.39766381741495804  0.7746909631973411  1.0000
  H   H18       1.0  0.0048169909268976  0.5598040373988991  0.782834972693309  1.0000
  C   C27       1.0  0.9542221577873292  0.07765556178108658  0.6236481733527794  1.0000
  C   C28       1.0  0.99789873394649  0.13295941834679567  0.5507446795849364  1.0000
  C   C29       1.0  0.9987876062118746  0.10994451293563069  0.4591887980797254  1.0000
  C   C30       1.0  0.9560735708237034  0.03111065500563837  0.4385285087929435  1.0000
  C   C31       1.0  0.912458508721739  0.9758205818799813  0.5115201321442535  1.0000
  C   C32       1.0  0.9115186140334552  0.9988771351966378  0.6030668839449025  1.0000
  C   C33       1.0  0.9570393407940534  0.006611974023247111  0.3412400487320352  1.0000
  C   C34       1.0  0.9542120913454086  0.0770759719122416  0.264335843609142  1.0000
  C   C35       1.0  0.9551683474174327  0.054329288725998966  0.17198534797885592  1.0000
  C   C36       1.0  0.9590097125772837  0.95991911610999  0.15722761482021474  1.0000
  C   C37       1.0  0.9617924648987513  0.8896880067795473  0.2331789640709011  1.0000
  C   C38       1.0  0.9607955189813533  0.9126511131292694  0.32461873876303216  1.0000
  H   H19       1.0  0.9084913413211556  0.062382944768031086  0.8590927686279448  1.0000
  H   H20       1.0  0.03160668052386462  0.19397059972980116  0.5644254865814463  1.0000
  H   H21       1.0  0.03376270086955691  0.1531895963615233  0.4047279757159845  1.0000
  H   H22       1.0  0.8781986770894268  0.9153411264874212  0.4976055252273597  1.0000
  H   H23       1.0  0.8771383498438877  0.9550242649119159  0.657643934910312  1.0000
  H   H24       1.0  0.9502080588256004  0.14953145633552523  0.27658172227107997  1.0000
  H   H25       1.0  0.9505611186916406  0.15556536452747832  0.9444581773572462  1.0000
  H   H26       1.0  0.9598758896443738  0.9402136185910611  0.08701315540799714  1.0000
  H   H27       1.0  0.9649489606112039  0.8171454055036697  0.22110036503870123  1.0000
  H   H28       1.0  0.9639960086384103  0.8570344841519374  0.38226573749085724  1.0000
  Zn  Zn1       1.0  0.8706382389103895  0.06572494918196009  0.9035939701003073  1.0000
  Zn  Zn2       1.0  0.03874492376963492  0.06625946465501371  0.8920396103940009  1.0000
  C   C39       1.0  0.9548591559199548  0.055028269833784504  0.06837097522442959  1.0000
  C   C40       1.0  0.9545258833824487  0.0769573210424954  0.7272625602832943  1.0000
  C   C41       1.0  0.9605827051338032  0.2362478964300703  0.8925839377747662  1.0000
  C   C42       1.0  0.9488022380943142  0.8957365732090615  0.9030496614020995  1.0000
  O   O1        1.0  0.01842328639610471  0.0769217678444541  0.7576517119053172  1.0000
  O   O2        1.0  0.018550812165861744  0.055468816754265834  0.029212069422553156  1.0000
  O   O3        1.0  0.02317179222005941  0.2018059130335738  0.8872628434583361  1.0000
  O   O4        1.0  0.013802249088688455  0.9305846810229728  0.8996008717497306  1.0000
  O   O5        1.0  0.8955808562248017  0.20139973263281966  0.8960327126825934  1.0000
  O   O6        1.0  0.890959914878356  0.055063757409479  0.03798187891568361  1.0000
  O   O7        1.0  0.8908323860973408  0.07651672379667378  0.7664203991825043  1.0000
  O   O8        1.0  0.8862113486766089  0.9301796273361846  0.9083696290847372  1.0000
