data_image0
_chemical_formula_structural       NC9NC5H8C7ONH7C7OIH5Zn2C4O8
_chemical_formula_sum              "N3 C32 H20 O10 I1 Zn2"
_cell_length_a       17.807436237873137
_cell_length_b       10.297852080636378
_cell_length_c       10.297413674417346
_cell_angle_alpha    85.5525392948287
_cell_angle_beta     89.407167321576
_cell_angle_gamma    88.36921327777658

_space_group_name_H-M_alt    "P 1"
_space_group_IT_number       1

loop_
  _space_group_symop_operation_xyz
  'x, y, z'

loop_
  _atom_site_type_symbol
  _atom_site_label
  _atom_site_symmetry_multiplicity
  _atom_site_fract_x
  _atom_site_fract_y
  _atom_site_fract_z
  _atom_site_occupancy
  N   N1        1.0  0.7068982981242965  0.38823324076066257  0.5568120740038636  1.0000
  C   C1        1.0  0.6463164745037284  0.35303859205344823  0.5457858242005029  1.0000
  C   C2        1.0  0.5709593444213469  0.3092603249017136  0.532070366662478  1.0000
  C   C3        1.0  0.5528668399176307  0.23784776163771634  0.4270447684407841  1.0000
  C   C4        1.0  0.4796989655603775  0.19523093315990844  0.4136452969450382  1.0000
  C   C5        1.0  0.42357495158256836  0.2236490725150677  0.5052389657172132  1.0000
  C   C6        1.0  0.345816350934954  0.17847328537071783  0.4910808896262948  1.0000
  C   C7        1.0  0.2836267913115141  0.26024083907730655  0.517025291718058  1.0000
  C   C8        1.0  0.2103166568686749  0.21742093242931954  0.5036395047416196  1.0000
  C   C9        1.0  0.14707649761928154  0.30188028704170233  0.5299478835921119  1.0000
  N   N2        1.0  0.0962443989922879  0.3697797647495235  0.5510990935539433  1.0000
  C   C10       1.0  0.19861258753492955  0.0925754476535403  0.46428396092056473  1.0000
  C   C11       1.0  0.2599447789613717  0.010794040324450192  0.43833116732937194  1.0000
  C   C12       1.0  0.3331355332838333  0.053219362675617214  0.45151437254991666  1.0000
  C   C13       1.0  0.4423587902713754  0.2955560615846422  0.610483840383224  1.0000
  C   C14       1.0  0.5155795521206498  0.33798248354558064  0.6237276275528917  1.0000
  H   H1        1.0  0.5952554912298994  0.21536916297749872  0.3553164153574837  1.0000
  H   H2        1.0  0.46678498309680916  0.14155114048344486  0.330706863321203  1.0000
  H   H3        1.0  0.29210819687598866  0.3577195909742238  0.5459084154517234  1.0000
  H   H4        1.0  0.1421530926328412  0.05853463384115232  0.4536868417343618  1.0000
  H   H5        1.0  0.2507646722787729  0.9141357225985427  0.408247368661235  1.0000
  H   H6        1.0  0.379787265910334  0.987464911837664  0.43246196169058804  1.0000
  H   H7        1.0  0.4006873310808389  0.3174953145972006  0.6835069754121956  1.0000
  H   H8        1.0  0.5290214678321252  0.3928832474798596  0.705624204516325  1.0000
  C   C15       1.0  0.9016550248026493  0.9975654057140022  0.5539621301436402  1.0000
  C   C16       1.0  0.8913523385649812  0.007610214547739246  0.41841534745426606  1.0000
  C   C17       1.0  0.88546471790035  0.8956420717472124  0.3498025728493659  1.0000
  C   C18       1.0  0.8911624033731869  0.7723670137954016  0.4183733226587499  1.0000
  C   C19       1.0  0.9014948232670296  0.7604372961176571  0.5539601618853399  1.0000
  C   C20       1.0  0.906495744979602  0.8735675596412297  0.6209020251130568  1.0000
  C   C21       1.0  0.8747693534333373  0.9088432255263195  0.20661785686724743  1.0000
  O   O1        1.0  0.8948307531999543  0.011006327142516918  0.14163900986990274  1.0000
  N   N3        1.0  0.8411946341836407  0.8086345534411512  0.1400457179036989  1.0000
  H   H9        1.0  0.9213991704510389  0.18584128517943554  0.8100727158808451  1.0000
  H   H10       1.0  0.8872285809687772  0.10293996886420853  0.3661154233894235  1.0000
  H   H11       1.0  0.8890292876980246  0.6852755584905708  0.36630697420692204  1.0000
  H   H12       1.0  0.914434279252761  0.8650724403277174  0.7253696422298176  1.0000
  H   H13       1.0  0.9222266930315121  0.5305772196023621  0.8099378894334663  1.0000
  H   H14       1.0  0.8373939406695003  0.8179003712364362  0.03861091699206521  1.0000
  H   H15       1.0  0.8155459050852706  0.7297071090088896  0.19033400716655202  1.0000
  C   C22       1.0  0.9015162224294189  0.37905654188637555  0.17250960132921045  1.0000
  C   C23       1.0  0.8312962859482835  0.4449497392719157  0.16746851979227984  1.0000
  C   C24       1.0  0.7956326929324701  0.4784157580355093  0.047792927799843454  1.0000
  C   C25       1.0  0.8314316653399337  0.44482256214852217  0.9322787006573622  1.0000
  C   C26       1.0  0.9016336687228257  0.3789461458509792  0.9354127835777448  1.0000
  C   C27       1.0  0.9362459127333463  0.34646668565001576  0.05599509225730093  1.0000
  C   C28       1.0  0.7213774532609906  0.5480954872745996  0.045000943263451054  1.0000
  O   O2        1.0  0.6902997977108611  0.5772575819391461  0.149720763200077  1.0000
  I   I1        1.0  0.6627421604677385  0.6031188579076603  0.8704103867308883  1.0000
  H   H16       1.0  0.034097164064093244  0.25464380771017936  0.3892416641802506  1.0000
  H   H17       1.0  0.8043117144554269  0.47027167245070955  0.2571763246905335  1.0000
  H   H18       1.0  0.8049862755530216  0.46963820843750037  0.8393599610862905  1.0000
  H   H19       1.0  0.9903744897188291  0.2956733829598019  0.05907402407284757  1.0000
  H   H20       1.0  0.9288110958503754  0.35344367146166994  0.6090700352435855  1.0000
  Zn  Zn1       1.0  0.8192551731872499  0.38290449917338854  0.5551709436820615  1.0000
  Zn  Zn2       1.0  0.9838875095990279  0.3750979166184285  0.5527509028282849  1.0000
  C   C29       1.0  0.9016108659559904  0.37379244638423326  0.7912077458721103  1.0000
  C   C30       1.0  0.9015336142857951  0.38421152307053474  0.3167142017014124  1.0000
  C   C31       1.0  0.9015204636968117  0.6162392003312633  0.5487843347849325  1.0000
  C   C32       1.0  0.9016239607057894  0.14176321118008195  0.559137682871949  1.0000
  O   O3        1.0  0.9640165660211205  0.38297335764062  0.3641921900340346  1.0000
  O   O4        1.0  0.9640800483724308  0.3691046164335389  0.7418926286028165  1.0000
  O   O5        1.0  0.9640062053913793  0.5648834761447157  0.5461340213412187  1.0000
  O   O6        1.0  0.9640903528073642  0.18719450989936992  0.5599507007256332  1.0000
  O   O7        1.0  0.8390522737979759  0.5708079085578661  0.5479711466037217  1.0000
  O   O8        1.0  0.8391261164372735  0.37503060945553  0.7437296846009694  1.0000
  O   O9        1.0  0.8390626339050398  0.3888993056216974  0.3660276842924833  1.0000
  O   O10       1.0  0.8391364207051532  0.19312044857593946  0.5617862923730893  1.0000
