data_image0
_chemical_formula_structural       NC9NC4H8C6SCNH4C6OCH7Zn2C4O8
_chemical_formula_sum              "N3 C31 H19 S1 O9 Zn2"
_cell_length_a       16.32274767691083
_cell_length_b       10.302215558581764
_cell_length_c       9.273891588657152
_cell_angle_alpha    86.08259887656699
_cell_angle_beta     89.15205086511824
_cell_angle_gamma    89.54366289277024

_space_group_name_H-M_alt    "P 1"
_space_group_IT_number       1

loop_
  _space_group_symop_operation_xyz
  'x, y, z'

loop_
  _atom_site_type_symbol
  _atom_site_label
  _atom_site_symmetry_multiplicity
  _atom_site_fract_x
  _atom_site_fract_y
  _atom_site_fract_z
  _atom_site_occupancy
  N   N1        1.0  0.7768573663732099  0.39855908471315926  0.3983821796353637  1.0000
  C   C1        1.0  0.7247114417581475  0.35063911961220073  0.33811473441712564  1.0000
  C   C2        1.0  0.6598933165889143  0.2911221497761647  0.26326208554051833  1.0000
  C   C3        1.0  0.6717682218971992  0.2097135168289912  0.1608722180443498  1.0000
  C   C4        1.0  0.59255980835036  0.1699857044293931  0.11090936601575319  1.0000
  C   C5        1.0  0.5333967033515071  0.22812650999789555  0.18403716794981495  1.0000
  C   C6        1.0  0.4435200127001742  0.2127604496865203  0.1647140635078821  1.0000
  C   C7        1.0  0.3876559468525527  0.2805272463974955  0.24994103320476602  1.0000
  C   C8        1.0  0.3029993913952598  0.26739467038692455  0.23342628365016663  1.0000
  C   C9        1.0  0.2467151595707034  0.33724473609775374  0.3212724351806153  1.0000
  N   N2        1.0  0.2014816254393758  0.3933926913753769  0.3918858626039463  1.0000
  C   C10       1.0  0.273154294936816  0.18638570362238377  0.13154742236523465  1.0000
  C   C11       1.0  0.3276960860197203  0.11870867208156888  0.046433720824101465  1.0000
  C   C12       1.0  0.41219524552531567  0.13148751577365214  0.06250346553485087  1.0000
  C   C13       1.0  0.5708152689908094  0.3129021691520286  0.2906589599591656  1.0000
  H   H1        1.0  0.7308010405053273  0.1780575178664796  0.12105512081821446  1.0000
  H   H2        1.0  0.5845278863639598  0.1034505285077547  0.02722604988404309  1.0000
  H   H3        1.0  0.4095180631255077  0.3437684026145853  0.3294747778399585  1.0000
  H   H4        1.0  0.20780535579940762  0.1755671836502246  0.11794294352234448  1.0000
  H   H5        1.0  0.3044356534924015  0.05604068532852137  0.9676210917489079  1.0000
  H   H6        1.0  0.45219078949168967  0.0773502504744481  0.9944184207609413  1.0000
  H   H7        1.0  0.5536752112750537  0.2790877208579232  0.40331562286012745  1.0000
  H   H8        1.0  0.5541355857694749  0.4167382335243599  0.26607045983599154  1.0000
  C   C14       1.0  0.9890921654718168  0.014704273896096298  0.3950955239723033  1.0000
  C   C15       1.0  0.07106424987245807  0.01000567305518051  0.4391964011422574  1.0000
  C   C16       1.0  0.11185563872563042  0.8906304785550043  0.46159872418119163  1.0000
  C   C17       1.0  0.07127682901810917  0.7748288745916652  0.439315196034717  1.0000
  C   C18       1.0  0.9892546091946067  0.7772374494975528  0.3951848315797599  1.0000
  C   C19       1.0  0.9486033297611004  0.897690373960617  0.37337328775750644  1.0000
  S   S1        1.0  0.21658547096545383  0.8861457334458565  0.5173003195011632  1.0000
  C   C20       1.0  0.18896850258049902  0.8751572272268293  0.7024272702918386  1.0000
  N   N3        1.0  0.17083820598404098  0.8679540185865877  0.823794204532396  1.0000
  H   H9        1.0  0.10353828397151155  0.09872992624279717  0.45658492954823093  1.0000
  H   H10       1.0  0.10389657701832289  0.6832702857035388  0.4567852261486389  1.0000
  H   H11       1.0  0.885383049478258  0.9004646283404983  0.33938114986320445  1.0000
  H   H12       1.0  0.8346783567699805  0.5745685461615925  0.3118555000787671  1.0000
  C   C21       1.0  0.9905149364040118  0.3925159393842039  0.9718439262373435  1.0000
  C   C22       1.0  0.05762583673564922  0.4465390827913809  0.03939750509194395  1.0000
  C   C23       1.0  0.120091236280647  0.5103138681208452  0.9586398767840603  1.0000
  C   C24       1.0  0.11566912489046821  0.5203881289442176  0.8072681243292288  1.0000
  C   C25       1.0  0.05027942887648607  0.46555788815355714  0.7383459203098061  1.0000
  C   C26       1.0  0.9878318466463956  0.3994257659110554  0.8184364435488747  1.0000
  O   O1        1.0  0.1849641894766859  0.5627656645695103  0.03286040908275777  1.0000
  C   C27       1.0  0.25245007281612947  0.6302746410231421  0.9647598043537241  1.0000
  H   H13       1.0  0.795609268671582  0.3151429740383975  0.08583341185898008  1.0000
  H   H14       1.0  0.1628784806721082  0.5693926730765009  0.7416297060814294  1.0000
  H   H15       1.0  0.049619737230398586  0.47225747444471794  0.621275642581268  1.0000
  H   H16       1.0  0.8578544264122612  0.3421717029691955  0.5449752266128924  1.0000
  H   H17       1.0  0.23047499233234436  0.7184030517487059  0.9007110023829634  1.0000
  H   H18       1.0  0.28659978128976005  0.5654217902308932  0.8938169223780946  1.0000
  H   H19       1.0  0.29439841541718925  0.6607983858920845  0.048965321564348185  1.0000
  Zn  Zn1       1.0  0.8993947342329635  0.39706475845269784  0.3965158069908292  1.0000
  Zn  Zn2       1.0  0.07894422405674484  0.3948764597678688  0.393764042842018  1.0000
  C   C28       1.0  0.9883360917934794  0.39294736300008704  0.6584117701915292  1.0000
  C   C29       1.0  0.9900048270717343  0.39899547068050395  0.13186819126408222  1.0000
  C   C30       1.0  0.9892379128032601  0.63305563924191  0.38942391968991963  1.0000
  C   C31       1.0  0.989102944218339  0.1588856359082451  0.40085611937256793  1.0000
  O   O2        1.0  0.057971724171137475  0.4003339483327473  0.1845295156295601  1.0000
  O   O3        1.0  0.056643104084312  0.3899470344205734  0.6036615054474976  1.0000
  O   O4        1.0  0.05737041267045817  0.5838375274977907  0.3864519272695568  1.0000
  O   O5        1.0  0.05724435466142541  0.20644346440795314  0.401738986667628  1.0000
  O   O6        1.0  0.9210945423568785  0.5854977545607241  0.38854086409667943  1.0000
  O   O7        1.0  0.9203672343429425  0.3916088207620529  0.6057503655992038  1.0000
  O   O8        1.0  0.9216958599671373  0.40199567528394264  0.1866166427154572  1.0000
  O   O9        1.0  0.9209684901095869  0.20810518295483613  0.4038262218248585  1.0000
