data_image0
_chemical_formula_structural       NC9NC5H8C7ONH7C6OCH7Zn2C4O8
_chemical_formula_sum              "N3 C32 H22 O10 Zn2"
_cell_length_a       17.807436237873137
_cell_length_b       10.297852080636378
_cell_length_c       9.273891588657152
_cell_angle_alpha    86.07585780887825
_cell_angle_beta     89.08663702953788
_cell_angle_gamma    88.36921327777658

_space_group_name_H-M_alt    "P 1"
_space_group_IT_number       1

loop_
  _space_group_symop_operation_xyz
  'x, y, z'

loop_
  _atom_site_type_symbol
  _atom_site_label
  _atom_site_symmetry_multiplicity
  _atom_site_fract_x
  _atom_site_fract_y
  _atom_site_fract_z
  _atom_site_occupancy
  N   N1        1.0  0.711779845181465  0.3747876586417713  0.398499816021416  1.0000
  C   C1        1.0  0.6512353175750263  0.3394902829476385  0.38626402831103346  1.0000
  C   C2        1.0  0.5759245796846637  0.2955842345781543  0.37104403694688953  1.0000
  C   C3        1.0  0.5581873216396325  0.22319319146407013  0.2544975277607022  1.0000
  C   C4        1.0  0.48506477065951487  0.18045152567914483  0.23962818491275598  1.0000
  C   C5        1.0  0.4286309433883734  0.20972300518000742  0.341269332782437  1.0000
  C   C6        1.0  0.3509202320789608  0.16441531312480226  0.32555816928393555  1.0000
  C   C7        1.0  0.2886429161644657  0.24642458004320922  0.3543485741748955  1.0000
  C   C8        1.0  0.2153780588112182  0.20347996358108444  0.3394944169862759  1.0000
  C   C9        1.0  0.1520489121284884  0.2881844224254786  0.3686887255099976  1.0000
  N   N2        1.0  0.10114527006291339  0.3562809571660898  0.3921601432201082  1.0000
  C   C10       1.0  0.20380710861993684  0.0782678195596531  0.29582171883333597  1.0000
  C   C11       1.0  0.2652270847214709  0.9962446208386314  0.26702200192719205  1.0000
  C   C12       1.0  0.3383732471820626  0.03879276563391021  0.28165135490737114  1.0000
  C   C13       1.0  0.44705879392140824  0.2826105170071689  0.45805917220967607  1.0000
  C   C14       1.0  0.5202347589918854  0.3251603258290612  0.47275575274970305  1.0000
  H   H1        1.0  0.6008185923118623  0.20004632954841495  0.17490084558911523  1.0000
  H   H2        1.0  0.472431325372907  0.12599903008574675  0.1475917187569109  1.0000
  H   H3        1.0  0.2970266252854459  0.34417242400015313  0.3864000673589263  1.0000
  H   H4        1.0  0.1473834582084002  0.04412827679196018  0.2840621357460312  1.0000
  H   H5        1.0  0.2561487357352966  0.8993060248633329  0.23363812430879996  1.0000
  H   H6        1.0  0.38508942411168356  0.9728608114021453  0.2605089666245775  1.0000
  H   H7        1.0  0.40514033580336917  0.30523009622044284  0.5390926690100819  1.0000
  H   H8        1.0  0.533399661580491  0.380824086134764  0.563636074509342  1.0000
  C   C15       1.0  0.9065462117236311  0.9840932718525993  0.3953372440969545  1.0000
  C   C16       1.0  0.8967020090875975  0.9928752476451416  0.24492149192462145  1.0000
  C   C17       1.0  0.8910464694166632  0.8802678681390288  0.16878215540877345  1.0000
  C   C18       1.0  0.8965122160436231  0.757631655365249  0.2448748571679569  1.0000
  C   C19       1.0  0.9063860168455962  0.7469651439188097  0.395335059928162  1.0000
  C   C20       1.0  0.9111605093804055  0.8607190769610962  0.46962019240739866  1.0000
  C   C21       1.0  0.8808354236695788  0.8921350294267705  0.009890617544772834  1.0000
  O   O1        1.0  0.9011166127606659  0.9936927501306442  0.9377838367531203  1.0000
  N   N3        1.0  0.8474858830145705  0.7913061323902003  0.93601576668335  1.0000
  H   H9        1.0  0.9254240697225784  0.1747552272060147  0.679542192592411  1.0000
  H   H10       1.0  0.8927551546762181  0.08771774530490027  0.18688446396507996  1.0000
  H   H11       1.0  0.894555213489617  0.6700551195306208  0.18709702718289717  1.0000
  H   H12       1.0  0.9187456845520091  0.8531972390196122  0.5855475120714798  1.0000
  H   H13       1.0  0.926252048350137  0.5194899055069653  0.6793925761936093  1.0000
  H   H14       1.0  0.8440282901770401  0.7996269243016045  0.8234539516933268  1.0000
  H   H15       1.0  0.8216670550357711  0.7128472030492325  0.9918204911102384  1.0000
  C   C22       1.0  0.9076976629867722  0.36203057334533933  0.9720408153565714  1.0000
  C   C23       1.0  0.969213747732997  0.413970045682509  0.03961257488154546  1.0000
  C   C24       1.0  0.02646614225881017  0.47581147643037797  0.9588702492219979  1.0000
  C   C25       1.0  0.022407160302197356  0.4860291822839171  0.8074956621208573  1.0000
  C   C26       1.0  0.9624696776548907  0.43322818381303435  0.7385560069261707  1.0000
  C   C27       1.0  0.9052345765982679  0.36902779374558925  0.818631517049  1.0000
  O   O2        1.0  0.08593075686745522  0.5262491897494386  0.03310832829067035  1.0000
  C   C28       1.0  0.1477852184752626  0.5916687962556706  0.9650244231626136  1.0000
  H   H16       1.0  0.7290084012267487  0.2907449243841673  0.0859679538655187  1.0000
  H   H17       1.0  0.06567636662639798  0.5335729218970364  0.7418687124195769  1.0000
  H   H18       1.0  0.9618620508991653  0.4399515120710229  0.6214846824923966  1.0000
  H   H19       1.0  0.7860737404791405  0.3158306507419668  0.54512940145481  1.0000
  H   H20       1.0  0.12759922767323428  0.6805271985007451  0.9009569652485157  1.0000
  H   H21       1.0  0.1791254153677599  0.525714028893326  0.894101877684197  1.0000
  H   H22       1.0  0.18623778054290185  0.620888659126454  0.049241693801503464  1.0000
  Zn  Zn1       1.0  0.8241422713266776  0.3694436273253414  0.39667865990934204  1.0000
  Zn  Zn2       1.0  0.9887827934661043  0.3616144982555136  0.3939931497254319  1.0000
  C   C29       1.0  0.9056995755166617  0.36253063132550656  0.6586078067127024  1.0000
  C   C30       1.0  0.9072272863897843  0.36852904885986293  0.13206411507149565  1.0000
  C   C31       1.0  0.9064291643810677  0.6027188271023909  0.38959146416753154  1.0000
  C   C32       1.0  0.9064976414491387  0.1283392957924938  0.4010805353879046  1.0000
  O   O3        1.0  0.9695496450172743  0.36773321611543364  0.18475025918342358  1.0000
  O   O4        1.0  0.9683355650836081  0.35738335292253254  0.6038830075669599  1.0000
  O   O5        1.0  0.9689238706945593  0.5513384110469552  0.38665042136135785  1.0000
  O   O6        1.0  0.9689612835381617  0.17377816906123456  0.4019827382256636  1.0000
  O   O7        1.0  0.8439637250709123  0.5572799591926691  0.3886890723179612  1.0000
  O   O8        1.0  0.8433754193524925  0.3633264610317794  0.6059215816611758  1.0000
  O   O9        1.0  0.8445895043877814  0.3736762646336873  0.18678710022099537  1.0000
  O   O10       1.0  0.8440011425931213  0.17972120918231327  0.4040196873354487  1.0000
