data_image0
_chemical_formula_structural       NC8NC6H8C8H4C8NH6Zn2C4O8
_chemical_formula_sum              "N3 C34 H18 Zn2 O8"
_cell_length_a       17.457602349358154
_cell_length_b       9.27514070457351
_cell_length_c       9.274266800404105
_cell_angle_alpha    86.12813201358244
_cell_angle_beta     92.41618932719734
_cell_angle_gamma    92.27341969939751

_space_group_name_H-M_alt    "P 1"
_space_group_IT_number       1

loop_
  _space_group_symop_operation_xyz
  'x, y, z'

loop_
  _atom_site_type_symbol
  _atom_site_label
  _atom_site_symmetry_multiplicity
  _atom_site_fract_x
  _atom_site_fract_y
  _atom_site_fract_z
  _atom_site_occupancy
  N   N1        1.0  0.7375783858350478  0.602518436380826  0.4806638807472021  1.0000
  C   C1        1.0  0.6762689649756136  0.5514271230239935  0.4687372888979022  1.0000
  C   C2        1.0  0.5999974535364612  0.48787595248861565  0.4539112145880615  1.0000
  C   C3        1.0  0.5413706857147096  0.5330830947319185  0.5371453957475223  1.0000
  C   C4        1.0  0.46654736252319146  0.47188947217975846  0.5230078976537571  1.0000
  C   C5        1.0  0.4043231241796222  0.5196234742173502  0.6111556412225934  1.0000
  C   C6        1.0  0.3301445583577678  0.5396867411683681  0.5493407917627116  1.0000
  C   C7        1.0  0.2715161713178956  0.5846904779821902  0.6326941653836868  1.0000
  C   C8        1.0  0.1959132945003992  0.6054088128488588  0.5684230268057213  1.0000
  N   N2        1.0  0.1351414584418963  0.6220592698068368  0.5167491784887774  1.0000
  C   C9        1.0  0.2865733409202479  0.609905076541302  0.7784274118125776  1.0000
  C   C10       1.0  0.35996779975809134  0.5902769463536534  0.84067358317228  1.0000
  C   C11       1.0  0.41858358330176965  0.5454768633023264  0.7578286675235546  1.0000
  C   C12       1.0  0.4516418852692748  0.3647248243894905  0.4240440995052701  1.0000
  C   C13       1.0  0.510256802333747  0.3198304086126602  0.34125465038196867  1.0000
  C   C14       1.0  0.5842935259915913  0.3811532603226637  0.3560027240561119  1.0000
  H   H1        1.0  0.5538681360098907  0.6171319313615897  0.6113192692072871  1.0000
  H   H2        1.0  0.3181756180394086  0.522240062586343  0.43608814538985435  1.0000
  H   H3        1.0  0.2416312115233102  0.6446774491315402  0.8438098422289457  1.0000
  H   H4        1.0  0.3714342398068364  0.6094506100763897  0.9535170716353223  1.0000
  H   H5        1.0  0.4747665436714925  0.5291971668089266  0.8089393901074211  1.0000
  H   H6        1.0  0.3949295045317749  0.31428812439578135  0.4120793278108519  1.0000
  H   H7        1.0  0.49828546110059596  0.23701191491641183  0.2657547286668622  1.0000
  H   H8        1.0  0.6292280531771108  0.34541908340764227  0.2911846341209001  1.0000
  C   C15       1.0  0.934037405365611  0.18872638659435784  0.4974876110267021  1.0000
  C   C16       1.0  0.9455342878821342  0.2717481338734251  0.3670359673751966  1.0000
  C   C17       1.0  0.9636997791827109  0.2063798784205402  0.24235613998063868  1.0000
  C   C18       1.0  0.9708004883906184  0.05681950503935052  0.24574106375541915  1.0000
  C   C19       1.0  0.9583308744077828  0.9721514066076614  0.37374190114018857  1.0000
  C   C20       1.0  0.9386896381080514  0.03584063947865923  0.49993857741138487  1.0000
  C   C21       1.0  0.9900292150542692  0.9897224235742604  0.11712845669297733  1.0000
  C   C22       1.0  0.006129088407362816  0.933530160819803  0.009452241241623806  1.0000
  H   H9        1.0  0.9451226940942231  0.2684303786246769  0.8526931705399652  1.0000
  H   H10       1.0  0.9729580975019594  0.2728292133517891  0.1435426372084514  1.0000
  H   H11       1.0  0.9432082894947974  0.7393245151117257  0.7389939387133642  1.0000
  H   H12       1.0  0.02026132385387402  0.8842034567992905  0.9149351298279087  1.0000
  C   C23       1.0  0.9381105729279727  0.6092165790051395  0.07555337105402637  1.0000
  C   C24       1.0  0.892964582381178  0.503771294080307  0.1523578492096418  1.0000
  C   C25       1.0  0.843238182532372  0.4093154888414787  0.07972694141264847  1.0000
  C   C26       1.0  0.837009374044798  0.4188102203064823  0.9284871907799581  1.0000
  C   C27       1.0  0.8831895500013665  0.5208589350123802  0.8504620725387126  1.0000
  C   C28       1.0  0.9346164673177365  0.6153504421502517  0.921872743868732  1.0000
  C   C29       1.0  0.7842056261631912  0.3155000937252648  0.8503713395131789  1.0000
  C   C30       1.0  0.8250222382598726  0.18567679834420092  0.822545231631767  1.0000
  N   N3        1.0  0.8572415997821679  0.08321652475428774  0.8005817071683285  1.0000
  H   H13       1.0  0.024359706954015785  0.9308164844163725  0.16357738076842132  1.0000
  H   H14       1.0  0.8948821056527093  0.496397454896325  0.2695280292477029  1.0000
  H   H15       1.0  0.8089548669940023  0.3294571927218277  0.14167188972628653  1.0000
  H   H16       1.0  0.8802201620491407  0.5240031335975093  0.7333094378905898  1.0000
  H   H17       1.0  0.7626145677705045  0.36723825961576173  0.7457690415815361  1.0000
  H   H18       1.0  0.7337302431444426  0.2833913625899458  0.9158804748724219  1.0000
  Zn  Zn1       1.0  0.8523064451936102  0.6081536910838774  0.49108562715713505  1.0000
  Zn  Zn2       1.0  0.02041327117977798  0.6164122747400758  0.5063391955139531  1.0000
  C   C31       1.0  0.9352436768604259  0.6084448476791224  0.761883511387742  1.0000
  C   C32       1.0  0.9374778846451001  0.6161230292659601  0.2355416245516937  1.0000
  C   C33       1.0  0.9378300413021511  0.8756762007074037  0.4937326339138717  1.0000
  C   C34       1.0  0.9348914530060324  0.3488899410456441  0.5036925686326168  1.0000
  O   O1        1.0  0.0010611784852128131  0.6215686939366007  0.295023775426867  1.0000
  O   O2        1.0  0.9992495699534099  0.6092661657897998  0.7139780479911684  1.0000
  O   O3        1.0  0.0013372257670138912  0.8250588315724727  0.4974442435233757  1.0000
  O   O4        1.0  0.9989734658108728  0.4057760348708248  0.5115574666744205  1.0000
  O   O5        1.0  0.873746193195946  0.8187899281363944  0.4858673507837983  1.0000
  O   O6        1.0  0.8716585472131145  0.602998994729021  0.7024010834316692  1.0000
  O   O7        1.0  0.8734701626726386  0.6153014600587097  0.2834450782260214  1.0000
  O   O8        1.0  0.8713824494924647  0.3995087914593028  0.4999788774809457  1.0000
