data_image0
_chemical_formula_structural       NC12NC2H8C6NCH9C6SCH8Zn2C4O8
_chemical_formula_sum              "N3 C32 H25 S1 Zn2 O8"
_cell_length_a       19.240039667572717
_cell_length_b       9.273386996610926
_cell_length_c       10.302812801239593
_cell_angle_alpha    85.46621381537472
_cell_angle_beta     89.99986115562673
_cell_angle_gamma    89.39858615406628

_space_group_name_H-M_alt    "P 1"
_space_group_IT_number       1

loop_
  _space_group_symop_operation_xyz
  'x, y, z'

loop_
  _atom_site_type_symbol
  _atom_site_label
  _atom_site_symmetry_multiplicity
  _atom_site_fract_x
  _atom_site_fract_y
  _atom_site_fract_z
  _atom_site_occupancy
  N   N1        1.0  0.646491262124399  0.5788742624540617  0.5656018256808402  1.0000
  C   C1        1.0  0.5863428928352403  0.5788743557476865  0.5656017436338039  1.0000
  C   C2        1.0  0.5115248550350951  0.5788744860390032  0.565601606182604  1.0000
  C   C3        1.0  0.47541331176192997  0.5072604226723068  0.6690852681502073  1.0000
  C   C4        1.0  0.4027431867133836  0.5071372463883426  0.6691719625139092  1.0000
  C   C5        1.0  0.36519261957782434  0.5788745888698688  0.5656013784230818  1.0000
  C   C6        1.0  0.4020177297783644  0.650612139068  0.4620309885086855  1.0000
  C   C7        1.0  0.4746890426169094  0.6504887011719664  0.4621178057153821  1.0000
  C   C8        1.0  0.28798752958039536  0.5788745014880748  0.5656012831650115  1.0000
  C   C9        1.0  0.2514362007623813  0.4530553341432792  0.6076419100013162  1.0000
  C   C10       1.0  0.17876491170591718  0.45317408805783876  0.6075504406026841  1.0000
  C   C11       1.0  0.14165524338308189  0.5788743579923306  0.5656013442648964  1.0000
  C   C12       1.0  0.0668372068670633  0.5788742316353424  0.5656015930309255  1.0000
  N   N2        1.0  0.006688890244137098  0.5788741862831193  0.5656018014503256  1.0000
  C   C13       1.0  0.17749308549076917  0.7045747121625023  0.523652194930478  1.0000
  C   C14       1.0  0.250163180024231  0.70469366617094  0.5235605626974735  1.0000
  H   H1        1.0  0.5034085772401738  0.45181524955321944  0.7498816888613424  1.0000
  H   H2        1.0  0.37592579280509814  0.45257863433337725  0.7510822465549412  1.0000
  H   H3        1.0  0.37464859274654816  0.705170781175436  0.3801206535915738  1.0000
  H   H4        1.0  0.5021235491648878  0.7059337629087175  0.3813216608745078  1.0000
  H   H5        1.0  0.2790304952906864  0.35401438568571364  0.6389438154537903  1.0000
  H   H6        1.0  0.1515460343579271  0.35513200559170754  0.6398835319927014  1.0000
  H   H7        1.0  0.14928213952885  0.8026167673710598  0.49131911812596396  1.0000
  H   H8        1.0  0.2767553638682142  0.8037347025844306  0.49225861235961377  1.0000
  C   C15       1.0  0.828730703981575  0.15522024988097602  0.5662397699103654  1.0000
  C   C16       1.0  0.8409344942749439  0.23869585514317793  0.4488524187615186  1.0000
  C   C17       1.0  0.8465941755598664  0.17419297270387865  0.3314578122842911  1.0000
  C   C18       1.0  0.840135681962212  0.02389230920626417  0.3284490495895241  1.0000
  C   C19       1.0  0.8291567203791366  0.9394537894218605  0.44542862319126997  1.0000
  C   C20       1.0  0.8244561634262163  0.0025171070228984203  0.5649750919691547  1.0000
  N   N3        1.0  0.8452078140663313  0.9543530023471714  0.20863071545517212  1.0000
  C   C21       1.0  0.8567861977509587  0.03224950590759668  0.08193833097263337  1.0000
  H   H9        1.0  0.8429303373026701  0.41736495401929496  0.7793870987272918  1.0000
  H   H10       1.0  0.8444794939975502  0.35534174811536845  0.4472596143099399  1.0000
  H   H11       1.0  0.85535919640807  0.24279509567156096  0.24327061408061026  1.0000
  H   H12       1.0  0.825876132460657  0.8230527204268938  0.443380525666486  1.0000
  H   H13       1.0  0.8500467199443716  0.8711551323682564  0.8811873245707433  1.0000
  H   H14       1.0  0.8402940442134368  0.8419858802524958  0.21132290223581054  1.0000
  H   H15       1.0  0.8136993089894322  0.11082307489671472  0.05938107693902239  1.0000
  H   H16       1.0  0.9070926064304223  0.08980124742468187  0.08214782153458433  1.0000
  H   H17       1.0  0.8585383036088656  0.9548129166111419  0.005078927450787865  1.0000
  C   C22       1.0  0.8265934616621595  0.5788686957084741  0.18435895779989275  1.0000
  C   C23       1.0  0.8024281494302683  0.7227387647082395  0.17294693618409274  1.0000
  C   C24       1.0  0.7902261423502855  0.7941111828467362  0.05029340693200935  1.0000
  C   C25       1.0  0.802428087535809  0.7227386132654756  0.9377957667209049  1.0000
  C   C26       1.0  0.8265934166292228  0.5788686859861558  0.9468558614439516  1.0000
  C   C27       1.0  0.8385366362847143  0.5076241095154643  0.0706763517497584  1.0000
  S   S1        1.0  0.7594935873060352  0.9780332885074329  0.03720755690576815  1.0000
  C   C28       1.0  0.6683249835283694  0.9276280992682452  0.0407949453965295  1.0000
  H   H18       1.0  0.8356744660809365  0.5246325455527787  0.5159739886647878  1.0000
  H   H19       1.0  0.7928287362838865  0.7798843666208828  0.25898069130558055  1.0000
  H   H20       1.0  0.7928285981811027  0.7798841588015768  0.8436303786337067  1.0000
  H   H21       1.0  0.8571638575456034  0.39664118432911777  0.07857254522552992  1.0000
  H   H22       1.0  0.8356731757322305  0.5246317965555287  0.6229584042689371  1.0000
  H   H23       1.0  0.6563242204396552  0.8634484506117717  0.9572444221513084  1.0000
  H   H24       1.0  0.6563245107604957  0.8634499086145178  0.1334791120084824  1.0000
  H   H25       1.0  0.6356551827698326  0.027206124341435878  0.033709812535387185  1.0000
  Zn  Zn1       1.0  0.7504365455049368  0.5788703888372293  0.5656093104981599  1.0000
  Zn  Zn2       1.0  0.9027436850027293  0.5788662918454941  0.5656049297505833  1.0000
  C   C29       1.0  0.8266208710465391  0.5731213610427148  0.8027362116672455  1.0000
  C   C30       1.0  0.826561013467095  0.584617139900186  0.3284781532428027  1.0000
  C   C31       1.0  0.8252605770313598  0.8423599794914948  0.5600405849804468  1.0000
  C   C32       1.0  0.8279212642548328  0.31537678814844616  0.5711738517350455  1.0000
  O   O1        1.0  0.8843499209927925  0.5865385215543808  0.3768442187022265  1.0000
  O   O2        1.0  0.8844295637429916  0.5711957815153375  0.7543664492183277  1.0000
  O   O3        1.0  0.8833303299539068  0.7886093709207159  0.5583880113402568  1.0000
  O   O4        1.0  0.8854491027577084  0.36912494247069705  0.5728225592224756  1.0000
  O   O5        1.0  0.7677310757749978  0.7886117382149948  0.5583916810209316  1.0000
  O   O6        1.0  0.7688303008165646  0.5711998821155442  0.7543700470882219  1.0000
  O   O7        1.0  0.7687506583663025  0.586542571880806  0.37684625573963865  1.0000
  O   O8        1.0  0.7698498401804278  0.3691289824783963  0.5728246936123735  1.0000
