data_image0
_chemical_formula_structural       NC6NC3H6C6ClH5C9H9Zn2C4O8
_chemical_formula_sum              "N2 C28 H20 Cl1 Zn2 O8"
_cell_length_a       14.934028789175542
_cell_length_b       9.276545438789551
_cell_length_c       9.273585224739813
_cell_angle_alpha    86.17382153224601
_cell_angle_beta     90.07756044377105
_cell_angle_gamma    89.37211250715544

_space_group_name_H-M_alt    "P 1"
_space_group_IT_number       1

loop_
  _space_group_symop_operation_xyz
  'x, y, z'

loop_
  _atom_site_type_symbol
  _atom_site_label
  _atom_site_symmetry_multiplicity
  _atom_site_fract_x
  _atom_site_fract_y
  _atom_site_fract_z
  _atom_site_occupancy
  N   N1        1.0  0.8314360444630013  0.5611188717546338  0.4105699503512297  1.0000
  C   C1        1.0  0.7539562926526374  0.5600139782266471  0.40989054603435643  1.0000
  C   C2        1.0  0.6575676052402513  0.5586344125087133  0.409042435937639  1.0000
  C   C3        1.0  0.6091935933171361  0.6660748286047775  0.4749868244978281  1.0000
  C   C4        1.0  0.5156881718961325  0.6649671436636957  0.4743068247202509  1.0000
  C   C5        1.0  0.46964390152226937  0.5564738744734279  0.4077162901354885  1.0000
  C   C6        1.0  0.372984887590815  0.5588017202273723  0.4091463516778655  1.0000
  N   N2        1.0  0.2954942559232923  0.5606491626444121  0.4102816141154182  1.0000
  C   C7        1.0  0.5180208014060489  0.4475470381019578  0.34085902053844996  1.0000
  C   C8        1.0  0.47037584292519236  0.32959231482653084  0.26846249817266266  1.0000
  C   C9        1.0  0.6121508583544307  0.44978500816015493  0.3422326857376127  1.0000
  H   H1        1.0  0.6437561046323239  0.7507279163122345  0.5269454750227043  1.0000
  H   H2        1.0  0.4791744481564594  0.7489682783954695  0.5258651786191348  1.0000
  H   H3        1.0  0.4272198791236533  0.37775899883595376  0.1798951648908029  1.0000
  H   H4        1.0  0.42811675924553405  0.2675657091687791  0.34852956546653857  1.0000
  H   H5        1.0  0.5182694761346949  0.25319126760610944  0.22156292399773236  1.0000
  H   H6        1.0  0.6501512827722703  0.36690134181169  0.29136049691862964  1.0000
  C   C10       1.0  0.06617169104164433  0.13744371776878572  0.4101864958059096  1.0000
  C   C11       1.0  0.06636349752319944  0.2197471653640617  0.27715301637086176  1.0000
  C   C12       1.0  0.058411914563786  0.15335733153225317  0.14702009172318875  1.0000
  C   C13       1.0  0.05008142711299057  0.0037836722720341305  0.14791862363936814  1.0000
  C   C14       1.0  0.051268422477253495  0.9199156743334151  0.27850941733049783  1.0000
  C   C15       1.0  0.060767318535582364  0.9843133565846854  0.41067751651304896  1.0000
  Cl  Cl1       1.0  0.057536132345367565  0.258312516513789  0.9824733539085887  1.0000
  H   H7        1.0  0.11221872349348788  0.4026519602913659  0.6367613544029496  1.0000
  H   H8        1.0  0.07055611818921403  0.3364345757296124  0.2742967944268144  1.0000
  H   H9        1.0  0.043538001862728465  0.9520486331890131  0.04724026602658269  1.0000
  H   H10       1.0  0.046887788523577875  0.8036327909549676  0.27586178926722815  1.0000
  H   H11       1.0  0.031007844507371596  0.6879692060416441  0.6437607310266316  1.0000
  C   C16       1.0  0.06302812206320184  0.5565907198782472  0.9871782819689833  1.0000
  C   C17       1.0  0.14314449671536678  0.5243944274506824  0.06306678289925505  1.0000
  C   C18       1.0  0.22438989616608462  0.5051750658836067  0.9907449084637108  1.0000
  C   C19       1.0  0.2247855651353623  0.5189634467237075  0.8386933768253675  1.0000
  C   C20       1.0  0.14564344427005682  0.54844765758493  0.7617989900183617  1.0000
  C   C21       1.0  0.06391086999578532  0.565166307338808  0.8336857127179012  1.0000
  C   C22       1.0  0.30759682742745453  0.4720233529657916  0.08218937339645671  1.0000
  C   C23       1.0  0.3782468580508106  0.3730156991421295  0.021850563125499704  1.0000
  C   C24       1.0  0.3957828808949586  0.5342239420107988  0.02583638833445389  1.0000
  H   H12       1.0  0.9153474581642199  0.5379093645412094  0.26854341901581624  1.0000
  H   H13       1.0  0.14276238616088666  0.517435969640422  0.18023252191382721  1.0000
  H   H14       1.0  0.285601458595077  0.5058732063335555  0.7777137602175459  1.0000
  H   H15       1.0  0.9300568925444832  0.6677567422128369  0.5451577598931125  1.0000
  H   H16       1.0  0.3017708592258366  0.4627296425819419  0.20194948733782514  1.0000
  H   H17       1.0  0.36643979761521805  0.33592244351566025  0.9122586970640028  1.0000
  H   H18       1.0  0.4158404724713356  0.30546550205026635  0.1053096239417044  1.0000
  H   H19       1.0  0.39458805460655344  0.594878411294609  0.9186529072847177  1.0000
  H   H20       1.0  0.44361701726831626  0.5609190037469396  0.11162955743292977  1.0000
  Zn  Zn1       1.0  0.9653532669262092  0.5609795441017604  0.4104950573856423  1.0000
  Zn  Zn2       1.0  0.16157715119144012  0.56077679797784  0.4103682840646773  1.0000
  C   C25       1.0  0.06377866818115142  0.5578009221905369  0.6736743564092096  1.0000
  C   C26       1.0  0.06315388123211038  0.5639572384951816  0.14718912617738897  1.0000
  C   C27       1.0  0.061778244049077065  0.8241787542726693  0.40484114736952315  1.0000
  C   C28       1.0  0.06515424954252036  0.2975776748304122  0.41602241109882343  1.0000
  O   O1        1.0  0.13766206875255693  0.5663462775713002  0.20084211374888983  1.0000
  O   O2        1.0  0.13819987501566589  0.555256911491947  0.6199247352851148  1.0000
  O   O3        1.0  0.13658350495653448  0.7703603959255143  0.4028400184638601  1.0000
  O   O4        1.0  0.13927837167524681  0.3512428024272065  0.41792672255029834  1.0000
  O   O5        1.0  0.9876519794808034  0.7705135397230735  0.40293661893570243  1.0000
  O   O6        1.0  0.9892683384  0.5554117869428228  0.6200212599108905  1.0000
  O   O7        1.0  0.9887305307100466  0.5665010852185537  0.2009369054600391  1.0000
  O   O8        1.0  0.9903468338075787  0.3513976008556665  0.41802162231697565  1.0000
