data_image0
_chemical_formula_structural       NC11NC3H8C16H10C13OH11Zn2C4O8
_chemical_formula_sum              "N2 C47 H29 O9 Zn2"
_cell_length_a       17.807433833752565
_cell_length_b       10.29914801576943
_cell_length_c       10.299153481560891
_cell_angle_alpha    85.5588276574877
_cell_angle_beta     88.54091418840825
_cell_angle_gamma    90.69784511463686

_space_group_name_H-M_alt    "P 1"
_space_group_IT_number       1

loop_
  _space_group_symop_operation_xyz
  'x, y, z'

loop_
  _atom_site_type_symbol
  _atom_site_label
  _atom_site_symmetry_multiplicity
  _atom_site_fract_x
  _atom_site_fract_y
  _atom_site_fract_z
  _atom_site_occupancy
  N   N1        1.0  0.7073648305305839  0.4380308010229656  0.5340692110892094  1.0000
  C   C1        1.0  0.6565518388261375  0.40332694840855376  0.6006455291294674  1.0000
  C   C2        1.0  0.59333535047344  0.36015821517469715  0.6834579733482897  1.0000
  C   C3        1.0  0.6050744904792607  0.2966502121178751  0.8062019502685587  1.0000
  C   C4        1.0  0.543765241385443  0.2551605109362738  0.8867297849341862  1.0000
  C   C5        1.0  0.47056257003163193  0.2768657662564311  0.8451545641322507  1.0000
  C   C6        1.0  0.4578465798777993  0.3405281552749899  0.7219503288366167  1.0000
  C   C7        1.0  0.38007540170540827  0.36356256403921633  0.6775939236493149  1.0000
  C   C8        1.0  0.36126734973074753  0.3466385514808188  0.5480211938719595  1.0000
  C   C9        1.0  0.2880347228982454  0.36830505837879546  0.5064019177388757  1.0000
  C   C10       1.0  0.2326669790582803  0.40721381394698813  0.5935349703035016  1.0000
  C   C11       1.0  0.15729749109779462  0.4295383134110834  0.5505541356550716  1.0000
  N   N2        1.0  0.0967057965202206  0.4474855524276864  0.5160006727482831  1.0000
  C   C12       1.0  0.2507834065226221  0.42434821514579024  0.7225764820224774  1.0000
  C   C13       1.0  0.3239633102989303  0.4026468745042704  0.7644512005262227  1.0000
  C   C14       1.0  0.520013143015765  0.3820132975128732  0.6414389117942019  1.0000
  H   H1        1.0  0.6615435257233998  0.2792472136994315  0.8395744918658222  1.0000
  H   H2        1.0  0.5529725496776072  0.2057408265337594  0.9814858080343337  1.0000
  H   H3        1.0  0.4239292729679248  0.24233144214833957  0.9086075443216691  1.0000
  H   H4        1.0  0.40292953548386257  0.3149673483022002  0.47931808230596906  1.0000
  H   H5        1.0  0.27457422739015835  0.3543842949529064  0.4063736413497385  1.0000
  H   H6        1.0  0.2084041777039839  0.4547960885493243  0.7907653318291674  1.0000
  H   H7        1.0  0.3368955592572023  0.4181131063430732  0.8642960866438658  1.0000
  H   H8        1.0  0.5115045435029076  0.4327955402956892  0.5469166420596014  1.0000
  C   C15       1.0  0.9019854350488977  0.06135565214685723  0.5252027835997195  1.0000
  C   C16       1.0  0.884809635193096  0.07048703064313222  0.39252487537673186  1.0000
  C   C17       1.0  0.8761563190052487  0.9579883507283068  0.32508719372194883  1.0000
  C   C18       1.0  0.8849098525210047  0.8352374966530388  0.39211563106697067  1.0000
  C   C19       1.0  0.9020923631775083  0.82415087093288  0.5248779813996032  1.0000
  C   C20       1.0  0.9105257011325255  0.9377232802260139  0.590604032851612  1.0000
  C   C21       1.0  0.8579865796035221  0.9686938580912262  0.1847299592128282  1.0000
  C   C22       1.0  0.8935158184727193  0.8885394152381562  0.09786276729458153  1.0000
  C   C23       1.0  0.8763888403428278  0.8987396092841516  0.9657651700052979  1.0000
  C   C24       1.0  0.8235566864547814  0.988989602487762  0.9187386604368797  1.0000
  C   C25       1.0  0.7878902450626221  0.06912054477676755  0.004328268925198886  1.0000
  C   C26       1.0  0.8049636631275493  0.05916032368068258  0.1364492985760739  1.0000
  C   C27       1.0  0.8059521682524274  0.9993676759946749  0.7827304492690828  1.0000
  C   C28       1.0  0.7912085741237742  0.00805921405706922  0.6688255430070011  1.0000
  C   C29       1.0  0.773943999476729  0.0182368871562959  0.5354440581810551  1.0000
  C   C30       1.0  0.7592028796303701  0.02692711510528478  0.42155754499781395  1.0000
  H   H9        1.0  0.9085533500807232  0.3853169997869264  0.576252277426738  1.0000
  H   H10       1.0  0.8791334850282871  0.1653849384806578  0.34087781498916647  1.0000
  H   H11       1.0  0.8772946817552758  0.7481399205617936  0.3410531423439278  1.0000
  H   H12       1.0  0.9237716392307459  0.9299640698490439  0.6929428667439483  1.0000
  H   H13       1.0  0.9340582462928831  0.5959076527966881  0.7756597863412769  1.0000
  H   H14       1.0  0.9352548058387912  0.8191618492695805  0.13177570787083193  1.0000
  H   H15       1.0  0.9044846735319354  0.8364747645849605  0.9002859487822872  1.0000
  H   H16       1.0  0.7467485668757395  0.1390764510149014  0.9690177051603612  1.0000
  H   H17       1.0  0.7759919295231131  0.12101378805721953  0.20116637519577352  1.0000
  H   H18       1.0  0.7462589895565697  0.034557870754282856  0.321555580864882  1.0000
  C   C31       1.0  0.901974361670976  0.4426042565018778  0.1436708752729421  1.0000
  C   C32       1.0  0.8242998675272064  0.41633576639712083  0.14795730999331025  1.0000
  C   C33       1.0  0.7850535540219954  0.4031831794616929  0.032956671782654594  1.0000
  C   C34       1.0  0.8244771585221858  0.41665739703109655  0.9126409815772311  1.0000
  C   C35       1.0  0.902103460605712  0.44290228077167365  0.9064098453933397  1.0000
  C   C36       1.0  0.9403987974948483  0.4557188585304624  0.02247935905150688  1.0000
  C   C37       1.0  0.702932459719357  0.37542399972869944  0.03846155756337444  1.0000
  C   C38       1.0  0.6554279553604582  0.4395125827591557  0.9479711663118779  1.0000
  C   C39       1.0  0.5781471640055409  0.413433502662818  0.9532295249328807  1.0000
  C   C40       1.0  0.5470700119482137  0.32195905368868827  0.04816980687774718  1.0000
  C   C41       1.0  0.5940706872473712  0.2589546065508679  0.1396016504375166  1.0000
  C   C42       1.0  0.6713550383625756  0.28500412324212454  0.1345212887080709  1.0000
  C   C43       1.0  0.463813879807097  0.29664865079187286  0.055959738158976036  1.0000
  O   O1        1.0  0.4300832472593533  0.3834248633079309  0.13699555833264143  1.0000
  H   H19       1.0  0.7940108574193521  0.40783587854183634  0.24084180341012137  1.0000
  H   H20       1.0  0.7946688318017625  0.40488034554782426  0.8238498469730757  1.0000
  H   H21       1.0  0.00027388111381010627  0.4759659587366476  0.018388935293703005  1.0000
  H   H22       1.0  0.9319513397699872  0.4530826681806184  0.5765315039620895  1.0000
  H   H23       1.0  0.6778949179159115  0.511320290678567  0.8743409664338869  1.0000
  H   H24       1.0  0.5425104043631159  0.4648527469082435  0.8833806014293856  1.0000
  H   H25       1.0  0.5709112971967997  0.1893366631781481  0.21470293974110843  1.0000
  H   H26       1.0  0.706540266030679  0.23337339711123042  0.20491446452671025  1.0000
  H   H27       1.0  0.45187617164886235  0.1945628949060945  0.09537532006869709  1.0000
  H   H28       1.0  0.44003661216293954  0.30943763340027974  0.9569267306930728  1.0000
  H   H29       1.0  0.375468468705299  0.36274339273311407  0.13883486288293123  1.0000
  Zn  Zn1       1.0  0.8197202236657117  0.44075576602311767  0.5288625072359097  1.0000
  Zn  Zn2       1.0  0.9843503889271578  0.44474997103368646  0.5212179671538624  1.0000
  C   C44       1.0  0.902076642464522  0.43767177081416514  0.7622381423008042  1.0000
  C   C45       1.0  0.9019957681359423  0.4478356486733901  0.28784237537961843  1.0000
  C   C46       1.0  0.9020674150147846  0.6799642323686714  0.5197643534337681  1.0000
  C   C47       1.0  0.9020049392018715  0.20554162534256548  0.5303162367584373  1.0000
  O   O2        1.0  0.9644792412861893  0.45110146541907015  0.3333265871299764  1.0000
  O   O3        1.0  0.964543655264363  0.43743648329676366  0.7109515280814311  1.0000
  O   O4        1.0  0.9645353620002663  0.6330906903026146  0.5151522665622117  1.0000
  O   O5        1.0  0.9644874783579858  0.25544726630326364  0.5291257538789871  1.0000
  O   O6        1.0  0.8395830780546871  0.6300584693919262  0.5209547231126597  1.0000
  O   O7        1.0  0.8395913715223953  0.43440582280077883  0.716753914721971  1.0000
  O   O8        1.0  0.8395269573235974  0.4480707590542497  0.339127412384415  1.0000
  O   O9        1.0  0.8395351944074972  0.2524165506867839  0.5349266765055092  1.0000
