data_image0
_chemical_formula_structural       NC5NC3H4C6ClH5C9H8Zn2C4O8
_chemical_formula_sum              "N2 C27 H17 Cl1 Zn2 O8"
_cell_length_a       13.859018345313864
_cell_length_b       9.276545438789551
_cell_length_c       9.273585224739813
_cell_angle_alpha    86.17382153224601
_cell_angle_beta     90.10207003139627
_cell_angle_gamma    89.40960550048821

_space_group_name_H-M_alt    "P 1"
_space_group_IT_number       1

loop_
  _space_group_symop_operation_xyz
  'x, y, z'

loop_
  _atom_site_type_symbol
  _atom_site_label
  _atom_site_symmetry_multiplicity
  _atom_site_fract_x
  _atom_site_fract_y
  _atom_site_fract_z
  _atom_site_occupancy
  N   N1        1.0  0.8959230760895228  0.5619603310366972  0.4110865253112783  1.0000
  C   C1        1.0  0.8238987247100853  0.5229423552518377  0.4623119540069114  1.0000
  C   C2        1.0  0.7343046359556474  0.4744092199974527  0.5260295735014808  1.0000
  C   C3        1.0  0.6462890968759676  0.5217233461234467  0.4639126978146109  1.0000
  C   C4        1.0  0.5590743333472427  0.4744089283155822  0.5260294477934808  1.0000
  C   C5        1.0  0.4686588457529598  0.5229422415925635  0.46231185663867125  1.0000
  N   N2        1.0  0.3959741736883216  0.5619602964430876  0.4110864562723078  1.0000
  C   C6        1.0  0.5600577071299455  0.37976639306103266  0.650281658660868  1.0000
  C   C7        1.0  0.647889163796908  0.3326344011978395  0.7121594937372119  1.0000
  C   C8        1.0  0.7349230488763024  0.379766690250428  0.6502818624695903  1.0000
  H   H1        1.0  0.6456691454238804  0.5949792502038371  0.36773814453011466  1.0000
  H   H2        1.0  0.49307737331827106  0.34252533112117955  0.6991734570056718  1.0000
  H   H3        1.0  0.6485077940636268  0.2595272217946074  0.8081389868277986  1.0000
  H   H4        1.0  0.802533631808007  0.3425258653233971  0.6991738825773373  1.0000
  C   C9        1.0  0.1488650599632546  0.1385227425135933  0.4108489130806625  1.0000
  C   C10       1.0  0.149071743152074  0.22082638422764234  0.2778155528158457  1.0000
  C   C11       1.0  0.14050342726990706  0.15442850295390076  0.1476776878138586  1.0000
  C   C12       1.0  0.13152681867572213  0.004846412779438978  0.1485710439606558  1.0000
  C   C13       1.0  0.1328058786168158  0.9209796161458071  0.27916257513735254  1.0000
  C   C14       1.0  0.14304151878746696  0.985386911805482  0.4113365760268175  1.0000
  Cl  Cl1       1.0  0.13955971848516602  0.25938280159537275  0.9831304058718212  1.0000
  H   H5        1.0  0.19848354743897545  0.40377758718089213  0.637452380906407  1.0000
  H   H6        1.0  0.15358954777335287  0.3375180377572924  0.27496193576590633  1.0000
  H   H7        1.0  0.12447587865764383  0.9531047513880032  0.04788862088828428  1.0000
  H   H8        1.0  0.12808547820461813  0.8046922993234094  0.2765122253664727  1.0000
  H   H9        1.0  0.11097386945746823  0.6890126430280712  0.6444013008451202  1.0000
  C   C15       1.0  0.14547767255345723  0.5576665631573086  0.9878387461301684  1.0000
  C   C16       1.0  0.23180795532327347  0.5255513529338955  0.06377702372493665  1.0000
  C   C17       1.0  0.31935483121199226  0.5064142162065396  0.9915056274220814  1.0000
  C   C18       1.0  0.31978118867199007  0.52020299748553  0.8394543416146516  1.0000
  C   C19       1.0  0.23450072381111361  0.5496071121413406  0.7625107834514164  1.0000
  C   C20       1.0  0.14642888732029213  0.5662430440076212  0.834346725334354  1.0000
  C   C21       1.0  0.40901537732868487  0.4733467133071718  0.08300178919606795  1.0000
  C   C22       1.0  0.4851450967261374  0.3744105612237114  0.022706874107415672  1.0000
  C   C23       1.0  0.5040412314721996  0.5356365515178039  0.026703594526362954  1.0000
  H   H10       1.0  0.2313962078826186  0.5185925084066112  0.18094252533249922  1.0000
  H   H11       1.0  0.38531402514981167  0.5071743061446283  0.7785125101954127  1.0000
  H   H12       1.0  0.002193058210379074  0.6686980112500533  0.5457356084303617  1.0000
  H   H13       1.0  0.4027375410631615  0.46404710672113897  0.20275828343714664  1.0000
  H   H14       1.0  0.47242226858382014  0.3373053561987729  0.9131076722660789  1.0000
  H   H15       1.0  0.5256545104053507  0.30689841094977455  0.10618929200561933  1.0000
  H   H16       1.0  0.5027537332324616  0.5962898115712978  0.9195193711256703  1.0000
  H   H17       1.0  0.5555854324809291  0.5623800240467154  0.11252648318926052  1.0000
  Zn  Zn1       1.0  0.040227055559275623  0.5619565350228721  0.41109483571930516  1.0000
  Zn  Zn2       1.0  0.25167026536946024  0.5619523783272999  0.41108997718162366  1.0000
  C   C24       1.0  0.14628643179744127  0.558877525063799  0.6743352868880785  1.0000
  C   C25       1.0  0.14561318573237947  0.5650332090494805  0.14784966847331305  1.0000
  C   C26       1.0  0.14413085271973936  0.8252533326060225  0.40550083497586775  1.0000
  C   C27       1.0  0.14776870465883118  0.29865566986812575  0.41668419623258984  1.0000
  O   O1        1.0  0.22590030462952493  0.5674976545340613  0.2015489483173796  1.0000
  O   O2        1.0  0.22647982369751962  0.5564088327444043  0.6206319039950585  1.0000
  O   O3        1.0  0.22473808632021927  0.7715106813220347  0.403546182915804  1.0000
  O   O4        1.0  0.22764196966321193  0.3523958151779587  0.41863456133507504  1.0000
  O   O5        1.0  0.06425527911031437  0.7715130981751246  0.4035502515599312  1.0000
  O   O6        1.0  0.06599700448365531  0.5564129812395366  0.6206358967861976  1.0000
  O   O7        1.0  0.06541748387814827  0.5675017352241272  0.20155120819300598  1.0000
  O   O8        1.0  0.06715914910023901  0.3523998866494078  0.4186369292663379  1.0000
