data_image0
_chemical_formula_structural       NC8NC6H8C12H9C9H8Zn2C4O8
_chemical_formula_sum              "N2 C39 H25 Zn2 O8"
_cell_length_a       17.457602349358154
_cell_length_b       10.299137764757564
_cell_length_c       9.272679976505533
_cell_angle_alpha    85.9999409853106
_cell_angle_beta     93.25957942520282
_cell_angle_gamma    91.70779885892506

_space_group_name_H-M_alt    "P 1"
_space_group_IT_number       1

loop_
  _space_group_symop_operation_xyz
  'x, y, z'

loop_
  _atom_site_type_symbol
  _atom_site_label
  _atom_site_symmetry_multiplicity
  _atom_site_fract_x
  _atom_site_fract_y
  _atom_site_fract_z
  _atom_site_occupancy
  N   N1        1.0  0.7170981438690698  0.44165902216071595  0.4742109929714371  1.0000
  C   C1        1.0  0.6559680535487153  0.3956428235639287  0.4624398067709483  1.0000
  C   C2        1.0  0.5799196782023235  0.3384044657923395  0.4478070451421211  1.0000
  C   C3        1.0  0.5217044746125709  0.37918527130349955  0.5309643100162396  1.0000
  C   C4        1.0  0.44709709710400813  0.3240703986275999  0.5170130688376109  1.0000
  C   C5        1.0  0.3853094765655264  0.36713088417883205  0.6050798146057551  1.0000
  C   C6        1.0  0.3105387564346818  0.385142371984266  0.5431485012570982  1.0000
  C   C7        1.0  0.2523239552755069  0.4257401245873569  0.6264257162457976  1.0000
  C   C8        1.0  0.17610615357309142  0.44433930210169476  0.5620339460544093  1.0000
  N   N2        1.0  0.11483995690185972  0.45928666185181183  0.5102631329699572  1.0000
  C   C9        1.0  0.2683898338654229  0.44857373083447594  0.7721988517972143  1.0000
  C   C10       1.0  0.3423775067923292  0.43095444745353845  0.834560438374968  1.0000
  C   C11       1.0  0.4005826058946763  0.390540526460881  0.7517914461484512  1.0000
  C   C12       1.0  0.43198759014658605  0.22748546679936665  0.4183135887823779  1.0000
  C   C13       1.0  0.4901927618264941  0.18698665207611787  0.3356004146133307  1.0000
  C   C14       1.0  0.5640176399730245  0.24221843034323687  0.3501623221561756  1.0000
  H   H1        1.0  0.5343349310615689  0.4549334308426247  0.6049280094284417  1.0000
  H   H2        1.0  0.2977744508288263  0.36933218747158786  0.4298579039647694  1.0000
  H   H3        1.0  0.2237749448736454  0.4799426625120654  0.8375232540093211  1.0000
  H   H4        1.0  0.3546268772750147  0.44831935002801804  0.9474359475648464  1.0000
  H   H5        1.0  0.4572535282940648  0.375926523414256  0.8029974641414461  1.0000
  H   H6        1.0  0.3754507437817805  0.1820586871602032  0.40650207236273694  1.0000
  H   H7        1.0  0.4780714386681788  0.11234519358972905  0.26030557967710477  1.0000
  H   H8        1.0  0.6086344919260768  0.20998393206620716  0.28540584360943  1.0000
  C   C15       1.0  0.9158994278493148  0.06907098068018902  0.4923879162505427  1.0000
  C   C16       1.0  0.9153072642634077  0.07779773747214967  0.34053103594755935  1.0000
  C   C17       1.0  0.9150823041625159  0.965093028860175  0.2633849049192951  1.0000
  C   C18       1.0  0.9154574654664485  0.8425463314125108  0.34014820567508997  1.0000
  C   C19       1.0  0.9160460443893154  0.8318650951958163  0.49209936650214825  1.0000
  C   C20       1.0  0.9162646887020978  0.9456380529069414  0.5672838633614816  1.0000
  C   C21       1.0  0.9144549446867524  0.9753699486253564  0.10273524643146015  1.0000
  C   C22       1.0  0.9604567712921073  0.8945320324850163  0.029348452974850902  1.0000
  C   C23       1.0  0.9597708583778131  0.9044517837629122  0.8781214936240329  1.0000
  C   C24       1.0  0.9132693664922862  0.9948324458302039  0.7985893154914581  1.0000
  C   C25       1.0  0.8673568023806795  0.07554649211329266  0.870122422266483  1.0000
  C   C26       1.0  0.8678497448255116  0.0661130924253881  0.021332864552721764  1.0000
  H   H9        1.0  0.9160816504068714  0.17253395718473086  0.28198726792512296  1.0000
  H   H10       1.0  0.9142290589698508  0.7552962463708651  0.2811492870826051  1.0000
  H   H11       1.0  0.9167193370149823  0.9381912825216535  0.6844143693185825  1.0000
  H   H12       1.0  0.9166689483488772  0.6043916278759704  0.7788549780026846  1.0000
  H   H13       1.0  0.9976546274507534  0.8249235658688747  0.08891467948153142  1.0000
  H   H14       1.0  0.9954870865088695  0.8421999208021337  0.8225757333429883  1.0000
  H   H15       1.0  0.9128131721419499  0.0023228742421483894  0.6815360720154744  1.0000
  H   H16       1.0  0.8311833696942528  0.14530548862435297  0.8083526462159398  1.0000
  H   H17       1.0  0.8310915480072725  0.1285096231708036  0.07448914060578526  1.0000
  C   C27       1.0  0.9144161401976983  0.44733215110655283  0.06874108169076987  1.0000
  C   C28       1.0  0.9665558319118666  0.3693036435452828  0.1537651410681533  1.0000
  C   C29       1.0  0.022476897345035555  0.30196745454257146  0.09026055539135514  1.0000
  C   C30       1.0  0.02814927712973292  0.31044761691470146  0.9399092046053147  1.0000
  C   C31       1.0  0.975088051063249  0.38667258534650956  0.8534180362954419  1.0000
  C   C32       1.0  0.9175293276890298  0.4536039457404266  0.9157462350450702  1.0000
  C   C33       1.0  0.09122546191986851  0.23500533467306384  0.8795092750382457  1.0000
  C   C34       1.0  0.07293992169771091  0.1747569290011408  0.7357754865912434  1.0000
  C   C35       1.0  0.12694259089782456  0.2934438154494017  0.7428059121557098  1.0000
  H   H18       1.0  0.7988776898106572  0.5300251421571376  0.3311845825311333  1.0000
  H   H19       1.0  0.06219521364396786  0.24370596885684923  0.15951685799466978  1.0000
  H   H20       1.0  0.7433177058619773  0.5680674464170046  0.7852042666801244  1.0000
  H   H21       1.0  0.13132524239841326  0.1783565027013123  0.9553533933408295  1.0000
  H   H22       1.0  0.0159386275761615  0.1943943559130152  0.6809183997318944  1.0000
  H   H23       1.0  0.10273132935093177  0.08257596240979946  0.724218840622779  1.0000
  H   H24       1.0  0.1027818392368427  0.3851191666240249  0.6921060938116037  1.0000
  H   H25       1.0  0.188305157073909  0.2706220233447896  0.7353552288312408  1.0000
  Zn  Zn1       1.0  0.831877869382894  0.44674255685027847  0.4846231900228544  1.0000
  Zn  Zn2       1.0  6.0258489057215845e-05  0.45419256584545287  0.4998627471560413  1.0000
  C   C36       1.0  0.9169381696177166  0.447244222820651  0.7556458851771013  1.0000
  C   C37       1.0  0.915001795635963  0.4536926210390219  0.22884035934628202  1.0000
  C   C38       1.0  0.915993262688853  0.6876380430017137  0.486406612284277  1.0000
  C   C39       1.0  0.9159466451585928  0.21329723844697443  0.4980797045173409  1.0000
  O   O1        1.0  0.97902268603782  0.45864882620590297  0.28835447410640613  1.0000
  O   O2        1.0  0.9805638193576197  0.4479414192179783  0.7076978268838372  1.0000
  O   O3        1.0  0.9797999401916766  0.6420624422002368  0.4902851306362522  1.0000
  O   O4        1.0  0.9797865074188468  0.2645278091718066  0.5057670570176263  1.0000
  O   O5        1.0  0.8521515630606817  0.6364073109829598  0.4787188749531701  1.0000
  O   O6        1.0  0.8529154422404364  0.4422878478707215  0.6961314937144214  1.0000
  O   O7        1.0  0.8513743025899516  0.4529951967620571  0.27678640705450785  1.0000
  O   O8        1.0  0.8521381243634719  0.25887417123883405  0.49419909809399415  1.0000
