data_image0
_chemical_formula_structural       NC6NC3H6C10H5C7NH4Zn2C4O8
_chemical_formula_sum              "N3 C30 H15 Zn2 O8"
_cell_length_a       14.934028789175542
_cell_length_b       9.275150299802176
_cell_length_c       9.275157849593905
_cell_angle_alpha    85.78415629139576
_cell_angle_beta     89.71635168279133
_cell_angle_gamma    89.44625895822752

_space_group_name_H-M_alt    "P 1"
_space_group_IT_number       1

loop_
  _space_group_symop_operation_xyz
  'x, y, z'

loop_
  _atom_site_type_symbol
  _atom_site_label
  _atom_site_symmetry_multiplicity
  _atom_site_fract_x
  _atom_site_fract_y
  _atom_site_fract_z
  _atom_site_occupancy
  N   N1        1.0  0.8389346451337657  0.5628121295316373  0.400992393537406  1.0000
  C   C1        1.0  0.7614566445387362  0.5617069364206406  0.4003199874702277  1.0000
  C   C2        1.0  0.6650701429379458  0.5603269965491591  0.39948061533727364  1.0000
  C   C3        1.0  0.6165263162033542  0.6677966046461458  0.4647445052500274  1.0000
  C   C4        1.0  0.5230226460367445  0.6666886188067602  0.46407152126611595  1.0000
  C   C5        1.0  0.4771498542848543  0.5581658715160411  0.3981681538080517  1.0000
  C   C6        1.0  0.3804871560536576  0.5604943491151688  0.3995834712462074  1.0000
  N   N2        1.0  0.3029935991482063  0.5623422928193957  0.40070703231739846  1.0000
  C   C7        1.0  0.5256989204967801  0.4492094395518533  0.3320007975111088  1.0000
  C   C8        1.0  0.4782403901186118  0.33122266684785506  0.2603513684233163  1.0000
  C   C9        1.0  0.6198254400208064  0.45144801764974324  0.3333602880045705  1.0000
  H   H1        1.0  0.6509550268985893  0.7524726926523617  0.5161669858544977  1.0000
  H   H2        1.0  0.48637615268111456  0.750712576770383  0.5150978345565285  1.0000
  H   H3        1.0  0.4354704145630135  0.37946128506192744  0.1714933417713027  1.0000
  H   H4        1.0  0.4356171985524091  0.2691203578870429  0.34079691329002304  1.0000
  H   H5        1.0  0.5262548040068693  0.2548008643466346  0.2139356986776162  1.0000
  H   H6        1.0  0.6579568667093086  0.3685418315460027  0.28301306201517185  1.0000
  C   C10       1.0  0.07332416962008878  0.13889251200934805  0.4032607720797594  1.0000
  C   C11       1.0  0.12072618684012369  0.2198466415520095  0.2942071729593472  1.0000
  C   C12       1.0  0.16046470122297218  0.15255355157499673  0.17961780638754865  1.0000
  C   C13       1.0  0.15320533236175038  0.003325820956502798  0.172606141963481  1.0000
  C   C14       1.0  0.1077600913682153  0.9209196323439178  0.28101087708688954  1.0000
  C   C15       1.0  0.06861267678833438  0.9862508700318128  0.3984511610292234  1.0000
  C   C16       1.0  0.20788472718796658  0.23722579427254906  0.06807146314090873  1.0000
  C   C17       1.0  0.24758725887319707  0.3081414508660709  0.9746839231871571  1.0000
  C   C18       1.0  0.2940770818369911  0.39118866753677733  0.8653311868005895  1.0000
  C   C19       1.0  0.3337719586602672  0.4620990220854588  0.7719615486089904  1.0000
  H   H7        1.0  0.12502215054109334  0.3363120956715943  0.2964307710148699  1.0000
  H   H8        1.0  0.1834756190036374  0.9502963042911015  0.08393834273010237  1.0000
  H   H9        1.0  0.10503942858567816  0.804862410786437  0.27479093483344785  1.0000
  H   H10       1.0  0.009447951318633178  0.8591372715687307  0.7408787785318713  1.0000
  H   H11       1.0  0.3686273715717184  0.5243643352020475  0.6899752944161257  1.0000
  C   C20       1.0  0.07217927954718673  0.5584922761459297  0.9776806112151082  1.0000
  C   C21       1.0  0.14909735228758242  0.6054487448659396  0.047062211994823196  1.0000
  C   C22       1.0  0.22135898595861836  0.6637549861882455  0.9668080451081358  1.0000
  C   C23       1.0  0.21754357998565998  0.6760320191357483  0.8160817393072541  1.0000
  C   C24       1.0  0.1424729809664358  0.6279053639976684  0.7453640959545393  1.0000
  C   C25       1.0  0.0697576196681351  0.566651095641036  0.8240313472123955  1.0000
  C   C26       1.0  0.29914352085567364  0.7127198343307287  0.039485293688407364  1.0000
  N   N3        1.0  0.36166237368115284  0.7520743681920454  0.0979055734288572  1.0000
  H   H12       1.0  0.8545793674657904  0.5100665364938055  0.0859283188845461  1.0000
  H   H13       1.0  0.27304885471439744  0.7216130252946484  0.7529656144742725  1.0000
  H   H14       1.0  0.14223271265630744  0.6354909339606963  0.6282567233696179  1.0000
  H   H15       1.0  0.9242208821542105  0.5279880001923825  0.5469347669785334  1.0000
  Zn  Zn1       1.0  0.9728520462546276  0.5626727587309766  0.40091838174236605  1.0000
  Zn  Zn2       1.0  0.16907626009468613  0.5624699586820638  0.40079289284469044  1.0000
  C   C27       1.0  0.0702453044850313  0.5593611980667015  0.664085535956225  1.0000
  C   C28       1.0  0.07168513409993427  0.5657833389323181  0.13762586836725732  1.0000
  C   C29       1.0  0.06951509387490515  0.82602677186431  0.3936177939383203  1.0000
  C   C30       1.0  0.0724152871708032  0.29911603251435737  0.40809369709566257  1.0000
  O   O1        1.0  0.14598539589297016  0.5681470302473184  0.1912573711298935  1.0000
  O   O2        1.0  0.1448746879161813  0.5568424937778216  0.6103583813740119  1.0000
  O   O3        1.0  0.14428402548808994  0.7721783325480944  0.39195375821730316  1.0000
  O   O4        1.0  0.14657599161480572  0.35281120082569384  0.4096618862217636  1.0000
  O   O5        1.0  0.9953522477728274  0.7723315166580501  0.39204938840052717  1.0000
  O   O6        1.0  0.9959429007784947  0.5569974105788333  0.6104539248819698  1.0000
  O   O7        1.0  0.9970536140518214  0.5683018800688086  0.1913511823585765  1.0000
  O   O8        1.0  0.9976442095182315  0.35296604136923904  0.4097558055505197  1.0000
