data_image0
_chemical_formula_structural       NC12NC2H8C13OH12C12SCH12Zn2C4O8
_chemical_formula_sum              "N2 C44 H32 O9 S1 Zn2"
_cell_length_a       17.80743265337812
_cell_length_b       10.29915010939255
_cell_length_c       10.299780138516091
_cell_angle_alpha    85.5566253413432
_cell_angle_beta     91.52646952147008
_cell_angle_gamma    89.41750150667457

_space_group_name_H-M_alt    "P 1"
_space_group_IT_number       1

loop_
  _space_group_symop_operation_xyz
  'x, y, z'

loop_
  _atom_site_type_symbol
  _atom_site_label
  _atom_site_symmetry_multiplicity
  _atom_site_fract_x
  _atom_site_fract_y
  _atom_site_fract_z
  _atom_site_occupancy
  N   N1        1.0  0.7072613272925464  0.40635386355266356  0.6009301851308781  1.0000
  C   C1        1.0  0.6564409659539783  0.43589310415898225  0.5322255115971979  1.0000
  C   C2        1.0  0.5932154214410642  0.4726377764649152  0.44676554592051687  1.0000
  C   C3        1.0  0.6049411763198069  0.5266223713859869  0.32013501379044057  1.0000
  C   C4        1.0  0.543623092716474  0.561864095670864  0.23707140209263433  1.0000
  C   C5        1.0  0.4704249496912064  0.5433844998987862  0.2799783704981458  1.0000
  C   C6        1.0  0.45772240992604385  0.48928124236257353  0.40707705685265644  1.0000
  C   C7        1.0  0.519897810206573  0.4540427669484218  0.49012415677527577  1.0000
  C   C8        1.0  0.37995606176688496  0.46968834412099647  0.4528445252016138  1.0000
  C   C9        1.0  0.3611561959993729  0.49691795334367367  0.5798714261829974  1.0000
  C   C10       1.0  0.2879280963559603  0.4784799474904089  0.6228189405139128  1.0000
  C   C11       1.0  0.23255688283308754  0.4325583092885146  0.539577557652726  1.0000
  C   C12       1.0  0.1571921851472544  0.41356788272347633  0.5839261027623381  1.0000
  N   N2        1.0  0.0966043052341725  0.39830085693960315  0.6195792821569601  1.0000
  C   C13       1.0  0.2506652498027742  0.40515994840720193  0.4130936505385869  1.0000
  C   C14       1.0  0.32384050917159973  0.4236126583943423  0.3698902602088041  1.0000
  H   H1        1.0  0.6614064210204985  0.5414362792759004  0.2856950476252684  1.0000
  H   H2        1.0  0.5528199420664351  0.6039331656908695  0.13928389407371866  1.0000
  H   H3        1.0  0.4237845121153916  0.5730013592090245  0.21438142013421735  1.0000
  H   H4        1.0  0.5113996174929303  0.4105882303877497  0.5877877085860861  1.0000
  H   H5        1.0  0.4028209993395498  0.5341215628260529  0.6454274753885467  1.0000
  H   H6        1.0  0.2744738355764954  0.5003590132051972  0.7208140498992517  1.0000
  H   H7        1.0  0.2082832966935746  0.36922386208655783  0.3479500892730121  1.0000
  H   H8        1.0  0.33676664861081745  0.4001980128419194  0.27219900093804456  1.0000
  C   C15       1.0  0.9020072076725791  0.020926228592028213  0.6104023962523046  1.0000
  C   C16       1.0  0.9006125356851719  0.009189200391058543  0.7471397727941345  1.0000
  C   C17       1.0  0.8998400601546971  0.8861049557625241  0.8162017132295032  1.0000
  C   C18       1.0  0.900467719581852  0.7739367491988035  0.7467694586891085  1.0000
  C   C19       1.0  0.9018656172823369  0.7837183286844965  0.6101186314900329  1.0000
  C   C20       1.0  0.9026292583503909  0.9076738334093251  0.5427337760936168  1.0000
  C   C21       1.0  0.8983581122161145  0.8746703712203321  0.9607639222548016  1.0000
  C   C22       1.0  0.8521573780340842  0.7827647694161782  0.026569117809114747  1.0000
  C   C23       1.0  0.8507379768975779  0.7720867608960649  0.16260081984348673  1.0000
  C   C24       1.0  0.895986396578866  0.8521467440127382  0.2353100791876938  1.0000
  C   C25       1.0  0.9414683304084867  0.945021027641068  0.1701129948119133  1.0000
  C   C26       1.0  0.9429051704349958  0.95587447241426  0.0340818393796688  1.0000
  C   C27       1.0  0.8928815261249503  0.8430594122007358  0.38124063722721313  1.0000
  O   O1        1.0  0.8367277336154221  0.9274075462749922  0.4187896692240144  1.0000
  H   H9        1.0  0.9041516367454563  0.2503833505004569  0.35228081192918465  1.0000
  H   H10       1.0  0.899082336947317  0.09600774127407699  0.8000725179427343  1.0000
  H   H11       1.0  0.9008921615598506  0.6788188377236849  0.7996207744716343  1.0000
  H   H12       1.0  0.9037053728684245  0.9159349108917582  0.437330802334708  1.0000
  H   H13       1.0  0.9023527325295492  0.46000624508267857  0.5575555087273018  1.0000
  H   H14       1.0  0.8162335707332505  0.7204860493022978  0.9727422120458176  1.0000
  H   H15       1.0  0.8141887867770009  0.7015257812862397  0.21122330816011636  1.0000
  H   H16       1.0  0.9760082601445628  0.008881529169711744  0.22461978455547338  1.0000
  H   H17       1.0  0.9794794678309693  0.02688056870819943  0.9862671583183544  1.0000
  H   H18       1.0  0.9481389572193022  0.8697557842950342  0.4240554837833902  1.0000
  H   H19       1.0  0.8806697376520473  0.7413002109133986  0.41846647924416064  1.0000
  H   H20       1.0  0.8369983259439066  0.9177490154429315  0.515424685320348  1.0000
  C   C28       1.0  0.9019666291546866  0.4022103646238253  0.22890987141990354  1.0000
  C   C29       1.0  0.8305462567981209  0.345671390247514  0.22900440837083133  1.0000
  C   C30       1.0  0.7943272439250406  0.31713753263666944  0.11190392823427908  1.0000
  C   C31       1.0  0.8304847098411058  0.3458981203092484  0.9936974819793778  1.0000
  C   C32       1.0  0.9019062028707923  0.4024342477968373  0.9916111614356793  1.0000
  C   C33       1.0  0.9372471887732376  0.4302745640447084  0.10972131494248581  1.0000
  C   C34       1.0  0.7187694463389345  0.2573390869682064  0.11306669471279117  1.0000
  C   C35       1.0  0.6631227005468313  0.30015437959835745  0.019429678199915916  1.0000
  C   C36       1.0  0.592024174958458  0.24384164061134309  0.020761382275432668  1.0000
  C   C37       1.0  0.5755353294360526  0.1443648753277702  0.11557056417753507  1.0000
  C   C38       1.0  0.6305136113122956  0.10076441192940556  0.20877020177517489  1.0000
  C   C39       1.0  0.7016586469107922  0.15690274516443137  0.2078031963777962  1.0000
  S   S1        1.0  0.4843369872914929  0.07197403923097155  0.11683063169693497  1.0000
  C   C40       1.0  0.4457897158495621  0.18699574518280174  0.22367174286895652  1.0000
  H   H21       1.0  0.9291920246829288  0.42370654957959114  0.5563314003821017  1.0000
  H   H22       1.0  0.8024739618468844  0.3253280287564988  0.3202167245830332  1.0000
  H   H23       1.0  0.8032463282953527  0.32245817903503005  0.9033293040513403  1.0000
  H   H24       1.0  0.992345140693751  0.47389118881893744  0.1088800203001776  1.0000
  H   H25       1.0  0.9291044087350564  0.42403585190428383  0.6633575160141392  1.0000
  H   H26       1.0  0.6742793974928565  0.3782977188737032  0.9462573541289161  1.0000
  H   H27       1.0  0.5496886247086284  0.27805323852075126  0.9483901511595624  1.0000
  H   H28       1.0  0.6182085519615712  0.023340855409257573  0.28201213248671814  1.0000
  H   H29       1.0  0.743590377894123  0.1206483467966959  0.2800550147863687  1.0000
  H   H30       1.0  0.47755862514949793  0.18030806353949314  0.3182097353069999  1.0000
  H   H31       1.0  0.38617590174929295  0.1630980017215249  0.24159778692619313  1.0000
  H   H32       1.0  0.44867496745906144  0.28766615512025817  0.17718207020226173  1.0000
  Zn  Zn1       1.0  0.8196173038444015  0.4040264744237901  0.6063193995534478  1.0000
  Zn  Zn2       1.0  0.9842483273156236  0.40061765482545886  0.6142006642190758  1.0000
  C   C41       1.0  0.9019169017317451  0.39721784317809083  0.847446108097249  1.0000
  C   C42       1.0  0.9019505268796477  0.40742788764209426  0.37307416858910036  1.0000
  C   C43       1.0  0.9018889233857295  0.6395329845551518  0.6049971419223753  1.0000
  C   C44       1.0  0.9019784493327673  0.16511118701442778  0.6155232018905001  1.0000
  O   O2        1.0  0.9644217392863634  0.40787964053826853  0.42444792465129744  1.0000
  O   O3        1.0  0.9643968270486015  0.3941778951666721  0.8020536760926249  1.0000
  O   O4        1.0  0.9643733918587049  0.5898504541569682  0.6062743797179979  1.0000
  O   O5        1.0  0.9644451183048347  0.21220709197359594  0.6202271209631265  1.0000
  O   O6        1.0  0.839420456674702  0.592437038440328  0.6002929401130772  1.0000
  O   O7        1.0  0.8394438915770069  0.3967660398653119  0.7960721666648582  1.0000
  O   O8        1.0  0.8394688039968506  0.4104677395177967  0.4184648539169318  1.0000
  O   O9        1.0  0.8394921830062593  0.21479518169217515  0.6142441475952392  1.0000
