data_image0
_chemical_formula_structural       NC9NC5H8C9H10C7ONH5Zn2C4O8
_chemical_formula_sum              "N3 C34 H23 O9 Zn2"
_cell_length_a       17.807436237873137
_cell_length_b       9.272676604525724
_cell_length_c       10.297855452804892
_cell_angle_alpha    85.79104961089988
_cell_angle_beta     89.38396818287444
_cell_angle_gamma    88.94495835625186

_space_group_name_H-M_alt    "P 1"
_space_group_IT_number       1

loop_
  _space_group_symop_operation_xyz
  'x, y, z'

loop_
  _atom_site_type_symbol
  _atom_site_label
  _atom_site_symmetry_multiplicity
  _atom_site_fract_x
  _atom_site_fract_y
  _atom_site_fract_z
  _atom_site_occupancy
  N   N1        1.0  0.715269514778844  0.5411583058511842  0.5627954220671205  1.0000
  C   C1        1.0  0.6544865198944047  0.502096732704199  0.5516186594347602  1.0000
  C   C2        1.0  0.5788791549178814  0.453508437401269  0.5377159805132328  1.0000
  C   C3        1.0  0.5603976522155638  0.3742670410308746  0.4323870248995145  1.0000
  C   C4        1.0  0.48698619282282307  0.32696780469232145  0.4188053001933103  1.0000
  C   C5        1.0  0.4310054137536006  0.35849086381749884  0.5105184562057374  1.0000
  C   C6        1.0  0.3529885911522127  0.308351500500573  0.4961671822397144  1.0000
  C   C7        1.0  0.2912663357592893  0.39910299162812146  0.5224612619522195  1.0000
  C   C8        1.0  0.2177114375418299  0.35157834809436905  0.5088923513725716  1.0000
  C   C9        1.0  0.1549540800660064  0.44531749622374206  0.535561931409509  1.0000
  N   N2        1.0  0.10451012040792731  0.5206772856571085  0.5570035221081489  1.0000
  C   C10       1.0  0.20529381246126838  0.21301582751061335  0.46900290149244594  1.0000
  C   C11       1.0  0.2661586214111859  0.12224896148332065  0.44270037113455246  1.0000
  C   C12       1.0  0.339591902415615  0.16933568341807792  0.4560650144389371  1.0000
  C   C13       1.0  0.4501810618107778  0.4382809962112448  0.6160688011243698  1.0000
  C   C14       1.0  0.5236443426392181  0.48536892585900215  0.6294940295905218  1.0000
  H   H1        1.0  0.6026728378651672  0.349332314841001  0.3605641401859505  1.0000
  H   H2        1.0  0.47378073308665175  0.2674040338022601  0.33563893594230526  1.0000
  H   H3        1.0  0.3003053107609788  0.5072923283816293  0.5517613026066113  1.0000
  H   H4        1.0  0.14863972586382704  0.17523484971962458  0.4582602022746302  1.0000
  H   H5        1.0  0.2564259733663237  0.014970509726806028  0.41220320025573165  1.0000
  H   H6        1.0  0.3858674256436047  0.09635629920961743  0.43673136093756953  1.0000
  H   H7        1.0  0.4086196454957069  0.46261680855384263  0.6891841250224153  1.0000
  H   H8        1.0  0.5373850454124991  0.5462881198133203  0.7116237939967216  1.0000
  C   C15       1.0  0.9077654390588497  0.10754158388256507  0.5582717980441623  1.0000
  C   C16       1.0  0.8776883657061472  0.17319732706365445  0.6662936067003093  1.0000
  C   C17       1.0  0.854482791981423  0.09025472934341217  0.7773876950779567  1.0000
  C   C18       1.0  0.8606054317097966  0.9391816262277451  0.7841977463136207  1.0000
  C   C19       1.0  0.889452045954028  0.8721412017476886  0.6751934966287245  1.0000
  C   C20       1.0  0.9120213383793273  0.9542825500822496  0.5615382871653851  1.0000
  C   C21       1.0  0.834712836394263  0.8568981458375687  0.9093578560499896  1.0000
  C   C22       1.0  0.7967544988196732  0.7128040803132477  0.8969899477760961  1.0000
  C   C23       1.0  0.8760564208817004  0.7160617167421369  0.9507699444031988  1.0000
  H   H9        1.0  0.9244683601451597  0.40553912682426874  0.3451747634376634  1.0000
  H   H10       1.0  0.8737253156759607  0.2899284106750617  0.6662277102378766  1.0000
  H   H11       1.0  0.8322233418428748  0.14485309948083325  0.8593321331362598  1.0000
  H   H12       1.0  0.8930350114506109  0.7555520484895325  0.6763463496990658  1.0000
  H   H13       1.0  0.9315464640154443  0.8765150475492778  0.24320271924571862  1.0000
  H   H14       1.0  0.8134421634587433  0.9181209111282866  0.9914567111426773  1.0000
  H   H15       1.0  0.7932801407244867  0.6737601007373946  0.7980200390592307  1.0000
  H   H16       1.0  0.7532172674300253  0.6862949000653292  0.9725729617787042  1.0000
  H   H17       1.0  0.9207308555860143  0.6788692849831467  0.8845455467495412  1.0000
  H   H18       1.0  0.8788654134215859  0.6914505102108346  0.05780196693147232  1.0000
  C   C24       1.0  0.9099235591754258  0.5310538437471313  0.17846313879831532  1.0000
  C   C25       1.0  0.8332733077130768  0.569853582711715  0.1763512483568659  1.0000
  C   C26       1.0  0.7942244419028801  0.5882998947507883  0.058279975574031966  1.0000
  C   C27       1.0  0.8331803549345476  0.5695340642793423  0.9411184435205728  1.0000
  C   C28       1.0  0.9098631839127777  0.530770263082484  0.9413469151044488  1.0000
  C   C29       1.0  0.9476857484769245  0.5114536749661986  0.06048746286940787  1.0000
  C   C30       1.0  0.7133246179414356  0.6296195554422706  0.0586255040469561  1.0000
  O   O1        1.0  0.6858409030202169  0.6926008119305531  0.15308590470318226  1.0000
  N   N3        1.0  0.6651156995689033  0.5980553727374798  0.9545847453965822  1.0000
  H   H19       1.0  0.8036432734609651  0.584560622304493  0.26700153497711976  1.0000
  H   H20       1.0  0.8044132440938897  0.5876765312630097  0.8492206547980445  1.0000
  H   H21       1.0  0.006760364435183017  0.48154672658308173  0.06136170889146774  1.0000
  H   H22       1.0  0.6092035445845064  0.6340303203143984  0.9544601793082922  1.0000
  H   H23       1.0  0.6826358142758004  0.5313425160147358  0.882377738527031  1.0000
  Zn  Zn1       1.0  0.8275959243805321  0.5352440760642456  0.5611315022400509  1.0000
  Zn  Zn2       1.0  0.9921836326952574  0.5265797592526087  0.5586780752537543  1.0000
  C   C31       1.0  0.9098440584468714  0.5250804389276154  0.7971234271812893  1.0000
  C   C32       1.0  0.909937305054667  0.536745120838444  0.3226862580295995  1.0000
  C   C33       1.0  0.9112134057194867  0.7942326236604229  0.555744734605979  1.0000
  C   C34       1.0  0.9085678929081047  0.26759120686924853  0.5640650140117887  1.0000
  O   O2        1.0  0.9724020642329573  0.5353608125322928  0.37015776731870287  1.0000
  O   O3        1.0  0.9722975561420478  0.5198876437541315  0.7477894454646667  1.0000
  O   O4        1.0  0.9734024792824997  0.7372314806425067  0.5528744617502215  1.0000
  O   O5        1.0  0.9712970849894135  0.3180169889501836  0.5650726545168203  1.0000
  O   O6        1.0  0.848482415920677  0.743806849324949  0.5547369238073925  1.0000
  O   O7        1.0  0.8473775014884735  0.5264647446312387  0.7496518449453667  1.0000
  O   O8        1.0  0.8474820095003923  0.5419378637463692  0.3720186049053571  1.0000
  O   O9        1.0  0.8463770301942418  0.32459402981627195  0.5669335894502101  1.0000
