data_image0
_chemical_formula_structural       NC9NC5H8C8NH7C8NH7Zn2C4O8
_chemical_formula_sum              "N4 C34 H22 Zn2 O8"
_cell_length_a       17.807436237873137
_cell_length_b       9.27426342843186
_cell_length_c       9.274266800404108
_cell_angle_alpha    85.95096221083165
_cell_angle_beta     88.95510806583813
_cell_angle_gamma    89.00683889979415

_space_group_name_H-M_alt    "P 1"
_space_group_IT_number       1

loop_
  _space_group_symop_operation_xyz
  'x, y, z'

loop_
  _atom_site_type_symbol
  _atom_site_label
  _atom_site_symmetry_multiplicity
  _atom_site_fract_x
  _atom_site_fract_y
  _atom_site_fract_z
  _atom_site_occupancy
  N   N1        1.0  0.722534046879085  0.5286386987352841  0.3971163085429197  1.0000
  C   C1        1.0  0.6617765292008618  0.4894718999421326  0.3849104956585268  1.0000
  C   C2        1.0  0.5862008551382792  0.44075271537202987  0.36972778967508435  1.0000
  C   C3        1.0  0.5681349727002417  0.36056418238836563  0.25323324861636487  1.0000
  C   C4        1.0  0.49475457430369624  0.31313710424620966  0.23840019683783265  1.0000
  C   C5        1.0  0.4383891313449063  0.34547909115868325  0.34002599843705394  1.0000
  C   C6        1.0  0.3604050323821396  0.29520461777193274  0.3243533100564031  1.0000
  C   C7        1.0  0.2986221453666853  0.38620348309659835  0.35307410962569596  1.0000
  C   C8        1.0  0.22509811476166666  0.33855107677615903  0.33825642474605555  1.0000
  C   C9        1.0  0.1622802876822924  0.4325413924082404  0.36737878403269386  1.0000
  N   N2        1.0  0.11178770983168507  0.5081031128427795  0.3907923596511953  1.0000
  C   C10       1.0  0.21277193140458  0.19961314022706855  0.2946900299226336  1.0000
  C   C11       1.0  0.2736973998435455  0.10859882262381239  0.2659599297031725  1.0000
  C   C12       1.0  0.347100446544469  0.15581142674847537  0.28055313797906667  1.0000
  C   C13       1.0  0.4571485177729677  0.42621840981377646  0.4567634555361932  1.0000
  C   C14       1.0  0.5305812982719784  0.4734327596082771  0.4714238968875286  1.0000
  H   H1        1.0  0.6107112475134139  0.33498809496190196  0.1736487825723272  1.0000
  H   H2        1.0  0.481879108304442  0.2528259494957008  0.14640236676205487  1.0000
  H   H3        1.0  0.3075978489620877  0.49466956216159  0.3850424040096092  1.0000
  H   H4        1.0  0.15614218892698553  0.16173098693841512  0.28295944620030666  1.0000
  H   H5        1.0  0.2640338477084789  0.0010331428195593517  0.23265839599423055  1.0000
  H   H6        1.0  0.3934167529905615  0.08264918888758732  0.2594669177203288  1.0000
  H   H7        1.0  0.4152799577009502  0.4512069631784706  0.537785352347631  1.0000
  H   H8        1.0  0.5439973950991566  0.5350903450819848  0.5622643901144966  1.0000
  C   C15       1.0  0.9147864136906733  0.09491502349727866  0.3942992678410244  1.0000
  C   C16       1.0  0.9056116617163633  0.1777783259190555  0.26270761426670175  1.0000
  C   C17       1.0  0.9037989554558093  0.11199105877261828  0.13218890097962976  1.0000
  C   C18       1.0  0.9117267224045026  0.961775833388386  0.13002357018278898  1.0000
  C   C19       1.0  0.9188893135274406  0.8775075058143391  0.2607642809789481  1.0000
  C   C20       1.0  0.919542408810696  0.9418154878313358  0.3936218273020913  1.0000
  C   C21       1.0  0.9086513426459781  0.8909035290743019  0.9894265783507792  1.0000
  C   C22       1.0  0.8308506671460719  0.8558332220142206  0.9586531614552233  1.0000
  N   N3        1.0  0.7694442143620598  0.8281517034596714  0.9343738927288657  1.0000
  H   H9        1.0  0.978258164619393  0.17230659214116373  0.725608336515364  1.0000
  H   H10       1.0  0.9014691638967697  0.29459819757523653  0.26041398640631463  1.0000
  H   H11       1.0  0.8969142242169642  0.17853869009150158  0.03240313949206208  1.0000
  H   H12       1.0  0.9221401179391815  0.7608323110986621  0.2588126922080751  1.0000
  H   H13       1.0  0.9593448282098348  0.6439005143428047  0.6186832713040658  1.0000
  H   H14       1.0  0.9433303991602305  0.7900002274776164  0.9944416601196266  1.0000
  H   H15       1.0  0.9311958050430327  0.9638595359853673  0.8993535616394706  1.0000
  C   C23       1.0  0.918874187491817  0.5151212395163015  0.9706242683226116  1.0000
  C   C24       1.0  0.8746472907588948  0.41419579826300756  0.05256542719686474  1.0000
  C   C25       1.0  0.8259383805979156  0.32472494351751235  0.9855249505198439  1.0000
  C   C26       1.0  0.8198420854683859  0.33485052280206706  0.834919183651484  1.0000
  C   C27       1.0  0.8650807341346081  0.4322741041725227  0.7516577796916573  1.0000
  C   C28       1.0  0.9154546081076055  0.5216092257013933  0.8172967696150146  1.0000
  C   C29       1.0  0.7681180811992232  0.23683293688948392  0.7627490822541647  1.0000
  C   C30       1.0  0.8080503061864152  0.1028554064477083  0.7309786752822047  1.0000
  N   N4        1.0  0.8395715644033908  0.9971159146493218  0.7059015875084924  1.0000
  H   H16       1.0  0.0033959524862312543  0.8281224097369064  0.04846147608504769  1.0000
  H   H17       1.0  0.8765229638762623  0.40662641322930093  0.16955427034807413  1.0000
  H   H18       1.0  0.792353064867966  0.24829902659373684  0.05136996163812957  1.0000
  H   H19       1.0  0.8621741897559407  0.4357186231697721  0.6348116724229804  1.0000
  H   H20       1.0  0.9750737293044792  0.7293982597158375  0.5198387540981995  1.0000
  H   H21       1.0  0.7469908245111171  0.2907634964634262  0.6602858640252918  1.0000
  H   H22       1.0  0.7186906465823639  0.2098034516888112  0.8337346555479312  1.0000
  Zn  Zn1       1.0  0.8348641891916663  0.5227087884223066  0.3952996938853297  1.0000
  Zn  Zn2       1.0  0.9994574354457177  0.5140213595375314  0.39262083522036106  1.0000
  C   C31       1.0  0.9160670623439076  0.5146383156498195  0.6572621893141672  1.0000
  C   C32       1.0  0.918256369292755  0.5220935579810078  0.13065845057640146  1.0000
  C   C33       1.0  0.9186627560023133  0.7816894197478674  0.3880052558448053  1.0000
  C   C34       1.0  0.9156606094304955  0.25504072494299446  0.3999154632036688  1.0000
  O   O1        1.0  0.9805112677010764  0.5211304067665729  0.18335077620107376  1.0000
  O   O2        1.0  0.9787346249809277  0.5090068183321121  0.6025362578320101  1.0000
  O   O3        1.0  0.9808298323615992  0.7246540181429355  0.3851093915232535  1.0000
  O   O4        1.0  0.9784160046503654  0.30548321940735934  0.4007775353255274  1.0000
  O   O5        1.0  0.8559055638194611  0.731246931518584  0.3871429946867422  1.0000
  O   O6        1.0  0.853810366475086  0.51560146361383  0.6045697827441721  1.0000
  O   O7        1.0  0.8555870159631721  0.5277249885138022  0.18538256792918428  1.0000
  O   O8        1.0  0.8534917524149431  0.31207779166908356  0.4028094351445195  1.0000
