data_image0
_chemical_formula_structural       NC12NC2H8C12ClH9C13F3H9Zn2C4O8
_chemical_formula_sum              "N2 C43 H26 Cl1 F3 Zn2 O8"
_cell_length_a       19.240039667572717
_cell_length_b       10.299768534541528
_cell_length_c       10.2985328690268
_cell_angle_alpha    85.58012551441328
_cell_angle_beta     90.00547390957907
_cell_angle_gamma    90.01670575511149

_space_group_name_H-M_alt    "P 1"
_space_group_IT_number       1

loop_
  _space_group_symop_operation_xyz
  'x, y, z'

loop_
  _atom_site_type_symbol
  _atom_site_label
  _atom_site_symmetry_multiplicity
  _atom_site_fract_x
  _atom_site_fract_y
  _atom_site_fract_z
  _atom_site_occupancy
  N   N1        1.0  0.6546256306932375  0.4208150104278259  0.5674275769634507  1.0000
  C   C1        1.0  0.5944772618848705  0.4208150943828021  0.5674274950253547  1.0000
  C   C2        1.0  0.5196592247549848  0.42081521162470364  0.5674273577173594  1.0000
  C   C3        1.0  0.4831807428559964  0.35638263870116105  0.6708432267557938  1.0000
  C   C4        1.0  0.4105099818788846  0.3562717853863726  0.6709297688285696  1.0000
  C   C5        1.0  0.37332698982044565  0.4208153041183209  0.5674271300242363  1.0000
  C   C6        1.0  0.4105196761883668  0.48535900989508307  0.4639246857861941  1.0000
  C   C7        1.0  0.48319035174449027  0.4852479211211718  0.46401135035456065  1.0000
  C   C8        1.0  0.2961218993636554  0.42081522542835126  0.5674270345968551  1.0000
  C   C9        1.0  0.2589185551897191  0.30756855153457896  0.6092939213117512  1.0000
  C   C10       1.0  0.18624787881608176  0.30767542238559886  0.6092025956532245  1.0000
  C   C11       1.0  0.1497896124234142  0.4208150962756416  0.5674270955037322  1.0000
  C   C12       1.0  0.074971575263438  0.4208149826109575  0.567427344176014  1.0000
  N   N2        1.0  0.014823258415636798  0.420814941852381  0.5674275526083333  1.0000
  C   C13       1.0  0.18627885689648746  0.5339548459761561  0.5256515424642134  1.0000
  C   C14       1.0  0.2589495651446559  0.5340618968959523  0.5255600542101038  1.0000
  H   H1        1.0  0.510891951981967  0.3064977490385503  0.7515874253714976  1.0000
  H   H2        1.0  0.38341319995964135  0.3071853181359426  0.7527896061877337  1.0000
  H   H3        1.0  0.3834299273211011  0.5344455041819258  0.382064797576488  1.0000
  H   H4        1.0  0.5109089140800713  0.5351327106076775  0.3832674275485995  1.0000
  H   H5        1.0  0.2859995093939997  0.2184237072533977  0.6404583637814525  1.0000
  H   H6        1.0  0.1585209090969995  0.21943006891916594  0.6414001369032931  1.0000
  H   H7        1.0  0.158576003164695  0.6222001749104829  0.49345401576415016  1.0000
  H   H8        1.0  0.2860550897676518  0.6232068203390957  0.49439556697041503  1.0000
  C   C15       1.0  0.8346622295785542  0.03944959252120038  0.5674254257664936  1.0000
  C   C16       1.0  0.8392326893729695  0.04897285233526727  0.4309465968385253  1.0000
  C   C17       1.0  0.8416153954307843  0.9366589988961839  0.3617990781912422  1.0000
  C   C18       1.0  0.8393654339082892  0.8136851396831143  0.43096208789468016  1.0000
  C   C19       1.0  0.8347933390753507  0.802170350812442  0.56744085476873  1.0000
  C   C20       1.0  0.8324678527374777  0.9156094538034464  0.6349082416845092  1.0000
  C   C21       1.0  0.8464514849946221  0.947787481690148  0.21741585461653415  1.0000
  C   C22       1.0  0.806907621044444  0.041304409220973115  0.14294665546833765  1.0000
  C   C23       1.0  0.8115214128120132  0.05158306193809126  0.00705704758003156  1.0000
  C   C24       1.0  0.8556118621694698  0.9688663957980209  0.9439446582717502  1.0000
  C   C25       1.0  0.8951442576401777  0.8756612427535686  0.016902527253762404  1.0000
  C   C26       1.0  0.8906538925651748  0.8649903433328837  0.15280677944606771  1.0000
  Cl  Cl1       1.0  0.8613231078801021  0.982008535725369  0.7734472896856002  1.0000
  H   H9        1.0  0.8328849977741961  0.36327451103182135  0.619427324585773  1.0000
  H   H10       1.0  0.8419095471472232  0.14396882218214913  0.37821018068621215  1.0000
  H   H11       1.0  0.8402284810056474  0.7268348878679711  0.37801210128893636  1.0000
  H   H12       1.0  0.8289412495069014  0.9074945085231044  0.7401953756964996  1.0000
  H   H13       1.0  0.8330788302576754  0.4703289328949163  0.6194505551248557  1.0000
  H   H14       1.0  0.7717687682626166  0.10529486986961144  0.18969351991347574  1.0000
  H   H15       1.0  0.7806598393578584  0.1236795354554505  0.9509412223626916  1.0000
  H   H16       1.0  0.9295079095063344  0.8116236417411783  0.9684660623935704  1.0000
  H   H17       1.0  0.9223973400892373  0.7931867140784601  0.20742819092937537  1.0000
  C   C27       1.0  0.8347077838859236  0.4206880490013467  0.18603567810119626  1.0000
  C   C28       1.0  0.9043930546418736  0.37979707318174855  0.18824794807773415  1.0000
  C   C29       1.0  0.9397031237407065  0.3591959747538602  0.07219806886332725  1.0000
  C   C30       1.0  0.9044341299078974  0.3800526874682381  0.9529472767360252  1.0000
  C   C31       1.0  0.8347477741268586  0.4209319585684707  0.9488306572981858  1.0000
  C   C32       1.0  0.8003296290725535  0.44098341141818587  0.06587222250977344  1.0000
  C   C33       1.0  0.013377051377365445  0.3159766488492126  0.07547140336546757  1.0000
  C   C34       1.0  0.061377200805942556  0.3705765679548181  0.9839308404464915  1.0000
  C   C35       1.0  0.1307142613909855  0.33000350773798665  0.9870329753131402  1.0000
  C   C36       1.0  0.15331267086947653  0.23260837366888265  0.08050250240030743  1.0000
  C   C37       1.0  0.10571515017866018  0.1798274819225092  0.1736204290842005  1.0000
  C   C38       1.0  0.03638261952187371  0.22043359678825758  0.17062921586818103  1.0000
  C   C39       1.0  0.22866065097941116  0.19232220916060272  0.08678519979359024  1.0000
  F   F1        1.0  0.2643178632319716  0.27163599700272  0.16627148539121395  1.0000
  F   F2        1.0  0.25826179434712904  0.2034952642442962  0.963928212475441  1.0000
  F   F3        1.0  0.23507521572795187  0.06420234549025805  0.1366686894741207  1.0000
  H   H18       1.0  0.7031611518028098  0.4987753039642706  0.38911725574540057  1.0000
  H   H19       1.0  0.9316084663990082  0.3656376647733334  0.28032666073360263  1.0000
  H   H20       1.0  0.9311234301810235  0.3626713316269567  0.8633162416207295  1.0000
  H   H21       1.0  0.7466215853057403  0.4724936459051939  0.06343405804855529  1.0000
  H   H22       1.0  0.7029383502686438  0.4974356935063351  0.7337829571602796  1.0000
  H   H23       1.0  0.04555216508047467  0.44634008613573517  0.9112030934497991  1.0000
  H   H24       1.0  0.16675517697569187  0.3752293506550699  0.9165486035997478  1.0000
  H   H25       1.0  0.12209634128722557  0.10695547097122839  0.2487911127439793  1.0000
  H   H26       1.0  0.0005921993882502834  0.1761617712554859  0.2421332839213981  1.0000
  Zn  Zn1       1.0  0.7585708943251003  0.42081152586275294  0.5674350588515857  1.0000
  Zn  Zn2       1.0  0.9108780122897249  0.42080783642415676  0.5674306701991116  1.0000
  C   C40       1.0  0.8347377771092597  0.4157122069477314  0.8046459601050641  1.0000
  C   C41       1.0  0.8347127929828972  0.4259087939440958  0.3302198964069543  1.0000
  C   C42       1.0  0.8347647019647946  0.6579982725598594  0.5622624159813043  1.0000
  C   C43       1.0  0.8346858158910246  0.18362116806719841  0.5726035097443724  1.0000
  O   O1        1.0  0.8925142306200963  0.42765385782716997  0.37860777162377507  1.0000
  O   O2        1.0  0.8925339176723902  0.4139633630331382  0.7562543801086439  1.0000
  O   O3        1.0  0.8925548807361741  0.6096124255911024  0.560527953374768  1.0000
  O   O4        1.0  0.892493215580701  0.23200480452946556  0.5743341009773735  1.0000
  O   O5        1.0  0.7769556390591794  0.6096145577601146  0.5605316280679896  1.0000
  O   O6        1.0  0.7769346762567885  0.4139670554695909  0.7562579855828725  1.0000
  O   O7        1.0  0.7769149891610704  0.42765750450880935  0.3786098155794262  1.0000
  O   O8        1.0  0.7768939741223418  0.23200844195351594  0.5743362423079682  1.0000
