data_image0
_chemical_formula_structural       NC9NC4H8C6NCOCH7C6NO2H3Zn2C4O8
_chemical_formula_sum              "N4 C31 H18 O11 Zn2"
_cell_length_a       16.32274767691083
_cell_length_b       10.300268703208216
_cell_length_c       9.273395971720356
_cell_angle_alpha    84.96326544088495
_cell_angle_beta     89.35243876569035
_cell_angle_gamma    89.50441699892957

_space_group_name_H-M_alt    "P 1"
_space_group_IT_number       1

loop_
  _space_group_symop_operation_xyz
  'x, y, z'

loop_
  _atom_site_type_symbol
  _atom_site_label
  _atom_site_symmetry_multiplicity
  _atom_site_fract_x
  _atom_site_fract_y
  _atom_site_fract_z
  _atom_site_occupancy
  N   N1        1.0  0.7729329864598737  0.4269933872362415  0.39576247459008496  1.0000
  C   C1        1.0  0.7206827889082265  0.38012285078825175  0.3354085183116211  1.0000
  C   C2        1.0  0.6557351559136416  0.3219092797327736  0.260448422005247  1.0000
  C   C3        1.0  0.6674329076895522  0.24228354810153485  0.1579115782536793  1.0000
  C   C4        1.0  0.5881380504476462  0.20342573164868938  0.10787700707042068  1.0000
  C   C5        1.0  0.5291014710243196  0.2602931719971302  0.18110978106234965  1.0000
  C   C6        1.0  0.43919134890674283  0.24526358184454436  0.16175893944057518  1.0000
  C   C7        1.0  0.38347473980319063  0.3115463333669499  0.24710824829562125  1.0000
  C   C8        1.0  0.2987896115957921  0.2987013261236249  0.23056979276148737  1.0000
  C   C9        1.0  0.24265736784339756  0.36702173933935556  0.3185420430774145  1.0000
  N   N2        1.0  0.19754600623635754  0.42194011315446267  0.38925683252710924  1.0000
  C   C10       1.0  0.2687682486012534  0.21946636123790597  0.12854468954390375  1.0000
  C   C11       1.0  0.3231627790413875  0.15327140250239402  0.04330881147129517  1.0000
  C   C12       1.0  0.4076897413194806  0.16577042625534544  0.05940162336613052  1.0000
  C   C13       1.0  0.5667045112260803  0.343212240356519  0.2878846237984398  1.0000
  H   H1        1.0  0.7263968344556913  0.2113208794265038  0.11803732505864728  1.0000
  H   H2        1.0  0.5799613406756319  0.13834772235373505  0.02407356711466657  1.0000
  H   H3        1.0  0.40547446206811044  0.37340257997107873  0.326756159594233  1.0000
  H   H4        1.0  0.2033957719617688  0.20888473390066764  0.11492068227277397  1.0000
  H   H5        1.0  0.2997659882633567  0.09197576863530021  0.9643830508845173  1.0000
  H   H6        1.0  0.4475674871567582  0.11281871610759399  0.991218845901164  1.0000
  H   H7        1.0  0.5498126265102838  0.3074109245003089  0.40071780745962293  1.0000
  H   H8        1.0  0.5499290293417771  0.4475016529289606  0.26324602098424443  1.0000
  C   C14       1.0  0.9853266508929575  0.04311796793694089  0.3925168520316584  1.0000
  C   C15       1.0  0.9993041489366984  0.053750037097815444  0.24223740817810202  1.0000
  C   C16       1.0  0.007464737911963449  0.9417909612083253  0.16680275989777593  1.0000
  C   C17       1.0  0.999118759707142  0.8185923856081414  0.2422762631100723  1.0000
  C   C18       1.0  0.9851601673581806  0.8058053128406675  0.39251481045506975  1.0000
  C   C19       1.0  0.9786461481269759  0.9186729215557924  0.4669249202758461  1.0000
  N   N3        1.0  0.020499938413363946  0.9511046657912672  0.012599842848125318  1.0000
  C   C20       1.0  0.06868434809697388  0.05036893834111657  0.9342914383442097  1.0000
  O   O1        1.0  0.11487392483074954  0.12218726089114094  0.00024759207322588855  1.0000
  C   C21       1.0  0.06889576418688083  0.06277439554455144  0.7725707136297676  1.0000
  H   H9        1.0  0.0022220148645126763  0.1491172768113791  0.18346374594420986  1.0000
  H   H10       1.0  0.004269660659075304  0.7327250024098649  0.1831041570008964  1.0000
  H   H11       1.0  0.9678880441667846  0.9096630849892059  0.582836898513011  1.0000
  H   H12       1.0  0.9979958729152563  0.8764943635128236  0.9549399000118632  1.0000
  H   H13       1.0  0.006233482639308894  0.046870275050248995  0.7326023024950521  1.0000
  H   H14       1.0  0.08925460926370386  0.1615882120053611  0.7301642104671888  1.0000
  H   H15       1.0  0.111228951098437  0.9889190835744255  0.7321825698241233  1.0000
  C   C22       1.0  0.9857087968845405  0.4284455040973758  0.9685719712281048  1.0000
  C   C23       1.0  0.9126774197675825  0.4589552058333484  0.0402774291991248  1.0000
  C   C24       1.0  0.8394193871387893  0.4771884742400267  0.9649703109607803  1.0000
  C   C25       1.0  0.8371144477083724  0.4652854894564473  0.8157110594900757  1.0000
  C   C26       1.0  0.9101015556770949  0.43700146799054584  0.7425685884521052  1.0000
  C   C27       1.0  0.984778013560359  0.4204777500487482  0.8164597291265716  1.0000
  N   N4        1.0  0.7611567513957767  0.48311811638885427  0.7387372217764407  1.0000
  O   O2        1.0  0.6899486295942059  0.5118740441756565  0.8106026493649539  1.0000
  O   O3        1.0  0.7585497908208056  0.4724471227372362  0.6057816861340196  1.0000
  H   H16       1.0  0.165022549195865  0.2808293922808187  0.08224747721419232  1.0000
  H   H17       1.0  0.7842744240219672  0.4993780392679181  0.024198057459126066  1.0000
  H   H18       1.0  0.10703693312842355  0.3248726596339547  0.5431378553783457  1.0000
  Zn  Zn1       1.0  0.8954671296370595  0.42553155775381485  0.3938934240960619  1.0000
  Zn  Zn2       1.0  0.07501185857469995  0.4233911750924632  0.3911377099575748  1.0000
  C   C28       1.0  0.9849532693347318  0.41681044715279136  0.6561908104202698  1.0000
  C   C29       1.0  0.985527678986701  0.43211389952154927  0.12884043523314714  1.0000
  C   C30       1.0  0.9851937455651971  0.6616952624511248  0.3867623599089835  1.0000
  C   C31       1.0  0.9852871417462221  0.1872275240106165  0.39826896365714815  1.0000
  O   O4        1.0  0.053603184328848474  0.43252711703143515  0.1815822166847605  1.0000
  O   O5        1.0  0.053148059544049435  0.4147717529628647  0.6013570901218779  1.0000
  O   O6        1.0  0.053341326983764814  0.6125193351507427  0.38379172417724616  1.0000
  O   O7        1.0  0.05340985573947664  0.23477954588085304  0.39914747532440414  1.0000
  O   O8        1.0  0.9170690712024866  0.6141431876973182  0.3858836596620283  1.0000
  O   O9        1.0  0.9168758035029873  0.4163971664539315  0.6034489486267423  1.0000
  O   O10       1.0  0.9173309302575183  0.4341525015790737  0.18367233947784278  1.0000
  O   O11       1.0  0.9171376015480069  0.23640492012308822  0.401237706355271  1.0000
