data_image0
_chemical_formula_structural       NC5NC4H6C7NH5C8H8Zn2C4O8
_chemical_formula_sum              "N3 C28 H19 Zn2 O8"
_cell_length_a       13.854160002989762
_cell_length_b       9.275154477615127
_cell_length_c       9.275657083861812
_cell_angle_alpha    86.07548322511155
_cell_angle_beta     89.50283940277347
_cell_angle_gamma    89.43370676253429

_space_group_name_H-M_alt    "P 1"
_space_group_IT_number       1

loop_
  _space_group_symop_operation_xyz
  'x, y, z'

loop_
  _atom_site_type_symbol
  _atom_site_label
  _atom_site_symmetry_multiplicity
  _atom_site_fract_x
  _atom_site_fract_y
  _atom_site_fract_z
  _atom_site_occupancy
  N   N1        1.0  0.9077232619804338  0.5697557171603912  0.41613829183929213  1.0000
  C   C1        1.0  0.8355682544569678  0.594657601498392  0.3571914464302426  1.0000
  C   C2        1.0  0.7458064155382295  0.6256362176474999  0.2838593125685902  1.0000
  C   C3        1.0  0.6580118048657392  0.5965292396582491  0.3554661497489817  1.0000
  C   C4        1.0  0.5706640032072661  0.6256362318540372  0.28385928945267125  1.0000
  C   C5        1.0  0.48046011353511786  0.5946574546900958  0.3571915374682284  1.0000
  N   N2        1.0  0.4079496918046132  0.5697556536806236  0.4161382915005962  1.0000
  C   C6        1.0  0.5711393103177228  0.6844565209943382  0.1406669938289049  1.0000
  C   C7        1.0  0.6588875199598263  0.7157124963101045  0.06896525071477622  1.0000
  C   C8        1.0  0.6593957139827236  0.7747148967945022  0.9142848108323259  1.0000
  C   C9        1.0  0.7462163998897242  0.6844565192060932  0.14066690354460865  1.0000
  H   H1        1.0  0.6576699689366957  0.5508922161733265  0.4662939157809367  1.0000
  H   H2        1.0  0.5034469060540009  0.7059513653530827  0.08510339312591375  1.0000
  H   H3        1.0  0.7239365213138302  0.8427345517440434  0.8907685089886979  1.0000
  H   H4        1.0  0.5942280432623782  0.8427345539543797  0.8907685740815658  1.0000
  H   H5        1.0  0.6604147875270993  0.6838484454807823  0.8423706897592971  1.0000
  H   H6        1.0  0.814269864888505  0.705951477367071  0.08510330814527833  1.0000
  C   C10       1.0  0.1606439833800323  0.14635782066302827  0.41447015414478106  1.0000
  C   C11       1.0  0.13489222915597865  0.2288843245987333  0.287367572076362  1.0000
  C   C12       1.0  0.1012500680941395  0.16222788827051837  0.16699780257065933  1.0000
  C   C13       1.0  0.09280243103412378  0.012134654494813324  0.17231300008114037  1.0000
  C   C14       1.0  0.11946571022334339  0.9283856002635217  0.2965183801244977  1.0000
  C   C15       1.0  0.15503821882450275  0.9931425331724371  0.41781893117500624  1.0000
  C   C16       1.0  0.07422311576655359  0.24832833934999  0.03836330287218525  1.0000
  N   N3        1.0  0.052500958859605255  0.31753736514926767  0.9349741145454451  1.0000
  H   H7        1.0  0.1772922108787479  0.22484566083835622  0.7683217872837482  1.0000
  H   H8        1.0  0.13885912936638434  0.3458217633790124  0.2830902717600092  1.0000
  H   H9        1.0  0.06643200478804377  0.9595330982833016  0.07980127235479761  1.0000
  H   H10       1.0  0.11439796571555888  0.8119173535298149  0.2963915142415219  1.0000
  H   H11       1.0  0.1703507501309939  0.6955895832769321  0.6549095908880531  1.0000
  C   C17       1.0  0.1603141546569733  0.5675766727856038  0.9928160461350969  1.0000
  C   C18       1.0  0.20958633535070004  0.6774849481745411  0.058191076469146896  1.0000
  C   C19       1.0  0.2502947521061531  0.7935641756483724  0.9749115437771286  1.0000
  C   C20       1.0  0.24317004917550283  0.7987514759932727  0.8242931706563303  1.0000
  C   C21       1.0  0.1959783543931223  0.6894887345259031  0.757468089470708  1.0000
  C   C22       1.0  0.155368038152474  0.5719236414155577  0.8394730229765242  1.0000
  C   C23       1.0  0.3039916643657841  0.9091841764068092  0.046568680223777026  1.0000
  C   C24       1.0  0.41028571293585925  0.86804197970584  0.06425059856020532  1.0000
  H   H12       1.0  0.21459467049647762  0.6748118831806447  0.17490553172136414  1.0000
  H   H13       1.0  0.27512727042775736  0.8868740171252754  0.7582554334298282  1.0000
  H   H14       1.0  0.04250275611921903  0.4057544097031054  0.570981482950752  1.0000
  H   H15       1.0  0.2980126344410867  0.013854940662548557  0.9811423053741958  1.0000
  H   H16       1.0  0.27177974407083827  0.9255133695415053  0.1545097487685363  1.0000
  H   H17       1.0  0.4178360806607608  0.7654738266865788  0.132593165181075  1.0000
  H   H18       1.0  0.4443411512486185  0.85477235012342  0.9570233112806359  1.0000
  H   H19       1.0  0.4485291239454803  0.9545919512997217  0.11715948249073826  1.0000
  Zn  Zn1       1.0  0.052077786564584484  0.5697518814763374  0.4161466102246687  1.0000
  Zn  Zn2       1.0  0.26359517733826743  0.5697477516261913  0.4161417657093134  1.0000
  C   C25       1.0  0.15633883360246245  0.56535813727339  0.6794139876231304  1.0000
  C   C26       1.0  0.15933642719388819  0.5741433157150511  0.15287453694302022  1.0000
  C   C27       1.0  0.15612641475504246  0.8330526838216081  0.4114413430165831  1.0000
  C   C28       1.0  0.15954878488386698  0.30644703730626244  0.4208472515572699  1.0000
  O   O1        1.0  0.23927808203321033  0.576339283675025  0.20658976526693595  1.0000
  O   O2        1.0  0.23693399380596758  0.5631579450287372  0.6256946631448118  1.0000
  O   O3        1.0  0.23676137206889347  0.7793246845432258  0.4093048626275846  1.0000
  O   O4        1.0  0.23945063215689133  0.36017255392104547  0.42297945773843115  1.0000
  O   O5        1.0  0.07622225956548999  0.7793270791844236  0.40930891818962745  1.0000
  O   O6        1.0  0.07639487027953469  0.5631620715334447  0.6256986486932301  1.0000
  O   O7        1.0  0.0787389690287745  0.5763433510375953  0.20659201742513322  1.0000
  O   O8        1.0  0.07891151858537815  0.36017661152604674  0.42298181793643796  1.0000
