data_image0
_chemical_formula_structural       NC8NH4C6NCH9C6H6Zn2C4O8
_chemical_formula_sum              "N3 C25 H19 Zn2 O8"
_cell_length_a       13.859017124695912
_cell_length_b       9.273386996610926
_cell_length_c       10.68112160042829
_cell_angle_alpha    85.46621756597041
_cell_angle_beta     89.99985505477505
_cell_angle_gamma    89.39861590222965

_space_group_name_H-M_alt    "P 1"
_space_group_IT_number       1

loop_
  _space_group_symop_operation_xyz
  'x, y, z'

loop_
  _atom_site_type_symbol
  _atom_site_label
  _atom_site_symmetry_multiplicity
  _atom_site_fract_x
  _atom_site_fract_y
  _atom_site_fract_z
  _atom_site_occupancy
  N   N1        1.0  0.8975035501717914  0.5788748733108158  0.6164057922115197  1.0000
  C   C1        1.0  0.8253097377802721  0.5560072174175223  0.5676425985197386  1.0000
  C   C2        1.0  0.7355049075675425  0.5275631998553092  0.5069874520642677  1.0000
  C   C3        1.0  0.6476948506529552  0.5552932397154757  0.5661185875219888  1.0000
  C   C4        1.0  0.5602745790962478  0.5275644261372843  0.5069869470017103  1.0000
  C   C5        1.0  0.560846826121973  0.47209807010389454  0.3887060188435989  1.0000
  C   C6        1.0  0.6484735738294979  0.44447460918197024  0.3298024951840708  1.0000
  C   C7        1.0  0.7357122015017267  0.4720957197674829  0.3887070459830706  1.0000
  C   C8        1.0  0.4700698925530543  0.5560081443174463  0.5676421645055547  1.0000
  N   N2        1.0  0.3975546734938183  0.5788751960414734  0.6164056040760031  1.0000
  H   H1        1.0  0.6473931149063386  0.598226366276696  0.657670858486108  1.0000
  H   H2        1.0  0.4937047704456236  0.45027350784541986  0.34216333931845705  1.0000
  H   H3        1.0  0.6487747592639473  0.40162918063892117  0.23843563195701  1.0000
  H   H4        1.0  0.8031610183288729  0.4502690559954478  0.3421652376161328  1.0000
  C   C9        1.0  0.15050086154925446  0.15522106235310384  0.6170210838286048  1.0000
  C   C10       1.0  0.16744299923713313  0.23869667258558175  0.5037914077402773  1.0000
  C   C11       1.0  0.17530015527905254  0.17419378787780784  0.3905547353649146  1.0000
  C   C12       1.0  0.1663340307688992  0.02389311701808695  0.3876525404457972  1.0000
  C   C13       1.0  0.15109228442321276  0.9394545935885259  0.5004888814515747  1.0000
  C   C14       1.0  0.14456665070392982  0.002517914675221902  0.6158012001807432  1.0000
  N   N3        1.0  0.17337551063158818  0.9543538070645724  0.2720779852942931  1.0000
  C   C15       1.0  0.18944941572431517  0.03225031422754164  0.14987284599850925  1.0000
  H   H5        1.0  0.1702137720608483  0.41736579768185456  0.8226190585299586  1.0000
  H   H6        1.0  0.17236441133001934  0.3553425693630653  0.50225501684493  1.0000
  H   H7        1.0  0.1874683575798337  0.2427959141335838  0.3054909889300845  1.0000
  H   H8        1.0  0.1465379468885828  0.8230535208162192  0.49851332541921733  1.0000
  H   H9        1.0  0.18009322525666094  0.8711559912975748  0.9208136751417719  1.0000
  H   H10       1.0  0.1665538778432849  0.8419866797305194  0.27467482052501313  1.0000
  H   H11       1.0  0.12963323663206383  0.11082383392093974  0.12811454873144945  1.0000
  H   H12       1.0  0.2592882278462998  0.08980211140210347  0.150074900824388  1.0000
  H   H13       1.0  0.1918818079331872  0.9548137212853663  0.07573568344697157  1.0000
  C   C16       1.0  0.14753378751611712  0.5788694780738648  0.24866590174281808  1.0000
  C   C17       1.0  0.0790331093996004  0.49863302882580296  0.18735895468754205  1.0000
  C   C18       1.0  0.07903304850903536  0.49863312133147975  0.05647681460148179  1.0000
  C   C19       1.0  0.1475337111679922  0.5788695487936795  0.9841563373173674  1.0000
  C   C20       1.0  0.21597785267565262  0.6590395060543232  0.04546279977476852  1.0000
  C   C21       1.0  0.21597784048737134  0.6590394836835929  0.1763550984700264  1.0000
  H   H14       1.0  0.21680612599624374  0.6600105747609687  0.5418068008769996  1.0000
  H   H15       1.0  0.025339044100313398  0.4357399077608308  0.24048635594301923  1.0000
  H   H16       1.0  0.02533902347310835  0.435739975670077  0.011982326619719876  1.0000
  H   H17       1.0  0.26967892921848513  0.7219409148133864  0.9923797219526914  1.0000
  H   H18       1.0  0.26967888095791137  0.7219408642394387  0.22080408950992747  1.0000
  H   H19       1.0  0.21680643066113947  0.6600100721265143  0.6798777758871433  1.0000
  Zn  Zn1       1.0  0.04180753264881099  0.5788711146649721  0.616412979067678  1.0000
  Zn  Zn2       1.0  0.25325076580371264  0.5788671861348162  0.6164087053301942  1.0000
  C   C22       1.0  0.147571851147956  0.5731221883621738  0.8451411870593835  1.0000
  C   C23       1.0  0.14748874350927  0.58461793269963  0.3876806175839597  1.0000
  C   C24       1.0  0.14568339283034026  0.8423607876750736  0.6110414655642523  1.0000
  C   C25       1.0  0.14937714181558337  0.31537760008372906  0.6217804083413108  1.0000
  O   O1        1.0  0.22771527544642245  0.5865393817859161  0.43433361333605486  1.0000
  O   O2        1.0  0.22782584833447173  0.5711966692611259  0.7984845887153074  1.0000
  O   O3        1.0  0.2262998126648894  0.7886102432132747  0.6094474051757226  1.0000
  O   O4        1.0  0.22924123889247783  0.369125818155398  0.6233707029660984  1.0000
  O   O5        1.0  0.06581698740483644  0.7886124826473013  0.6094509814266427  1.0000
  O   O6        1.0  0.0673430109305122  0.571200642001066  0.7984880956988771  1.0000
  O   O7        1.0  0.06723243845882543  0.5865433042519621  0.4343356147694219  1.0000
  O   O8        1.0  0.0687584019731986  0.36912973030272545  0.6233727983038762  1.0000
