data_image0
_chemical_formula_structural       NC6NC2H4C6NCH9C6BrH4Zn2C4O8
_chemical_formula_sum              "N3 C25 H17 Br1 Zn2 O8"
_cell_length_a       14.927258858638513
_cell_length_b       9.273386996610927
_cell_length_c       9.276567756262418
_cell_angle_alpha    86.02760264675325
_cell_angle_beta     90.18620734994761
_cell_angle_gamma    89.39858807063658

_space_group_name_H-M_alt    "P 1"
_space_group_IT_number       1

loop_
  _space_group_symop_operation_xyz
  'x, y, z'

loop_
  _atom_site_type_symbol
  _atom_site_label
  _atom_site_symmetry_multiplicity
  _atom_site_fract_x
  _atom_site_fract_y
  _atom_site_fract_z
  _atom_site_occupancy
  N   N1        1.0  0.8301595651999165  0.5632759272616961  0.4080660420473854  1.0000
  C   C1        1.0  0.7526330742390199  0.5632758988447182  0.4080660526779414  1.0000
  C   C2        1.0  0.6562005658460622  0.5632760134990498  0.4080660026523264  1.0000
  C   C3        1.0  0.6090551599723536  0.5383353624339318  0.28147974041088  1.0000
  C   C4        1.0  0.5153438482006082  0.5383353867726497  0.2814796069744625  1.0000
  C   C5        1.0  0.46838450304958207  0.5632758360629282  0.4080660215648131  1.0000
  C   C6        1.0  0.371951927665058  0.5632759507201675  0.4080659715332715  1.0000
  N   N2        1.0  0.2944254367041609  0.5632759223031891  0.40806598216382817  1.0000
  C   C7        1.0  0.5155298419317237  0.5882164871309543  0.5346522838003331  1.0000
  C   C8        1.0  0.609241153703469  0.5882164627922355  0.5346524172367508  1.0000
  H   H1        1.0  0.644678972965457  0.5189301284742898  0.18298836321279954  1.0000
  H   H2        1.0  0.4795753161554594  0.5189303260398042  0.1829883579549143  1.0000
  H   H3        1.0  0.47990609620508534  0.6076217118276226  0.6331437690487693  1.0000
  H   H4        1.0  0.6450096853262699  0.6076216219690751  0.6331437760724077  1.0000
  C   C9        1.0  0.06505297787210695  0.13962886370578542  0.40877406373118297  1.0000
  C   C10       1.0  0.08052769366097201  0.22182793987905214  0.2784943977934724  1.0000
  C   C11       1.0  0.08756756194473225  0.1560484490330225  0.14820667919738684  1.0000
  C   C12       1.0  0.07923654590092122  0.00571506630257268  0.14486747224343932  1.0000
  C   C13       1.0  0.06533965031856015  0.9225486413048174  0.2746945756901473  1.0000
  C   C14       1.0  0.05954069070812577  0.9869119678212381  0.4073704895176484  1.0000
  N   N3        1.0  0.08551384553325388  0.9348727941495087  0.011889834896270154  1.0000
  C   C15       1.0  0.10016224976410526  0.011391580907009759  0.8712831904841329  1.0000
  H   H5        1.0  0.08381816970132454  0.40409144141822373  0.6453307527345897  1.0000
  H   H6        1.0  0.08509345410915106  0.338456512111349  0.2767266604722891  1.0000
  H   H7        1.0  0.09867340886081613  0.2236915800334174  0.05033413489751925  1.0000
  H   H8        1.0  0.06110678663864633  0.8061253000433749  0.2724215412452946  1.0000
  H   H9        1.0  0.09321174887301759  0.8589886477520282  0.7583114056211089  1.0000
  H   H10       1.0  0.07918623824928167  0.8225349479505912  0.014877696446829347  1.0000
  H   H11       1.0  0.04457770590995216  0.08971984805858345  0.8462485347299484  1.0000
  H   H12       1.0  0.16500363158037723  0.06894560375723581  0.8715156926220965  1.0000
  H   H13       1.0  0.1022536180930334  0.9331191834050351  0.7859825394962714  1.0000
  C   C16       1.0  0.0614687143292394  0.5591245428566163  0.984952378373317  1.0000
  C   C17       1.0  0.9816351823179841  0.5938547202039424  0.055505686935541025  1.0000
  C   C18       1.0  0.905705203332432  0.6404683151204387  0.9767274816191787  1.0000
  C   C19       1.0  0.9081821143186358  0.6532958573739687  0.8262103877120691  1.0000
  C   C20       1.0  0.9862695265171464  0.6170072609037964  0.7539325985733432  1.0000
  C   C21       1.0  0.06312500220159192  0.5674163536004718  0.8311921649176859  1.0000
  Br  Br1       1.0  0.804250596046606  0.7182540820127987  0.7188525577734142  1.0000
  H   H14       1.0  0.18556073960626315  0.428089296398388  0.27600363150793306  1.0000
  H   H15       1.0  0.8451304736668557  0.6679741076795886  0.03299930675902596  1.0000
  H   H16       1.0  0.9860805918101617  0.6243765242682471  0.6368699275508702  1.0000
  H   H17       1.0  0.21062220797950892  0.5525194187002087  0.5518221016705129  1.0000
  Zn  Zn1       1.0  0.9641367164455037  0.56327214170433  0.4080743568125764  1.0000
  Zn  Zn2       1.0  0.16044839635235586  0.5632680068411868  0.4080695065330495  1.0000
  C   C22       1.0  0.06284729497742284  0.5601017575474907  0.6712442304641055  1.0000
  C   C23       1.0  0.06173994997228797  0.566440212613941  0.14489977123414466  1.0000
  C   C24       1.0  0.0605667964994139  0.8267011799980297  0.40189403985624317  1.0000
  C   C25       1.0  0.0640203928895682  0.2998390576412884  0.41425004153363365  1.0000
  O   O1        1.0  0.13633027951616503  0.5688875552148986  0.1985777471862411  1.0000
  O   O2        1.0  0.13725299440848082  0.5576501842833863  0.617562160291576  1.0000
  O   O3        1.0  0.13541046169330184  0.7729326042232796  0.4000599732182757  1.0000
  O   O4        1.0  0.1381727449648792  0.3536051445379782  0.4160798262091858  1.0000
  O   O5        1.0  0.9864123008414133  0.7729350040104463  0.4000640371305133  1.0000
  O   O6        1.0  0.9882548221257544  0.5576543165955734  0.6175661445062615  1.0000
  O   O7        1.0  0.9873321042295597  0.5688916202800174  0.1985799991466941  1.0000
  O   O8        1.0  0.989174569953172  0.35360920034303134  0.41608218621406867  1.0000
