data_image0
_chemical_formula_structural       NC9NC3NH7C6NO2H5C8H6Zn2C4O8
_chemical_formula_sum              "N4 C30 H18 O10 Zn2"
_cell_length_a       16.053384444249904
_cell_length_b       9.273392599741053
_cell_length_c       9.275144076552241
_cell_angle_alpha    86.08729211106984
_cell_angle_beta     90.26395466223778
_cell_angle_gamma    88.5803697124526

_space_group_name_H-M_alt    "P 1"
_space_group_IT_number       1

loop_
  _space_group_symop_operation_xyz
  'x, y, z'

loop_
  _atom_site_type_symbol
  _atom_site_label
  _atom_site_symmetry_multiplicity
  _atom_site_fract_x
  _atom_site_fract_y
  _atom_site_fract_z
  _atom_site_occupancy
  N   N1        1.0  0.7677969046313272  0.5484686576957698  0.4101902611384741  1.0000
  C   C1        1.0  0.7168023702240904  0.5247816953052737  0.327068261346542  1.0000
  C   C2        1.0  0.6534302566859771  0.4953505398691124  0.22381046101822208  1.0000
  C   C3        1.0  0.6664677494649535  0.48093914417433287  0.07868378338878301  1.0000
  C   C4        1.0  0.5897482265061631  0.45240945372546193  0.02062742596429  1.0000
  C   C5        1.0  0.5331792180922496  0.4510022601424881  0.13346544678167516  1.0000
  C   C6        1.0  0.4426335314211962  0.42446519640979424  0.12203505650714952  1.0000
  C   C7        1.0  0.3869275924385014  0.47262297506642187  0.22636352485040656  1.0000
  C   C8        1.0  0.3014798090547312  0.44745430970981065  0.2154159138005134  1.0000
  C   C9        1.0  0.24499416808634858  0.49756822054799943  0.32238113014056535  1.0000
  N   N2        1.0  0.199596341281867  0.5378527265392485  0.4083644145771692  1.0000
  C   C10       1.0  0.2710127490167392  0.3740035868341185  0.10015477951918172  1.0000
  C   C11       1.0  0.3257104090571238  0.3259802795877824  0.9960615269350539  1.0000
  C   C12       1.0  0.4109513268254884  0.3509618466761797  0.006568579003391799  1.0000
  N   N3        1.0  0.5727782587157978  0.4773682197329378  0.25733311698822847  1.0000
  H   H1        1.0  0.724884143153744  0.49013691509585033  0.02141743139189289  1.0000
  H   H2        1.0  0.5770686425354759  0.43633990314322885  0.9083020952470869  1.0000
  H   H3        1.0  0.4092992525978627  0.5314983003916027  0.3150568681842949  1.0000
  H   H4        1.0  0.2050674371544954  0.3539832920523278  0.09075217634634969  1.0000
  H   H5        1.0  0.30203630962540357  0.268926713937919  0.907112616329925  1.0000
  H   H6        1.0  0.4519365078834464  0.3110348210785647  0.9251868165863052  1.0000
  H   H7        1.0  0.547066891532883  0.4807050555337242  0.3602899285432266  1.0000
  C   C13       1.0  0.9862363287344135  0.11956328574058128  0.4083601739771947  1.0000
  C   C14       1.0  0.9750210419623713  0.20225543142458724  0.2767362328500811  1.0000
  C   C15       1.0  0.9564748483472987  0.13671940105134595  0.14992106541813288  1.0000
  C   C16       1.0  0.9485330188487747  0.9865073592737346  0.15119288890485746  1.0000
  C   C17       1.0  0.9610433468733535  0.9026079070984339  0.28180620910098736  1.0000
  C   C18       1.0  0.9811649968261542  0.966746895764389  0.4102068567673227  1.0000
  N   N4        1.0  0.9286709078500089  0.919556404071876  0.020156701737636507  1.0000
  O   O1        1.0  0.917150446928019  0.00203392929365709  0.8922372682307466  1.0000
  O   O2        1.0  0.92133487394225  0.7858051367223893  0.020417838734145374  1.0000
  H   H8        1.0  0.9708942041248111  0.19891963435436266  0.7621982523141705  1.0000
  H   H9        1.0  0.9786438401436989  0.31897865857724916  0.2724622410614512  1.0000
  H   H10       1.0  0.9475062348468997  0.20415736919122662  0.050891252726770426  1.0000
  H   H11       1.0  0.957023664723407  0.7861118303422392  0.2828492466798229  1.0000
  H   H12       1.0  0.9736779989204576  0.6705348798747232  0.6493328496501063  1.0000
  C   C19       1.0  0.9817557682213535  0.5402515634373608  0.9859998946164668  1.0000
  C   C20       1.0  0.9268679339486325  0.6356613017201598  0.05240839850846266  1.0000
  C   C21       1.0  0.8786229435031729  0.7380537356754984  0.9698953210266333  1.0000
  C   C22       1.0  0.8843917151833993  0.7471284719655149  0.8194603087092022  1.0000
  C   C23       1.0  0.9375504374903575  0.65165547663717  0.7513030557440534  1.0000
  C   C24       1.0  0.985645555712233  0.5460586904514992  0.8325672115060945  1.0000
  C   C25       1.0  0.8349128427389363  0.853515958434508  0.7345910775385307  1.0000
  C   C26       1.0  0.7934892249509302  0.9425872430074158  0.6635194743679755  1.0000
  H   H13       1.0  0.15610005208710875  0.3466348356468938  0.10345873766747093  1.0000
  H   H14       1.0  0.9227147752351396  0.6333388943972722  0.16909085937276047  1.0000
  H   H15       1.0  0.8373697392794465  0.8111821886780841  0.023663544491023144  1.0000
  H   H16       1.0  0.9399032583487396  0.6575907368138734  0.6342214099527128  1.0000
  H   H17       1.0  0.10125280994402441  0.4111611601382137  0.5619796491588298  1.0000
  H   H18       1.0  0.7571278904154125  0.020772834763611147  0.6011318835478624  1.0000
  Zn  Zn1       1.0  0.892404953638355  0.545401339288469  0.40967166922120213  1.0000
  Zn  Zn2       1.0  0.07498839329371987  0.5409083738039412  0.40889476169454186  1.0000
  C   C27       1.0  0.9849428416982883  0.5392144805897581  0.6725353062186061  1.0000
  C   C28       1.0  0.9824524887942317  0.5470970044717296  0.14603126165652508  1.0000
  C   C29       1.0  0.9820929039881765  0.8065718916918356  0.40411388342373267  1.0000
  C   C30       1.0  0.9853023749288411  0.2797378623572135  0.41445275778707447  1.0000
  O   O3        1.0  0.051975816061920595  0.5476830469295394  0.19944440426441168  1.0000
  O   O4        1.0  0.053996125043396896  0.5352172902372516  0.6185320914683545  1.0000
  O   O5        1.0  0.05169383713161602  0.7511118141642026  0.40177990067940916  1.0000
  O   O6        1.0  0.0542780411119832  0.33178853411328846  0.4161964872642312  1.0000
  O   O7        1.0  0.9131152435132806  0.7545211805138687  0.4023699439090547  1.0000
  O   O8        1.0  0.9154175206937524  0.5386283891341033  0.619122061619867  1.0000
  O   O9        1.0  0.9133972041058114  0.5510940836702409  0.20003264129816856  1.0000
  O   O10       1.0  0.915699429710781  0.33519956127803674  0.4167848323446566  1.0000
