data_image0
_chemical_formula_structural       NC11NC3H8C16H10C12NCOCH13Zn2C4O8
_chemical_formula_sum              "N3 C48 H31 O9 Zn2"
_cell_length_a       17.807433833752565
_cell_length_b       10.29914801576943
_cell_length_c       10.299158637457994
_cell_angle_alpha    85.55741753884429
_cell_angle_beta     88.50589662061446
_cell_angle_gamma    90.69784511463686

_space_group_name_H-M_alt    "P 1"
_space_group_IT_number       1

loop_
  _space_group_symop_operation_xyz
  'x, y, z'

loop_
  _atom_site_type_symbol
  _atom_site_label
  _atom_site_symmetry_multiplicity
  _atom_site_fract_x
  _atom_site_fract_y
  _atom_site_fract_z
  _atom_site_occupancy
  N   N1        1.0  0.7078835848651117  0.43807977930059666  0.5340430389341545  1.0000
  C   C1        1.0  0.6570470335534715  0.403373702301914  0.600620545601961  1.0000
  C   C2        1.0  0.5938012400557315  0.3602022022178655  0.6834344683217782  1.0000
  C   C3        1.0  0.6054969441977676  0.2966900981566687  0.8061806366650118  1.0000
  C   C4        1.0  0.5441591984221156  0.2551977064560651  0.8867099090431093  1.0000
  C   C5        1.0  0.4709712394450163  0.2769043508477411  0.8451339459734395  1.0000
  C   C6        1.0  0.4582988480282968  0.3405708562483877  0.7219275110375671  1.0000
  C   C7        1.0  0.3805433664205928  0.36360674700640555  0.6775703139283523  1.0000
  C   C8        1.0  0.36178116682567424  0.3466870636081434  0.5479952708101494  1.0000
  C   C9        1.0  0.2885632679599063  0.3683549610495729  0.5063752516227844  1.0000
  C   C10       1.0  0.23316469002528922  0.4072608054115399  0.5935098598268578  1.0000
  C   C11       1.0  0.15781041185127104  0.42958674091017884  0.5505282578154136  1.0000
  N   N2        1.0  0.0972309448350468  0.44753513439404125  0.51597417800461  1.0000
  C   C12       1.0  0.2512354530939824  0.42439089519875656  0.7225536754025221  1.0000
  C   C13       1.0  0.3244005385092226  0.402688155479187  0.7644291415211173  1.0000
  C   C14       1.0  0.520493902038332  0.38205868845674273  0.6414146565757968  1.0000
  H   H1        1.0  0.6619541697775359  0.2792859847267792  0.8395537740825831  1.0000
  H   H2        1.0  0.5533329750509312  0.20577485615592322  0.9814676238802388  1.0000
  H   H3        1.0  0.4243154880411991  0.2423679067093561  0.9085880590275527  1.0000
  H   H4        1.0  0.4034676648022514  0.3150181558721865  0.47929093264567085  1.0000
  H   H5        1.0  0.2751381698268828  0.3544375396727961  0.4063451893679166  1.0000
  H   H6        1.0  0.2088320940355871  0.45483649034165025  0.7907437426262718  1.0000
  H   H7        1.0  0.3372974549894228  0.41815105139613823  0.8642758102303125  1.0000
  H   H8        1.0  0.5120187514696576  0.4328440893272425  0.5468906992775555  1.0000
  C   C15       1.0  0.9025073269788201  0.061404926661083915  0.5251764531469356  1.0000
  C   C16       1.0  0.8853784783437083  0.07054073806474738  0.3924961761444578  1.0000
  C   C17       1.0  0.8767490265769743  0.9580443113132496  0.32505729048367815  1.0000
  C   C18       1.0  0.8854788404924105  0.835291217747933  0.39208692452820926  1.0000
  C   C19       1.0  0.9026143700463839  0.824200156299087  0.5248516451479279  1.0000
  C   C20       1.0  0.9110244492811795  0.9377703696162446  0.590578870047157  1.0000
  C   C21       1.0  0.8586289559074517  0.9687545081578628  0.18469755009137945  1.0000
  C   C22       1.0  0.8941889347902134  0.8886029676283369  0.09782880728025711  1.0000
  C   C23       1.0  0.8771087025242418  0.8988075751929265  0.9657288515721272  1.0000
  C   C24       1.0  0.8242931900805671  0.9890591396013024  0.9187015024107976  1.0000
  C   C25       1.0  0.7885964607780032  0.06918722225215991  0.004292638982517302  1.0000
  C   C26       1.0  0.805623124686914  0.05922258685458104  0.13641602747058945  1.0000
  C   C27       1.0  0.8067368016054884  0.9994417572845007  0.7826908630055848  1.0000
  C   C28       1.0  0.7920335154260877  0.008137101028694358  0.6687839231298485  1.0000
  C   C29       1.0  0.77481614097698  0.018319230542537483  0.5354000569630322  1.0000
  C   C30       1.0  0.7601153225710475  0.027013263558793865  0.42151151049451835  1.0000
  H   H9        1.0  0.9090571769379979  0.38536456868428465  0.5762268583916539  1.0000
  H   H10       1.0  0.87972060471463  0.1654403714844639  0.340848193670473  1.0000
  H   H11       1.0  0.8778817393978812  0.7481953477077293  0.3410235241554602  1.0000
  H   H12       1.0  0.9242341723588317  0.9300077399920248  0.6929195310570141  1.0000
  H   H13       1.0  0.9344915080795763  0.5959485592810545  0.775637927449879  1.0000
  H   H14       1.0  0.935915921258935  0.8192242685930222  0.13174235332488712  1.0000
  H   H15       1.0  0.9052277070868469  0.8365449182228565  0.9002484613087071  1.0000
  H   H16       1.0  0.7474672780705431  0.13914430825308194  0.968981444796682  1.0000
  H   H17       1.0  0.7766284894119024  0.12107388896604387  0.2011342595236678  1.0000
  H   H18       1.0  0.7472068205610952  0.03464736037778416  0.3215077609656247  1.0000
  C   C31       1.0  0.9026312677043626  0.4426662783953619  0.1436377330986649  1.0000
  C   C32       1.0  0.9043959919126056  0.5794240071387147  0.13218496155596782  1.0000
  C   C33       1.0  0.90523178717881  0.648900505451949  0.009223292468941937  1.0000
  C   C34       1.0  0.9042522253623814  0.579780416072978  0.896880003998636  1.0000
  C   C35       1.0  0.902490438498881  0.44293884264720496  0.9063903682620129  1.0000
  C   C36       1.0  0.9016940921294083  0.3752232607523527  0.030156114537461587  1.0000
  C   C37       1.0  0.9070995491584152  0.7935734228669491  0.9980811623082906  1.0000
  C   C38       1.0  0.9532200791638108  0.8625331307536337  0.07847972611613696  1.0000
  C   C39       1.0  0.9549838643613665  0.9986781247902281  0.06786325259300052  1.0000
  C   C40       1.0  0.9111385306488479  0.068604733005321  0.9757187100238363  1.0000
  C   C41       1.0  0.8641233726893836  0.9999837176063098  0.8971445925268074  1.0000
  C   C42       1.0  0.8623904350863559  0.8638673845265825  0.9074986359068834  1.0000
  N   N3        1.0  0.9108712868536648  0.20865611281971708  0.9644370022762621  1.0000
  C   C43       1.0  0.9752489889717019  0.28921413231779264  0.9846477895381596  1.0000
  O   O1        1.0  0.04001570105968289  0.24137013478798022  0.9901789389124904  1.0000
  C   C44       1.0  0.9664566602543485  0.43282797505224174  0.9895980729290397  1.0000
  H   H19       1.0  0.9019760160338286  0.39006211580222594  0.47551764074906305  1.0000
  H   H20       1.0  0.9040749927768801  0.6322379453663849  0.21912856330108532  1.0000
  H   H21       1.0  0.9058883966632855  0.6328382563139132  0.8018102311556072  1.0000
  H   H22       1.0  0.9003354908958295  0.269738891900017  0.03827488831287917  1.0000
  H   H23       1.0  0.8996212413982317  0.18465322868085754  0.7170273074274212  1.0000
  H   H24       1.0  0.9883744916501616  0.8111553810664422  0.14906271590124875  1.0000
  H   H25       1.0  0.9896579339782069  0.048863959180545986  0.13326491623450698  1.0000
  H   H26       1.0  0.8289904739225702  0.052237071404601654  0.8271295279432929  1.0000
  H   H27       1.0  0.8252551090293754  0.8135749942555596  0.845895456248761  1.0000
  H   H28       1.0  0.8621782809236129  0.25493262563522334  0.9317301219550664  1.0000
  H   H29       1.0  0.9136334661781635  0.45326168250218046  0.04345819776890369  1.0000
  H   H30       1.0  0.964443345927479  0.47945038662772044  0.8889531407963437  1.0000
  H   H31       1.0  0.014392033544164965  0.4747631950456537  0.04001114226582247  1.0000
  Zn  Zn1       1.0  0.8202408205157341  0.44080491826215806  0.5288362421224004  1.0000
  Zn  Zn2       1.0  0.9848736909787715  0.4447993786847899  0.521191565557724  1.0000
  C   C45       1.0  0.9025146538178902  0.4377131257296669  0.7622160437846216  1.0000
  C   C46       1.0  0.9026016556688912  0.44789285364658565  0.28781180718692556  1.0000
  C   C47       1.0  0.9025912314620456  0.680013688586526  0.5197379258853789  1.0000
  C   C48       1.0  0.9025250216152668  0.20559072901098532  0.5302899975992463  1.0000
  O   O2        1.0  0.9650690331533835  0.4511571507172796  0.3332968309946133  1.0000
  O   O3        1.0  0.9649998156010466  0.4374795517515735  0.7109285139140942  1.0000
  O   O4        1.0  0.9650608105437186  0.6331403006151048  0.5151257566714269  1.0000
  O   O5        1.0  0.9650079820519477  0.255496409746959  0.5290994934653805  1.0000
  O   O6        1.0  0.8401064732614406  0.6301078858382876  0.5209283168166647  1.0000
  O   O7        1.0  0.8400454785471196  0.43444869739179537  0.7167310041481765  1.0000
  O   O8        1.0  0.8401146964313656  0.4481262505408331  0.339097759814718  1.0000
  O   O9        1.0  0.8400536453075761  0.2524655003156002  0.5349005196593065  1.0000
