data_image0
_chemical_formula_structural       NC9NC5H8C12H10C8NH7Zn2C4O8
_chemical_formula_sum              "N3 C38 H25 Zn2 O8"
_cell_length_a       17.807436237873137
_cell_length_b       10.299137764757564
_cell_length_c       9.274266800404106
_cell_angle_alpha    85.96615715637442
_cell_angle_beta     88.95510806583813
_cell_angle_gamma    88.40860916225229

_space_group_name_H-M_alt    "P 1"
_space_group_IT_number       1

loop_
  _space_group_symop_operation_xyz
  'x, y, z'

loop_
  _atom_site_type_symbol
  _atom_site_label
  _atom_site_symmetry_multiplicity
  _atom_site_fract_x
  _atom_site_fract_y
  _atom_site_fract_z
  _atom_site_occupancy
  N   N1        1.0  0.714212840398953  0.37680452286632216  0.3977900521781068  1.0000
  C   C1        1.0  0.6536685287714423  0.34152802112053937  0.3855669766263356  1.0000
  C   C2        1.0  0.5783580595572564  0.29764793766983755  0.37036279778567516  1.0000
  C   C3        1.0  0.5607286866363782  0.22542424283255103  0.2538329138341213  1.0000
  C   C4        1.0  0.4876064594547161  0.1827079255324078  0.23897895869100694  1.0000
  C   C5        1.0  0.4310649615842593  0.21183749937900556  0.3406190149390538  1.0000
  C   C6        1.0  0.3533545337473626  0.166556608347745  0.3249241682115782  1.0000
  C   C7        1.0  0.2910762907341496  0.24851688415285134  0.35368507530030757  1.0000
  C   C8        1.0  0.2178116579270512  0.20559761971075274  0.33884638774326126  1.0000
  C   C9        1.0  0.15448219076938086  0.29025221583928706  0.36801017302348393  1.0000
  N   N2        1.0  0.10357828964254738  0.3583086627524166  0.3914570522789067  1.0000
  C   C10       1.0  0.206241788837623  0.08045988795192341  0.29521875637616607  1.0000
  C   C11       1.0  0.2676626973894496  0.9984856946874007  0.2664485418267155  1.0000
  C   C12       1.0  0.3408087403734639  0.04100884090168445  0.28106255893831156  1.0000
  C   C13       1.0  0.4493848402711193  0.28455727233087935  0.4573920576884177  1.0000
  C   C14       1.0  0.5225606075505966  0.32708199082390355  0.4720733086448548  1.0000
  H   H1        1.0  0.6034441859141707  0.2023885360464324  0.1742371751943217  1.0000
  H   H2        1.0  0.4750592996615977  0.12838726054565086  0.14695454662651097  1.0000
  H   H3        1.0  0.2994615548485047  0.346209418273445  0.38570117583387864  1.0000
  H   H4        1.0  0.1498182593910658  0.04634043249990306  0.28347147619071356  1.0000
  H   H5        1.0  0.25858468337569795  0.9016041264121677  0.23309959881680983  1.0000
  H   H6        1.0  0.387523308415506  0.9751135446009755  0.2599440926085199  1.0000
  H   H7        1.0  0.4073802539998699  0.3070638026973169  0.5384249681414675  1.0000
  H   H8        1.0  0.535641068821631  0.3826153504198966  0.5629409772964722  1.0000
  C   C15       1.0  0.9088261995496486  0.9861610580397789  0.3947818488647563  1.0000
  C   C16       1.0  0.9094122977487537  0.9949676764704932  0.24298770443178672  1.0000
  C   C17       1.0  0.9097843716416006  0.8822966496244662  0.16586535933786672  1.0000
  C   C18       1.0  0.9095623802881069  0.759702697049554  0.24258886710759198  1.0000
  C   C19       1.0  0.9089720463844254  0.7489419085042661  0.3944776742909999  1.0000
  C   C20       1.0  0.9086088499213653  0.8626820949779871  0.469639053504296  1.0000
  C   C21       1.0  0.91040351586509  0.8926581376613507  0.005282166059340512  1.0000
  C   C22       1.0  0.956032157005825  0.8076555991987061  0.9269930306282451  1.0000
  C   C23       1.0  0.9565215774077419  0.8176636168701963  0.7758387990286173  1.0000
  C   C24       1.0  0.9115778056200551  0.9122805459928038  0.7012618391273725  1.0000
  C   C25       1.0  0.8660508448662567  0.9971514275228825  0.7776877711694308  1.0000
  C   C26       1.0  0.8653725104355706  0.9876472871080496  0.9288460494769306  1.0000
  H   H9        1.0  0.9085624048678558  0.3102512086343534  0.4531725382200807  1.0000
  H   H10       1.0  0.9106205084036423  0.08964363558015642  0.18436127250736334  1.0000
  H   H11       1.0  0.9088120779876733  0.6725742946976476  0.18372071021980374  1.0000
  H   H12       1.0  0.9081547221298861  0.8551739162982355  0.5867213937421807  1.0000
  H   H13       1.0  0.9073800915779097  0.5213626118604779  0.6811676007963359  1.0000
  H   H14       1.0  0.9920150805872644  0.7346591194341975  0.9825954283613818  1.0000
  H   H15       1.0  0.9919370607294454  0.7521780579309273  0.716486820219469  1.0000
  H   H16       1.0  0.9120298255106563  0.9198325098142247  0.5842569263105201  1.0000
  H   H17       1.0  0.8310884061111065  0.0702057922175754  0.7197726513229319  1.0000
  H   H18       1.0  0.8289546271123683  0.05337254110952939  0.9859195752018491  1.0000
  C   C27       1.0  0.9106265638467531  0.36462970418238183  0.9712920541718811  1.0000
  C   C28       1.0  0.8669490588284733  0.27372882348063193  0.05318873041349503  1.0000
  C   C29       1.0  0.8187271868779669  0.19314478646768096  0.9861088196838305  1.0000
  C   C30       1.0  0.8125757727487499  0.20226462843370657  0.8355075156388976  1.0000
  C   C31       1.0  0.8572840922160004  0.2900114763812649  0.7522890508758335  1.0000
  C   C32       1.0  0.9071716668477702  0.37047326206909464  0.8179674150277636  1.0000
  C   C33       1.0  0.761385331166269  0.11398277627561673  0.7632942132388174  1.0000
  C   C34       1.0  0.8020468682501821  0.9933127513525857  0.7314647560096134  1.0000
  N   N3        1.0  0.8341437236603244  0.8980759824064295  0.7063410638226761  1.0000
  H   H19       1.0  0.9934444943326707  0.6465415955787719  0.049267216407415715  1.0000
  H   H20       1.0  0.8688659361989093  0.26691127819779537  0.17017423737742088  1.0000
  H   H21       1.0  0.7855578987127272  0.12430998058979982  0.05192014627278119  1.0000
  H   H22       1.0  0.8543587974590883  0.293113863713494  0.6354444617701813  1.0000
  H   H23       1.0  0.9656596800478546  0.5576233597800859  0.5206009820014641  1.0000
  H   H24       1.0  0.7399645012995071  0.16255660762212637  0.6608547647674965  1.0000
  H   H25       1.0  0.7121050326434993  0.08963803248113879  0.8342678733554334  1.0000
  Zn  Zn1       1.0  0.8265752624177618  0.3714636091855071  0.3959708239275636  1.0000
  Zn  Zn2       1.0  0.9912157990417294  0.36363907132019335  0.3932881363003149  1.0000
  C   C35       1.0  0.9078220675144105  0.3641947474040915  0.6579297623159654  1.0000
  C   C36       1.0  0.9099707915505997  0.3709094873679144  0.13132930945737595  1.0000
  C   C37       1.0  0.9089640577046352  0.60472062723615  0.3887905309444273  1.0000
  C   C38       1.0  0.9088287445680755  0.1303820503252695  0.4004686192247946  1.0000
  O   O1        1.0  0.9722309329114469  0.3700420024943889  0.1840212105755905  1.0000
  O   O2        1.0  0.970520285434469  0.35912260643059346  0.6032013487656269  1.0000
  O   O3        1.0  0.9714416085755401  0.5533503466341108  0.3858695284140605  1.0000
  O   O4        1.0  0.9713095540325551  0.17581427350570822  0.4013529237483422  1.0000
  O   O5        1.0  0.8464814512432325  0.5592884096714843  0.3879060373874228  1.0000
  O   O6        1.0  0.8455601287107567  0.3650622293500447  0.6052377802509958  1.0000
  O   O7        1.0  0.8472707833015246  0.37598156819000383  0.18605590884890488  1.0000
  O   O8        1.0  0.8463494039767497  0.1817538306579787  0.4033877301083579  1.0000
