data_image0
_chemical_formula_structural       NC9NC5H8C6ClH5C7F3H5Zn2C4O8
_chemical_formula_sum              "N2 C31 H18 Cl1 F3 Zn2 O8"
_cell_length_a       17.807436237873137
_cell_length_b       10.30297070629231
_cell_length_c       9.272291681409872
_cell_angle_alpha    86.0604796427724
_cell_angle_beta     89.81650948764641
_cell_angle_gamma    88.39001192287226

_space_group_name_H-M_alt    "P 1"
_space_group_IT_number       1

loop_
  _space_group_symop_operation_xyz
  'x, y, z'

loop_
  _atom_site_type_symbol
  _atom_site_label
  _atom_site_symmetry_multiplicity
  _atom_site_fract_x
  _atom_site_fract_y
  _atom_site_fract_z
  _atom_site_occupancy
  N   N1        1.0  0.7014295932532315  0.3749960970887585  0.39835394120474055  1.0000
  C   C1        1.0  0.6407963692643777  0.33972354646522324  0.386116909108297  1.0000
  C   C2        1.0  0.5653753027162747  0.29584837776046724  0.3708953698631618  1.0000
  C   C3        1.0  0.5468486096510783  0.2235599729926767  0.254337755914799  1.0000
  C   C4        1.0  0.4736183039378262  0.18084839791509455  0.2394669012804025  1.0000
  C   C5        1.0  0.4178658383189993  0.21004754183738195  0.3411176376857803  1.0000
  C   C6        1.0  0.3400412410861701  0.16477171823422676  0.3254048763971289  1.0000
  C   C7        1.0  0.2779724055291825  0.24672310229804112  0.35419820632626053  1.0000
  C   C8        1.0  0.2045998517027637  0.2038086709010012  0.33934253819587745  1.0000
  C   C9        1.0  0.14148243455675683  0.28845365131013034  0.3685398171734995  1.0000
  N   N2        1.0  0.0907490164535197  0.356502368812349  0.3920136230365472  1.0000
  C   C10       1.0  0.1927124835339547  0.07868474171546458  0.2956654006993813  1.0000
  C   C11       1.0  0.2539239144914087  0.9967194381827587  0.26686275784469604  1.0000
  C   C12       1.0  0.3271761967631716  0.03923772617099575  0.2814935996186012  1.0000
  C   C13       1.0  0.4370848446045633  0.28283202585852485  0.4579186060393469  1.0000
  C   C14       1.0  0.5103673764365518  0.32535193900578924  0.47261668166497484  1.0000
  H   H1        1.0  0.5889462489359425  0.2004698717263224  0.1747335641844847  1.0000
  H   H2        1.0  0.46036201398658827  0.12647557861092285  0.14742167342085444  1.0000
  H   H3        1.0  0.2865895639618986  0.34440323556043095  0.3862529741552445  1.0000
  H   H4        1.0  0.1362035433737128  0.04456916736950656  0.28390462104405767  1.0000
  H   H5        1.0  0.24460343494539893  0.8998488959999934  0.23347548327074527  1.0000
  H   H6        1.0  0.3737380763254893  0.973351173909672  0.26034904713278717  1.0000
  H   H7        1.0  0.39570945207804376  0.30539429923262906  0.5389597452749886  1.0000
  H   H8        1.0  0.524147697650454  0.38093606251707746  0.5635056604397253  1.0000
  C   C15       1.0  0.8960929034985039  0.9845016786239382  0.3951899656675999  1.0000
  C   C16       1.0  0.9737673421115138  0.9778875016347364  0.4216934970040036  1.0000
  C   C17       1.0  0.012307325011433175  0.8576488788623616  0.4348437410935641  1.0000
  C   C18       1.0  0.9737673412585444  0.7427795324715235  0.4216934292153282  1.0000
  C   C19       1.0  0.8960929118238334  0.7469866206909149  0.3951900480605197  1.0000
  C   C20       1.0  0.857634320214661  0.8684231373552962  0.3820674434909354  1.0000
  Cl  Cl1       1.0  0.10934120486982414  0.8508897121120856  0.46795286695385796  1.0000
  H   H9        1.0  0.8668342998774676  0.3142962353654712  0.3852057425116413  1.0000
  H   H10       1.0  0.004660353596387389  0.06578214625913881  0.43223447176358  1.0000
  H   H11       1.0  0.004660323501482381  0.6505809540451127  0.4322343686740593  1.0000
  H   H12       1.0  0.7977294358522931  0.8725958638843683  0.3616270793848362  1.0000
  H   H13       1.0  0.8668342972305763  0.42126827095805297  0.3852060147471712  1.0000
  C   C21       1.0  0.8945117128146763  0.3624866855022699  0.9718550216947469  1.0000
  C   C22       1.0  0.9450344940189772  0.27837945939103487  0.051251604175582825  1.0000
  C   C23       1.0  0.9996393368883103  0.20571171244561426  0.9815653136086322  1.0000
  C   C24       1.0  0.005906982630769609  0.21673267090616144  0.8305709023393155  1.0000
  C   C25       1.0  0.9538873670117329  0.2966099189232154  0.7500284989599475  1.0000
  C   C26       1.0  0.897674106365171  0.3690016122329245  0.8185249013596065  1.0000
  C   C27       1.0  0.06358019958404748  0.13536615818463085  0.7550463299784993  1.0000
  F   F1        1.0  0.12648077018739248  0.11045706807938015  0.8409411040954325  1.0000
  F   F2        1.0  0.08606482676261584  0.19926857167718315  0.6266077309490719  1.0000
  F   F3        1.0  0.03262971693049188  0.018530259280694846  0.7255913130973952  1.0000
  H   H14       1.0  0.7887243648842771  0.6298584466231675  0.05366847084174874  1.0000
  H   H15       1.0  0.9433006688450868  0.2707107754735507  0.16832652761262354  1.0000
  H   H16       1.0  0.037482262379944675  0.1415856615538349  0.046162360893790444  1.0000
  H   H17       1.0  0.9560291591156994  0.29997116862365947  0.6330058257397004  1.0000
  H   H18       1.0  0.7274313824384968  0.5014587958028343  0.7079550761283926  1.0000
  Zn  Zn1       1.0  0.8137787989740449  0.36965580656546515  0.39653259962372656  1.0000
  Zn  Zn2       1.0  0.9783998368017417  0.3618321677272882  0.3938468160893198  1.0000
  C   C28       1.0  0.8970746787231528  0.3625981716076692  0.6584862225770705  1.0000
  C   C29       1.0  0.8951057552377913  0.3688913564375944  0.13189330530029705  1.0000
  C   C30       1.0  0.8960675993848269  0.6028166860541014  0.38944540255536086  1.0000
  C   C31       1.0  0.8961127786894856  0.12867128544662587  0.4009342030961023  1.0000
  O   O1        1.0  0.9577779472273166  0.36806612840824804  0.18458437439164288  1.0000
  O   O2        1.0  0.9593460438232789  0.3574844561818867  0.6037562909436147  1.0000
  O   O3        1.0  0.9585319779565945  0.5514639961332966  0.38650393900775315  1.0000
  O   O4        1.0  0.9585919565162645  0.1740865995820577  0.4018366191541509  1.0000
  O   O5        1.0  0.8335866230824127  0.5574013773818739  0.3885427974678386  1.0000
  O   O6        1.0  0.8344006886586189  0.3634233966461793  0.6057950725385484  1.0000
  O   O7        1.0  0.8328325856388576  0.37400501029198185  0.18662142276768698  1.0000
  O   O8        1.0  0.8336465953284325  0.18002547301175115  0.40387377561249216  1.0000
