data_image0
_chemical_formula_structural       NC10NC5H10C13OH12C12NCOH11Zn2C4O8
_chemical_formula_sum              "N3 C45 H33 O10 Zn2"
_cell_length_a       19.4436361288709
_cell_length_b       10.299150109392551
_cell_length_c       10.299148425239203
_cell_angle_alpha    85.51660845067315
_cell_angle_beta     89.68967150439464
_cell_angle_gamma    89.39953782186458

_space_group_name_H-M_alt    "P 1"
_space_group_IT_number       1

loop_
  _space_group_symop_operation_xyz
  'x, y, z'

loop_
  _atom_site_type_symbol
  _atom_site_label
  _atom_site_symmetry_multiplicity
  _atom_site_fract_x
  _atom_site_fract_y
  _atom_site_fract_z
  _atom_site_occupancy
  N   N1        1.0  0.6475986472439061  0.4100218869540912  0.5615163666359695  1.0000
  C   C1        1.0  0.5887599052911909  0.4199160365205616  0.5758981189391981  1.0000
  C   C2        1.0  0.5154271171120934  0.4322553355752272  0.5938876683499363  1.0000
  C   C3        1.0  0.47325610035180155  0.4003120661851396  0.49921749920985903  1.0000
  C   C4        1.0  0.3973492027508022  0.4107480191934607  0.5045424982139297  1.0000
  C   C5        1.0  0.3576058822333857  0.3859346271739932  0.6116312037109755  1.0000
  C   C6        1.0  0.281485665006218  0.38985924599429816  0.5986695480133766  1.0000
  C   C7        1.0  0.24090536324311065  0.44746948133203834  0.6924280465649579  1.0000
  C   C8        1.0  0.16924215594099123  0.4511137792310808  0.6818821432421793  1.0000
  C   C9        1.0  0.1371645413111417  0.3967516290296289  0.5778644214127078  1.0000
  C   C10       1.0  0.06337209081699671  0.4004572671816548  0.5671632040435879  1.0000
  N   N2        1.0  0.0040479656664376  0.40343640571982387  0.558560134739911  1.0000
  C   C11       1.0  0.17702004530846593  0.3384340198583835  0.4844894220656127  1.0000
  C   C12       1.0  0.24869971087975512  0.33473564312915016  0.494783547140161  1.0000
  C   C13       1.0  0.3857354292084859  0.3453928511761629  0.7427491415095748  1.0000
  C   C14       1.0  0.44438777524303363  0.3884900819454513  0.7899808204505069  1.0000
  C   C15       1.0  0.4885839799841938  0.4864001336598356  0.7155752246498457  1.0000
  H   H1        1.0  0.4953673203166668  0.3712462872719222  0.4089136059173652  1.0000
  H   H2        1.0  0.37265420197636634  0.43329975878033977  0.4113696706135405  1.0000
  H   H3        1.0  0.26476188173056314  0.49071577966976454  0.7732680192121748  1.0000
  H   H4        1.0  0.1388836805986761  0.49638866976420637  0.7547933820473018  1.0000
  H   H5        1.0  0.1526915837588055  0.2953831958308255  0.4039838923128052  1.0000
  H   H6        1.0  0.2783929062444451  0.28721677335979057  0.42256944057860885  1.0000
  H   H7        1.0  0.3547760890016323  0.28113258615438785  0.8070222517426999  1.0000
  H   H8        1.0  0.45953591857792486  0.35436202917791176  0.8879339455323374  1.0000
  H   H9        1.0  0.4584611508904744  0.5771365237839201  0.6902912157984815  1.0000
  H   H10       1.0  0.5318596298330118  0.5119506831825882  0.7786564153838063  1.0000
  C   C16       1.0  0.8258914007115322  0.02532818716890439  0.5601818459771224  1.0000
  C   C17       1.0  0.8246059331326183  0.013490220206396904  0.6970125394192248  1.0000
  C   C18       1.0  0.8238943640432622  0.890354735597743  0.7661253890287616  1.0000
  C   C19       1.0  0.824473374735203  0.7782374773226987  0.6966502190843877  1.0000
  C   C20       1.0  0.8257617900560372  0.7881199473030281  0.5599059060418679  1.0000
  C   C21       1.0  0.8264651653079889  0.9121254854461359  0.49247082697604627  1.0000
  C   C22       1.0  0.8225285004631511  0.8788134076577538  0.9107866693511018  1.0000
  C   C23       1.0  0.7802267501182666  0.7866860936381209  0.9791635322455671  1.0000
  C   C24       1.0  0.7789186870470945  0.7759075458734779  0.11528984143405296  1.0000
  C   C25       1.0  0.8203398440034226  0.8560887416936338  0.18549640763150932  1.0000
  C   C26       1.0  0.8619834813807352  0.9491815788375507  0.11776761804677294  1.0000
  C   C27       1.0  0.8633075100344032  0.9601356287878376  0.9816408877159699  1.0000
  C   C28       1.0  0.817488079452223  0.8468875379622095  0.33161626376414155  1.0000
  O   O1        1.0  0.7660759068294867  0.9309958739207657  0.37228604001634724  1.0000
  H   H11       1.0  0.8278709367863308  0.2549739960504922  0.3019112059230977  1.0000
  H   H12       1.0  0.8232016716724447  0.10026592060689232  0.7500363677080049  1.0000
  H   H13       1.0  0.8248586270842704  0.6830842152292553  0.7494841316093512  1.0000
  H   H14       1.0  0.8274570123895424  0.920464374773376  0.38699586275305964  1.0000
  H   H15       1.0  0.826211066547335  0.4644464791334382  0.5073096312877339  1.0000
  H   H16       1.0  0.7473412528427756  0.724308413049292  0.9273240285114579  1.0000
  H   H17       1.0  0.7454541818562407  0.7051735736990822  0.16594636413009833  1.0000
  H   H18       1.0  0.8936019710329004  0.013135302853791936  0.1703638861129445  1.0000
  H   H19       1.0  0.8967949504601797  0.03131424813475813  0.9317908729250302  1.0000
  H   H20       1.0  0.8680745507257913  0.8737640924230439  0.37136946612675725  1.0000
  H   H21       1.0  0.8063056209854396  0.7450558628502304  0.3695241579978147  1.0000
  H   H22       1.0  0.7663175468073702  0.9212707847472384  0.4689172876171778  1.0000
  C   C29       1.0  0.8258783007698037  0.4068789878936414  0.17864716629223354  1.0000
  C   C30       1.0  0.8956549493189438  0.4411516202839987  0.17408613227020253  1.0000
  C   C31       1.0  0.9309239558738138  0.45831635909611346  0.05464243905894795  1.0000
  C   C32       1.0  0.8955100139729103  0.44081412013572946  0.9388303028361896  1.0000
  C   C33       1.0  0.8257748806984893  0.40656919670888825  0.9414405260582092  1.0000
  C   C34       1.0  0.791368141413847  0.38979342840410386  0.061851306249672604  1.0000
  C   C35       1.0  0.004697720549793788  0.4945491921958245  0.05091042807219237  1.0000
  C   C36       1.0  0.050924258947517835  0.43631958052712827  0.9669498488275989  1.0000
  C   C37       1.0  0.12031203103772926  0.4705538431920682  0.9635873713656896  1.0000
  C   C38       1.0  0.14509816305155265  0.5623763109291131  0.04485728031682123  1.0000
  C   C39       1.0  0.09880305316303462  0.6224535537176215  0.1272493610137877  1.0000
  C   C40       1.0  0.029384180448390532  0.5883265427915438  0.1307088989046179  1.0000
  N   N3        1.0  0.216521681390061  0.5972666331188339  0.03771638481960538  1.0000
  C   C41       1.0  0.25607767570239615  0.63321181685895  0.14610510823622747  1.0000
  O   O2        1.0  0.2328079836382455  0.6194780442428751  0.26066341367547996  1.0000
  H   H23       1.0  0.6942878723387551  0.34142511282702537  0.3946081322764792  1.0000
  H   H24       1.0  0.9229412268289551  0.452843899596747  0.26378181041007087  1.0000
  H   H25       1.0  0.9221933314213921  0.45571406093282607  0.8463705187979977  1.0000
  H   H26       1.0  0.7375804949950995  0.3633759124590017  0.06457972684453894  1.0000
  H   H27       1.0  0.7989548990205242  0.3933613417147779  0.6149713465688391  1.0000
  H   H28       1.0  0.033596162269337926  0.3631240277427765  0.9049474137294227  1.0000
  H   H29       1.0  0.1550723397191045  0.42437003097204307  0.898360716458045  1.0000
  H   H30       1.0  0.11574047832119905  0.6978210362803976  0.18684764126997266  1.0000
  H   H31       1.0  0.9947045762093769  0.6371753319354947  0.19404134200627743  1.0000
  H   H32       1.0  0.24297610519544022  0.5878378451986763  0.9503171599739413  1.0000
  H   H33       1.0  0.3077147601597201  0.6693005630603077  0.12983953511428314  1.0000
  Zn  Zn1       1.0  0.7504622216499258  0.40811798461241056  0.5606707759113856  1.0000
  Zn  Zn2       1.0  0.9011843831300107  0.4053296951506127  0.5594164112604387  1.0000
  C   C42       1.0  0.8257937800624837  0.4014536680322931  0.7972581621209628  1.0000
  C   C43       1.0  0.8258544703030347  0.41199561998791995  0.3228291382361066  1.0000
  C   C44       1.0  0.8257834500861012  0.6439382738116077  0.5547825268963968  1.0000
  C   C45       1.0  0.8258647491042351  0.16950945469850717  0.5653048436969068  1.0000
  O   O3        1.0  0.8830447483300258  0.4126490009237731  0.37074190234111337  1.0000
  O   O4        1.0  0.8829981353426277  0.3986830602587427  0.7483929907511127  1.0000
  O   O5        1.0  0.8829890225128716  0.5944924597777095  0.5525922056804917  1.0000
  O   O6        1.0  0.883053809740141  0.2168396116868114  0.5665425904546413  1.0000
  O   O7        1.0  0.7685927436057192  0.5966080690291351  0.5535445971384039  1.0000
  O   O8        1.0  0.7686018561765814  0.4008002299731894  0.7493453123940121  1.0000
  O   O9        1.0  0.7686484694291081  0.41476612601179075  0.37169266248556787  1.0000
  O   O10       1.0  0.7686575308247882  0.21895672744574732  0.567493447977411  1.0000
