data_image0
_chemical_formula_structural       NC9NC3NH7C9H10C7NC2NH8Zn2C4O8
_chemical_formula_sum              "N5 C34 H25 Zn2 O8"
_cell_length_a       16.053384444249904
_cell_length_b       9.272676604525723
_cell_length_c       9.27399911348925
_cell_angle_alpha    85.31615258212881
_cell_angle_beta     89.45501548333611
_cell_angle_gamma    89.72820801156413

_space_group_name_H-M_alt    "P 1"
_space_group_IT_number       1

loop_
  _space_group_symop_operation_xyz
  'x, y, z'

loop_
  _atom_site_type_symbol
  _atom_site_label
  _atom_site_symmetry_multiplicity
  _atom_site_fract_x
  _atom_site_fract_y
  _atom_site_fract_z
  _atom_site_occupancy
  N   N1        1.0  0.7986093121521004  0.5724822705448258  0.411464355827317  1.0000
  C   C1        1.0  0.7480159987275263  0.5500924070970088  0.3281828516437062  1.0000
  C   C2        1.0  0.6851422281941378  0.5222725674096345  0.22472689461981088  1.0000
  C   C3        1.0  0.6991917286801993  0.5101151365205433  0.07937995225533356  1.0000
  C   C4        1.0  0.622613877520112  0.4824961622603818  0.021186291236973135  1.0000
  C   C5        1.0  0.5651122143495921  0.4793414890421856  0.13416831874109403  1.0000
  C   C6        1.0  0.4743525737709527  0.4529920404121939  0.12266569212718138  1.0000
  C   C7        1.0  0.4183560866881466  0.4995144788833623  0.22723417641751054  1.0000
  C   C8        1.0  0.3327062480603347  0.47452540609958227  0.2162179149711041  1.0000
  C   C9        1.0  0.2759312592429587  0.5229623524111486  0.3234308101517107  1.0000
  N   N2        1.0  0.23030085096561717  0.5618988412105946  0.4096131912539945  1.0000
  C   C10       1.0  0.3023261227731948  0.4028894338217004  0.100647865283787  1.0000
  C   C11       1.0  0.3573139752290803  0.35649776948720757  0.996315193841335  1.0000
  C   C12       1.0  0.4427583631761888  0.381306643269218  0.006889917905257721  1.0000
  N   N3        1.0  0.6040100985194033  0.5037780710344433  0.25825438064864437  1.0000
  H   H1        1.0  0.7581795285587095  0.5201964000790793  0.022058846668093983  1.0000
  H   H2        1.0  0.6106607438298164  0.46817309059587675  0.9086798586742697  1.0000
  H   H3        1.0  0.4406880763931265  0.556992419775184  0.31617031863493317  1.0000
  H   H4        1.0  0.2362257262563972  0.38302275210640424  0.09118974958657433  1.0000
  H   H5        1.0  0.3337026823249032  0.30084482381788535  0.9071270877142883  1.0000
  H   H6        1.0  0.483942888223812  0.342656208054837  0.9253158278297541  1.0000
  H   H7        1.0  0.5775011680345244  0.5055186183854361  0.36135257275029176  1.0000
  C   C13       1.0  0.012105216569847647  0.14377560819218682  0.4087051164767397  1.0000
  C   C14       1.0  0.9783458451100977  0.20767598331838322  0.5283800697544765  1.0000
  C   C15       1.0  0.9521955202081951  0.1231235140293303  0.6515497410472957  1.0000
  C   C16       1.0  0.9589601070282957  0.9721425497399616  0.6591888903962331  1.0000
  C   C17       1.0  0.9913585647696944  0.9068354203820095  0.5384077984287035  1.0000
  C   C18       1.0  0.016812822697305  0.9905941315324076  0.41238482509843477  1.0000
  C   C19       1.0  0.9297772883594939  0.8880517172108421  0.7979564736374076  1.0000
  C   C20       1.0  0.8877275172564372  0.7431115358376211  0.7837667109424353  1.0000
  C   C21       1.0  0.9754727617540117  0.7478795744263511  0.8444587550967471  1.0000
  H   H8        1.0  0.03142530766474261  0.4441578315908081  0.17211755757074232  1.0000
  H   H9        1.0  0.973951047979662  0.32430744441516435  0.5282601716144658  1.0000
  H   H10       1.0  0.9272033999849147  0.17640435781048358  0.742340714464979  1.0000
  H   H11       1.0  0.9953277835765464  0.7903262679865936  0.5397309994992119  1.0000
  H   H12       1.0  0.03965608908253393  0.9162517469003263  0.05889396117294465  1.0000
  H   H13       1.0  0.9058811501354238  0.9479805413528166  0.8889306744626899  1.0000
  H   H14       1.0  0.8842443419326192  0.7048910246753557  0.6737546718012581  1.0000
  H   H15       1.0  0.8391620014191885  0.7148052713982356  0.8672385329843333  1.0000
  H   H16       1.0  0.025264463667753034  0.7124268114683067  0.7713992201724629  1.0000
  H   H17       1.0  0.9781879105120207  0.7223538339104715  0.9634212326752714  1.0000
  C   C22       1.0  0.015918141558505686  0.5708398165757551  0.9867034411553619  1.0000
  C   C23       1.0  0.08092222686150508  0.5001943289516826  0.0646075605963965  1.0000
  C   C24       1.0  0.14035536279346528  0.41941903973470657  0.9953540264191766  1.0000
  C   C25       1.0  0.1363784184815875  0.4065115656456593  0.8460178728464998  1.0000
  C   C26       1.0  0.07264151618411163  0.47956127513800934  0.7665603141488364  1.0000
  C   C27       1.0  0.012999868810353197  0.5635299427114837  0.8343864404250243  1.0000
  C   C28       1.0  0.19982576155788712  0.3187100835506489  0.7746734755723632  1.0000
  N   N4        1.0  0.2692999265222291  0.26662073907504014  0.8421942594954271  1.0000
  C   C29       1.0  0.3092228787444238  0.19348706489608203  0.7423848503859785  1.0000
  C   C30       1.0  0.26376268184128837  0.201788432059893  0.6170691118969063  1.0000
  N   N5        1.0  0.19495936021459692  0.28047695766125574  0.6375336034290018  1.0000
  H   H18       1.0  0.9282610717891262  0.7550072974204025  0.2544516715894629  1.0000
  H   H19       1.0  0.08471939614353641  0.5043925780168117  0.18076117646016487  1.0000
  H   H20       1.0  0.18890939934225748  0.3651044972515656  0.059641466298930634  1.0000
  H   H21       1.0  0.07055936003832097  0.47571043608982255  0.650447201162339  1.0000
  H   H22       1.0  0.883485866466365  0.6480948030390201  0.5495352359527081  1.0000
  H   H23       1.0  0.36784290622867655  0.1371646815780423  0.760262149751008  1.0000
  H   H24       1.0  0.2794838068702312  0.1532508255687481  0.5180986644233148  1.0000
  H   H25       1.0  0.1479567874447545  0.3034872242421942  0.5621252450178549  1.0000
  Zn  Zn1       1.0  0.9231861128885911  0.5694242042633464  0.41093846031605974  1.0000
  Zn  Zn2       1.0  0.10572392085614336  0.564945058878621  0.4101508320657028  1.0000
  C   C31       1.0  0.013517693703187119  0.559167631429619  0.6741312853616135  1.0000
  C   C32       1.0  0.015394342974647925  0.5752034008558939  0.14695814798684226  1.0000
  C   C33       1.0  0.015938474870122784  0.8305771201219317  0.4059377621232363  1.0000
  C   C34       1.0  0.012973489625174755  0.30379218070260505  0.4151517409161383  1.0000
  O   O1        1.0  0.08449066323573451  0.5749617568828878  0.2004421633943503  1.0000
  O   O2        1.0  0.08296334143558148  0.5560086235419901  0.6200490581291772  1.0000
  O   O3        1.0  0.08491721385454243  0.7751752280750841  0.40348090114453306  1.0000
  O   O4        1.0  0.08253672895888431  0.3557951651259038  0.41701021247340786  1.0000
  O   O5        1.0  0.9463732424946896  0.7785740995462116  0.4040790801695482  1.0000
  O   O6        1.0  0.9444193799671055  0.5594092280042406  0.6206471677244674  1.0000
  O   O7        1.0  0.9459467075173332  0.5783623260623982  0.20103853747903  1.0000
  O   O8        1.0  0.9439927728072119  0.3591957230594517  0.4176066947248678  1.0000
