data_image0
_chemical_formula_structural       NC10NC5H10C12ClH9C15H12Zn2C4O8
_chemical_formula_sum              "N2 C46 H31 Cl1 Zn2 O8"
_cell_length_a       19.4436361288709
_cell_length_b       10.299768534541528
_cell_length_c       10.299157797200026
_cell_angle_alpha    85.54593967103357
_cell_angle_beta     89.72702837822625
_cell_angle_gamma    89.43641405984484

_space_group_name_H-M_alt    "P 1"
_space_group_IT_number       1

loop_
  _space_group_symop_operation_xyz
  'x, y, z'

loop_
  _atom_site_type_symbol
  _atom_site_label
  _atom_site_symmetry_multiplicity
  _atom_site_fract_x
  _atom_site_fract_y
  _atom_site_fract_z
  _atom_site_occupancy
  N   N1        1.0  0.6475823251193367  0.40970837938862714  0.5620729906541218  1.0000
  C   C1        1.0  0.5887519064470333  0.41960335546763217  0.5764583102018889  1.0000
  C   C2        1.0  0.5154295169736675  0.43194369192198095  0.5944523076914872  1.0000
  C   C3        1.0  0.47321499852270893  0.3999917894422691  0.4997712890349564  1.0000
  C   C4        1.0  0.397313486226046  0.4104273969792644  0.5051001868121257  1.0000
  C   C5        1.0  0.3575986441614687  0.38562963340667317  0.6121779656378477  1.0000
  C   C6        1.0  0.2814752933534873  0.38955227198736514  0.5992179831560073  1.0000
  C   C7        1.0  0.2409469090056665  0.4471685586066778  0.6929971139514233  1.0000
  C   C8        1.0  0.1692813055933323  0.45081120193894736  0.6824527437208194  1.0000
  C   C9        1.0  0.1371493415066048  0.3964414194514335  0.5784157679555938  1.0000
  C   C10       1.0  0.06335446222217021  0.40014537793142724  0.5677161091763983  1.0000
  N   N2        1.0  0.004028384502633501  0.4031231661197207  0.5591142928951562  1.0000
  C   C11       1.0  0.1769528197009029  0.3381178744652553  0.48501986179789597  1.0000
  C   C12       1.0  0.2486347761898175  0.33442112637272126  0.4953124366783037  1.0000
  C   C13       1.0  0.3857596038723104  0.3451079700815555  0.7432786573439941  1.0000
  C   C14       1.0  0.4444428912398609  0.3882068952136884  0.7905260878156612  1.0000
  C   C15       1.0  0.48864674693793286  0.48609832806953257  0.7161587907471654  1.0000
  H   H1        1.0  0.4952852007535861  0.3709176405223571  0.4094575811378518  1.0000
  H   H2        1.0  0.37259403516065265  0.4329654463760239  0.41193723247372754  1.0000
  H   H3        1.0  0.2648460057724515  0.4904206926201353  0.7738524299336926  1.0000
  H   H4        1.0  0.13896336512814111  0.49609075261878144  0.7553802077297518  1.0000
  H   H5        1.0  0.15258196165496823  0.29506123731169587  0.40449905849052237  1.0000
  H   H6        1.0  0.2782869137722968  0.2868978985204411  0.42308124109943246  1.0000
  H   H7        1.0  0.35480056478560723  0.2808618340380921  0.8075264177893341  1.0000
  H   H8        1.0  0.4596131954309606  0.35409423732266837  0.8884648669880008  1.0000
  H   H9        1.0  0.45854606320137437  0.5768228632839734  0.6909096704284172  1.0000
  H   H10       1.0  0.5319528340450587  0.5116542196760443  0.7792488346154628  1.0000
  C   C16       1.0  0.8257437739687943  0.0250515208984905  0.5605920550293486  1.0000
  C   C17       1.0  0.8302451828722895  0.034573276091433014  0.4240778170955832  1.0000
  C   C18       1.0  0.8325922055236646  0.9222574342397623  0.3549118074806074  1.0000
  C   C19       1.0  0.830376547257191  0.7992831272808407  0.42409221757281296  1.0000
  C   C20       1.0  0.8258735203349687  0.7877698729604906  0.5606064068835079  1.0000
  C   C21       1.0  0.8235828574036456  0.9012109283861773  0.6280918410197645  1.0000
  C   C22       1.0  0.8373552353762788  0.9333843083752994  0.2104911165391219  1.0000
  C   C23       1.0  0.7982115328946784  0.02766895148529303  0.13634788597394465  1.0000
  C   C24       1.0  0.8027559150491327  0.037944953135717  0.00042250395593934636  1.0000
  C   C25       1.0  0.8463772274079295  0.9544601662619824  0.9369489503836372  1.0000
  C   C26       1.0  0.8855093433512786  0.8604884159372935  0.009580968589765643  1.0000
  C   C27       1.0  0.8810871046547821  0.8498179022834045  0.14551998088096196  1.0000
  Cl  Cl1       1.0  0.8520021944535865  0.9676003980281618  0.7664073339832811  1.0000
  H   H11       1.0  0.8239932248712387  0.3488776666683404  0.6126077393912234  1.0000
  H   H12       1.0  0.832885872562589  0.12955201325464905  0.3713202375269964  1.0000
  H   H13       1.0  0.8312222842362605  0.7124489313988783  0.37113596916340064  1.0000
  H   H14       1.0  0.8201095310880931  0.8930971567203442  0.7334062972313655  1.0000
  H   H15       1.0  0.8241850421663389  0.4559285309057149  0.6126293774663534  1.0000
  H   H16       1.0  0.7634460109642903  0.0922737183104232  0.1833826437003638  1.0000
  H   H17       1.0  0.7722069579584971  0.11063937769386702  0.9445610460471702  1.0000
  H   H18       1.0  0.9195074728558235  0.7958516968363347  0.9608630041848834  1.0000
  H   H19       1.0  0.9125085159123317  0.7774010979648602  0.19987980486233115  1.0000
  C   C28       1.0  0.8257289179515686  0.4065184410342932  0.17920789059196204  1.0000
  C   C29       1.0  0.7540875782274564  0.3898627943032691  0.1799773395534039  1.0000
  C   C30       1.0  0.717910552836938  0.3813061864724576  0.06322392654281828  1.0000
  C   C31       1.0  0.754291897727083  0.38965028981677285  0.9447083447523811  1.0000
  C   C32       1.0  0.8258883447748426  0.4063029712413819  0.9419905851146572  1.0000
  C   C33       1.0  0.8611887765923979  0.41463404402111337  0.059774113459606586  1.0000
  C   C34       1.0  0.642169613980013  0.3637027939149175  0.06508370495026727  1.0000
  C   C35       1.0  0.6112071628845256  0.27729664104742024  0.9842318989715059  1.0000
  C   C36       1.0  0.5399317819711379  0.26082415878291054  0.9860142892444572  1.0000
  C   C37       1.0  0.4983492438302792  0.3297722157943035  0.0691909085378204  1.0000
  C   C38       1.0  0.5289437556748688  0.41703070501365835  0.14906907040626158  1.0000
  C   C39       1.0  0.6002184438322687  0.43350739839175656  0.14743463669595536  1.0000
  C   C40       1.0  0.42156590366730723  0.3143757652814878  0.06876494280896583  1.0000
  C   C41       1.0  0.3906497486974424  0.4087134448413218  0.9716125570235468  1.0000
  C   C42       1.0  0.3652412850057123  0.48628699868137465  0.891726322389196  1.0000
  H   H20       1.0  0.9610027749124835  0.4371593948968693  0.38510978783037464  1.0000
  H   H21       1.0  0.7264216049934682  0.3817491383417874  0.27174453723011616  1.0000
  H   H22       1.0  0.7265275245237367  0.3849252453333438  0.8543063897120438  1.0000
  H   H23       1.0  0.916413282414718  0.42747498000175227  0.058393556937855744  1.0000
  H   H24       1.0  0.8534295551865414  0.41266666219705755  0.6134728550720284  1.0000
  H   H25       1.0  0.642195026757414  0.22135909606170887  0.9206014701990597  1.0000
  H   H26       1.0  0.5171491596469779  0.19409001900500983  0.9226429002181953  1.0000
  H   H27       1.0  0.4975541845767005  0.47266649584186027  0.2123578279678835  1.0000
  H   H28       1.0  0.6224404446496467  0.502359102518737  0.2091694809806186  1.0000
  H   H29       1.0  0.4078220693496508  0.21439046542312834  0.04543173414948809  1.0000
  H   H30       1.0  0.3996748922791011  0.3302249764545122  0.16616827821698  1.0000
  H   H31       1.0  0.3429541051474201  0.5543935596187621  0.8215933412348888  1.0000
  Zn  Zn1       1.0  0.750444960445574  0.40780455563931367  0.5612266869081731  1.0000
  Zn  Zn2       1.0  0.9011657411201154  0.40501637930036544  0.5599712782494222  1.0000
  C   C43       1.0  0.8258558141364885  0.40117013408538427  0.7978082633924736  1.0000
  C   C44       1.0  0.8257565336008139  0.4116524089707705  0.3233898155609838  1.0000
  C   C45       1.0  0.8258443676929129  0.643601431598428  0.5554282842040468  1.0000
  C   C46       1.0  0.8257679283629902  0.169219552106334  0.5657698643910467  1.0000
  O   O1        1.0  0.8829635514792736  0.4123116514484874  0.3713021655484101  1.0000
  O   O2        1.0  0.8830423811037317  0.39839375067564964  0.7489427133947002  1.0000
  O   O3        1.0  0.8830323671850436  0.5941601032618871  0.5532191717694466  1.0000
  O   O4        1.0  0.8829735139483927  0.2165453091312768  0.5670256102218252  1.0000
  O   O5        1.0  0.76863713618369  0.5962756267612856  0.5541723553573481  1.0000
  O   O6        1.0  0.7686471503501708  0.4005108344793247  0.7498958277625438  1.0000
  O   O7        1.0  0.7685683204373462  0.41442869043694786  0.37225371842242394  1.0000
  O   O8        1.0  0.7685782829224275  0.21866233880359376  0.5679772604692559  1.0000
