data_image0
_chemical_formula_structural       NC5N2C2NH4C10H6C6OCH6Zn2C4O8
_chemical_formula_sum              "N4 C28 H16 O9 Zn2"
_cell_length_a       13.87973921873968
_cell_length_b       9.275150299802176
_cell_length_c       9.273891588657152
_cell_angle_alpha    85.74891997062389
_cell_angle_beta     89.68012952506892
_cell_angle_gamma    89.48389152441209

_space_group_name_H-M_alt    "P 1"
_space_group_IT_number       1

loop_
  _space_group_symop_operation_xyz
  'x, y, z'

loop_
  _atom_site_type_symbol
  _atom_site_label
  _atom_site_symmetry_multiplicity
  _atom_site_fract_x
  _atom_site_fract_y
  _atom_site_fract_z
  _atom_site_occupancy
  N   N1        1.0  0.9037793367423194  0.5646325928766736  0.40120983162266266  1.0000
  C   C1        1.0  0.8307372737888697  0.5886682201238236  0.344439196902276  1.0000
  C   C2        1.0  0.7400217134361696  0.6185228138694867  0.27392393519196934  1.0000
  C   C3        1.0  0.6534892297355646  0.588473386970381  0.34728728876185677  1.0000
  C   C4        1.0  0.5671423125201529  0.618522749572279  0.27392397545661673  1.0000
  C   C5        1.0  0.4762601533110916  0.5886680744266304  0.3444390945090452  1.0000
  N   N2        1.0  0.40308390578447806  0.5646325681431996  0.4012098207703034  1.0000
  N   N3        1.0  0.5689537428157256  0.6759376312715195  0.13485221113062074  1.0000
  C   C6        1.0  0.6538330844973824  0.7059493152322986  0.06553206697995728  1.0000
  C   C7        1.0  0.6540518346239904  0.7651052004919388  0.9114584001603178  1.0000
  N   N4        1.0  0.7385566417165615  0.6759375846840128  0.13485222214492953  1.0000
  H   H1        1.0  0.6533518267802827  0.542531187828712  0.4582697826560216  1.0000
  H   H2        1.0  0.7187312040844268  0.8328053129558916  0.8886801936898676  1.0000
  H   H3        1.0  0.6548657283552479  0.6744702862423165  0.8397568427586459  1.0000
  H   H4        1.0  0.5887263990435767  0.8328032413921891  0.8886794394741355  1.0000
  C   C8        1.0  0.1559691913717085  0.14094880503939564  0.4036228029313391  1.0000
  C   C9        1.0  0.20704829349346449  0.22201715964055427  0.2945779968316504  1.0000
  C   C10       1.0  0.2498857514728281  0.15483390220672422  0.17999167590986098  1.0000
  C   C11       1.0  0.24207997599936837  0.005603084714489231  0.17297423710232684  1.0000
  C   C12       1.0  0.1931067251428586  0.9230850455504874  0.28137126162629844  1.0000
  C   C13       1.0  0.15090325095820334  0.9883053168909048  0.3988093958362404  1.0000
  C   C14       1.0  0.30098598771516616  0.23962190259926122  0.06845367129955093  1.0000
  C   C15       1.0  0.34376978091653054  0.3106344746227819  0.9750731138054191  1.0000
  C   C16       1.0  0.393867618371075  0.39379517492383403  0.8657285535068224  1.0000
  C   C17       1.0  0.4366431626998979  0.46480242627979435  0.7723658964091924  1.0000
  H   H5        1.0  0.10941784290994794  0.4053373529406045  0.6325036718827086  1.0000
  H   H6        1.0  0.2116689686295088  0.3384856104803402  0.29680465246945165  1.0000
  H   H7        1.0  0.27471181548856793  0.9526580704487679  0.08430850000788603  1.0000
  H   H8        1.0  0.1901838131143265  0.8070288494048627  0.27514848450946205  1.0000
  H   H9        1.0  0.08700351103394176  0.8609238080378366  0.7412645623706589  1.0000
  H   H10       1.0  0.47420365859446423  0.5271528228292155  0.6903857722134061  1.0000
  C   C18       1.0  0.15503741882481625  0.5608059622737718  0.9779624707873641  1.0000
  C   C19       1.0  0.23357330173158616  0.6217457880111523  0.046190004125588276  1.0000
  C   C20       1.0  0.30657982327001804  0.6934591803301514  0.9659728920768318  1.0000
  C   C21       1.0  0.3013108967549416  0.7045942729542285  0.8144690261953875  1.0000
  C   C22       1.0  0.22480435272987487  0.6427808428793511  0.7449042575327236  1.0000
  C   C23       1.0  0.1518350322081239  0.5684481338343457  0.824469700000936  1.0000
  O   O1        1.0  0.38249518340366406  0.7526226108920064  0.04084342390668816  1.0000
  C   C24       1.0  0.4613789955574196  0.8285534496010849  0.9733357293883791  1.0000
  H   H11       1.0  0.9264027095118024  0.47219114110168053  0.08948308080102807  1.0000
  H   H12       1.0  0.3564813423638362  0.759688174247638  0.7492339306421782  1.0000
  H   H13       1.0  0.2239825066534218  0.6502167450198035  0.6277808416806847  1.0000
  H   H14       1.0  0.43493335549002915  0.9261878002264949  0.9083855381063294  1.0000
  H   H15       1.0  0.5019789778152697  0.7569483444133343  0.9033298158937212  1.0000
  H   H16       1.0  0.5104910023648475  0.8630396907351136  0.05798337641774043  1.0000
  Zn  Zn1       1.0  0.047867842470055814  0.5646287946434865  0.40121817643199065  1.0000
  Zn  Zn2       1.0  0.2589954116459292  0.5646246544160204  0.401213358437847  1.0000
  C   C25       1.0  0.15247258100649486  0.5612559169321563  0.6644943759320163  1.0000
  C   C26       1.0  0.15439296719737447  0.5679993537923842  0.137937290009976  1.0000
  C   C27       1.0  0.1518776147532961  0.8280850683956028  0.3939756812899542  1.0000
  C   C28       1.0  0.15498787148005966  0.3011684695976746  0.40845607134333894  1.0000
  O   O2        1.0  0.23429853317664096  0.5704056561183088  0.19162450808071907  1.0000
  O   O3        1.0  0.23280796294905337  0.5588453800957471  0.6108030923934891  1.0000
  O   O4        1.0  0.23232643442527534  0.7743133079689415  0.392357324008221  1.0000
  O   O5        1.0  0.23477999000400596  0.35493773759190633  0.41007016833994014  1.0000
  O   O6        1.0  0.07208319206452063  0.7743157114705157  0.39236136652395115  1.0000
  O   O7        1.0  0.07256471051135381  0.5588495163314989  0.6108070482119734  1.0000
  O   O8        1.0  0.07405528765916423  0.5704097264323069  0.1916267312997233  1.0000
  O   O9        1.0  0.07453674413548406  0.3549417985620274  0.41007249967904635  1.0000
