data_image0
_chemical_formula_structural       NC9NC4H8C12H9C8NH11Zn2C4O8
_chemical_formula_sum              "N3 C37 H28 Zn2 O8"
_cell_length_a       16.32274767691083
_cell_length_b       10.299137764757564
_cell_length_c       9.275652972338538
_cell_angle_alpha    85.91964994455579
_cell_angle_beta     89.90519038886141
_cell_angle_gamma    89.54283159448198

_space_group_name_H-M_alt    "P 1"
_space_group_IT_number       1

loop_
  _space_group_symop_operation_xyz
  'x, y, z'

loop_
  _atom_site_type_symbol
  _atom_site_label
  _atom_site_symmetry_multiplicity
  _atom_site_fract_x
  _atom_site_fract_y
  _atom_site_fract_z
  _atom_site_occupancy
  N   N1        1.0  0.7648662009518985  0.4026060072551483  0.39785964705685084  1.0000
  C   C1        1.0  0.7122699481781486  0.35480495125806844  0.33762442791131897  1.0000
  C   C2        1.0  0.6468925118347846  0.29543566748320016  0.26281180406954063  1.0000
  C   C3        1.0  0.6580023433565352  0.21422905344035723  0.16047668429588535  1.0000
  C   C4        1.0  0.578420599259398  0.1745998185204749  0.11054054893873876  1.0000
  C   C5        1.0  0.5198039171391629  0.2325963396316442  0.18362925057011492  1.0000
  C   C6        1.0  0.4297828411230035  0.21726840365554545  0.1643164794830918  1.0000
  C   C7        1.0  0.374555605054377  0.28486704584782063  0.24949787630732456  1.0000
  C   C8        1.0  0.2897756487125939  0.2717670533873975  0.23299195817247442  1.0000
  C   C9        1.0  0.23414781761375428  0.3414437971038302  0.3207911359459148  1.0000
  N   N2        1.0  0.18944191848908373  0.3974524309638025  0.39136680425272075  1.0000
  C   C10       1.0  0.259169296847928  0.19095909509384335  0.13116757479575236  1.0000
  C   C11       1.0  0.3130751045125538  0.12344999449244165  0.04609938571395509  1.0000
  C   C12       1.0  0.3976943397531345  0.13619713267297495  0.062160536904937835  1.0000
  C   C13       1.0  0.5580191781748428  0.3171616309007619  0.2901940308723854  1.0000
  H   H1        1.0  0.7167376421038301  0.18265161570241184  0.12068087619965007  1.0000
  H   H2        1.0  0.5697633818872893  0.10822975285566638  0.026901978078773363  1.0000
  H   H3        1.0  0.3970120103918241  0.34795128080224047  0.3289890917359117  1.0000
  H   H4        1.0  0.1937187028420903  0.18016741665042482  0.11757037118058354  1.0000
  H   H5        1.0  0.2892257712153772  0.060937506155756445  0.9673289003580278  1.0000
  H   H6        1.0  0.4371811411966742  0.08219420033768476  0.9941118991125806  1.0000
  H   H7        1.0  0.5417219999437028  0.283083953162931  0.4028541316100002  1.0000
  H   H8        1.0  0.5411546751427567  0.4210871630374542  0.26555500300994606  1.0000
  C   C14       1.0  0.9770798111689009  0.018631141002942272  0.3947714941581859  1.0000
  C   C15       1.0  0.976389347037248  0.027584556803135447  0.24301173651442354  1.0000
  C   C16       1.0  0.9761195644059344  0.9149906583665651  0.1659068316003054  1.0000
  C   C17       1.0  0.9765495292834245  0.7923250511161517  0.24261292799416198  1.0000
  C   C18       1.0  0.9772362032745281  0.781417241088922  0.39446732854744626  1.0000
  C   C19       1.0  0.9774984902296506  0.8950822402977026  0.4696117112685999  1.0000
  C   C20       1.0  0.9753881513447074  0.9255074130277756  0.005360016512753861  1.0000
  C   C21       1.0  0.024463711915824637  0.842133149276194  0.9270698358965508  1.0000
  C   C22       1.0  0.02367341898673759  0.852284118598503  0.7759498851566596  1.0000
  C   C23       1.0  0.9740057215844377  0.9454238484786782  0.7014085608550593  1.0000
  C   C24       1.0  0.9250247300363547  0.028671493605214832  0.7778359210149258  1.0000
  C   C25       1.0  0.9256090339845319  0.019017927293060184  0.9289599958139013  1.0000
  H   H9        1.0  0.9771934477564209  0.12235084362020744  0.1843981787515858  1.0000
  H   H10       1.0  0.9752156124038973  0.7052200933674835  0.18375851190188675  1.0000
  H   H11       1.0  0.9780288182604159  0.8874607629588432  0.5866675290314851  1.0000
  H   H12       1.0  0.9780113327411863  0.5535440789295043  0.681092510512836  1.0000
  H   H13       1.0  0.06419274705869715  0.770322773476904  0.9826446396281754  1.0000
  H   H14       1.0  0.061776672144205236  0.7880611940545674  0.7165967726322136  1.0000
  H   H15       1.0  0.973473772963604  0.9530889741188665  0.58443015372265  1.0000
  H   H16       1.0  0.8863883491144188  0.10057663970120755  0.7199484999575007  1.0000
  H   H17       1.0  0.8863926328410322  0.08344811382610473  0.9860355903833435  1.0000
  C   C26       1.0  0.9753336636250929  0.3975149954495861  0.9713775665588971  1.0000
  C   C27       1.0  0.9222121651167237  0.48311703642903137  0.03830344248612305  1.0000
  C   C28       1.0  0.8755609328712067  0.5762193647112734  0.9562802000612547  1.0000
  C   C29       1.0  0.880924308179275  0.5824818419335083  0.8054103008231537  1.0000
  C   C30       1.0  0.9322419907534656  0.4969595101926152  0.7371039095257084  1.0000
  C   C31       1.0  0.978982382841318  0.4025333970925413  0.8178612293898515  1.0000
  C   C32       1.0  0.8180787808954757  0.6657721391731235  0.02966781720527223  1.0000
  C   C33       1.0  0.7338297951229579  0.6033362991306561  0.051768660633049406  1.0000
  N   N3        1.0  0.6782826619528539  0.6917818171771604  0.12079128088046232  1.0000
  H   H18       1.0  0.03534358267224946  0.2038200806063153  0.267143450118374  1.0000
  H   H19       1.0  0.9183144748496401  0.47955086331826363  0.15519200828284752  1.0000
  H   H20       1.0  0.8446113861611121  0.6528797361274905  0.7403547385814326  1.0000
  H   H21       1.0  0.9337222494309086  0.5025195693667639  0.6200591921448253  1.0000
  H   H22       1.0  0.09130887027369211  0.28221363495062257  0.5457104028524191  1.0000
  H   H23       1.0  0.843740110238422  0.6882818705161824  0.13598066411067866  1.0000
  H   H24       1.0  0.8115392303674578  0.7596199045600639  0.9634212272007314  1.0000
  H   H25       1.0  0.7082117980434228  0.5818695824255056  0.9450375838416534  1.0000
  H   H26       1.0  0.7395939181500836  0.5102451715628762  0.11990998881300817  1.0000
  H   H27       1.0  0.6204089366396047  0.648869520328476  0.126096398879894  1.0000
  H   H28       1.0  0.6974681430117475  0.6980496268823302  0.2276152432205374  1.0000
  Zn  Zn1       1.0  0.8873896230628383  0.4011153599628134  0.3959942777271429  1.0000
  Zn  Zn2       1.0  0.06691855125982027  0.3989324904709978  0.39324398515584164  1.0000
  C   C34       1.0  0.978289786762895  0.39641075302668605  0.6578597902804981  1.0000
  C   C35       1.0  0.9760203489558386  0.40363871315365313  0.1313785833776846  1.0000
  C   C36       1.0  0.9771776742893833  0.6372004339621787  0.38878148595016115  1.0000
  C   C37       1.0  0.9771324001799467  0.16284747299682234  0.40045696610954734  1.0000
  O   O1        1.0  0.04438109829189285  0.40485983498581585  0.18403266681142028  1.0000
  O   O2        1.0  0.04618733792246488  0.39353190150136674  0.6031178839203347  1.0000
  O   O3        1.0  0.04528838106638024  0.5879726341097351  0.385835262931479  1.0000
  O   O4        1.0  0.04527999342301148  0.21041911177257355  0.4013151806690065  1.0000
  O   O5        1.0  0.9090281196352022  0.589628739407513  0.38792308314493645  1.0000
  O   O6        1.0  0.909927076476246  0.39518956676675826  0.6052056266632245  1.0000
  O   O7        1.0  0.908120829421639  0.40651744471797074  0.18611867673471444  1.0000
  O   O8        1.0  0.9090197250132793  0.2120767128558778  0.40340129865452895  1.0000
