data_image0
_chemical_formula_structural       NC5N2C2NH4C6NH7C6ClH3Zn2C4O8
_chemical_formula_sum              "N5 C23 H14 Cl1 Zn2 O8"
_cell_length_a       13.87973921873968
_cell_length_b       9.274771166103582
_cell_length_c       9.276548810779733
_cell_angle_alpha    85.98017888068892
_cell_angle_beta     89.72476731639557
_cell_angle_gamma    90.59705032410349

_space_group_name_H-M_alt    "P 1"
_space_group_IT_number       1

loop_
  _space_group_symop_operation_xyz
  'x, y, z'

loop_
  _atom_site_type_symbol
  _atom_site_label
  _atom_site_symmetry_multiplicity
  _atom_site_fract_x
  _atom_site_fract_y
  _atom_site_fract_z
  _atom_site_occupancy
  N   N1        1.0  0.9232369832629091  0.5641180082661872  0.4076937905640498  1.0000
  C   C1        1.0  0.8504770340899049  0.5881423670502854  0.35103235420225376  1.0000
  C   C2        1.0  0.7601118862627062  0.6179829642034187  0.2806527276830548  1.0000
  C   C3        1.0  0.673227948045596  0.587947874592071  0.35387884973249334  1.0000
  C   C4        1.0  0.5872324845338346  0.617982899924701  0.2806527676888251  1.0000
  C   C5        1.0  0.49599991166925955  0.5881422213747713  0.35103225128007653  1.0000
  N   N2        1.0  0.42254155197865173  0.5641179835370747  0.407693779619952  1.0000
  N   N3        1.0  0.5897160070433295  0.6753705027331625  0.14184288081300966  1.0000
  C   C6        1.0  0.6749484215118088  0.7053682799966613  0.0726586191122036  1.0000
  C   C7        1.0  0.6758540216805048  0.764494932999183  0.9188579826324257  1.0000
  N   N4        1.0  0.7593189053457321  0.6753704561571572  0.14184289164515373  1.0000
  H   H1        1.0  0.6725525945073855  0.5420274721423651  0.46465188401672997  1.0000
  H   H2        1.0  0.7413994928219435  0.8321776251140727  0.8963465118944995  1.0000
  H   H3        1.0  0.6754551285956144  0.6738726689346782  0.8468297633704003  1.0000
  H   H4        1.0  0.6113946605226246  0.8321755539318778  0.8963457499490879  1.0000
  C   C8        1.0  0.16993350779904182  0.1405286075020071  0.40847920072753174  1.0000
  C   C9        1.0  0.1481686897767871  0.2226605319322741  0.2796215801959119  1.0000
  C   C10       1.0  0.1354018094502969  0.1564268519815879  0.14994641395595365  1.0000
  C   C11       1.0  0.1444532109489729  0.006675196631090068  0.14818961890434212  1.0000
  C   C12       1.0  0.16444201475475784  0.923207678076413  0.2752771124721449  1.0000
  C   C13       1.0  0.17585413532951066  0.9876964141001734  0.4069208951958385  1.0000
  N   N5        1.0  0.11423338406790773  0.24164534030826812  0.019672573512188974  1.0000
  H   H5        1.0  0.27736965713263606  0.22306897622993135  0.7238334416344196  1.0000
  H   H6        1.0  0.1433125976113645  0.3392481853728624  0.2790680736634257  1.0000
  H   H7        1.0  0.1350863811092391  0.9542767789635174  0.04841766144503889  1.0000
  H   H8        1.0  0.16870092369686904  0.807005973306597  0.27115032303038106  1.0000
  H   H9        1.0  0.24430499820718765  0.6925895579083787  0.6214734357273124  1.0000
  H   H10       1.0  0.1075954805926238  0.35371881467496985  0.01962577196480053  1.0000
  H   H11       1.0  0.1049498007366163  0.19328577234766464  0.9222703187525768  1.0000
  C   C14       1.0  0.17422479849276118  0.5602480310512641  0.984557787748094  1.0000
  C   C15       1.0  0.25542618786628957  0.6150806943917058  0.0535633970142657  1.0000
  C   C16       1.0  0.33129906642624984  0.6806643305876838  0.9732102862527126  1.0000
  C   C17       1.0  0.3271093812593186  0.6925192084476894  0.8227489535780794  1.0000
  C   C18       1.0  0.24800019336231083  0.6366747288326843  0.7520960991953815  1.0000
  C   C19       1.0  0.17156280526746356  0.5679768946106569  0.8308423080246508  1.0000
  Cl  Cl1       1.0  0.43124912261569603  0.7501196801417616  0.061586991860117735  1.0000
  H   H12       1.0  0.05619995941909073  0.39879482553885826  0.27785691634493115  1.0000
  H   H13       1.0  0.3856378589540297  0.7438332628781479  0.7601653078347392  1.0000
  H   H14       1.0  0.01643000421993301  0.5150928383071838  0.5543434881050522  1.0000
  Zn  Zn1       1.0  0.06732544408304442  0.5641142117482915  0.40770211830383996  1.0000
  Zn  Zn2       1.0  0.2784529570542975  0.5641100719376013  0.4076972858471246  1.0000
  C   C20       1.0  0.17202368818791602  0.5607695755609923  0.6708869579697969  1.0000
  C   C21       1.0  0.1737570307300942  0.5674565293988798  0.14451258420903665  1.0000
  C   C22       1.0  0.17474810135404928  0.8275111938552491  0.401473388018934  1.0000
  C   C23       1.0  0.17103253316753153  0.30071317876739445  0.41392623417211594  1.0000
  O   O1        1.0  0.2537217904882825  0.5698679032750201  0.19819305279002772  1.0000
  O   O2        1.0  0.2522998193165089  0.5583539676906717  0.6172024088723094  1.0000
  O   O3        1.0  0.2544987326101513  0.7737512115762274  0.3996490422570808  1.0000
  O   O4        1.0  0.25152280556307516  0.3544706687228888  0.4157463113473002  1.0000
  O   O5        1.0  0.09425552352684272  0.7737536149659179  0.3996530927977313  1.0000
  O   O6        1.0  0.09205662258220679  0.5583581034205034  0.6172063793948106  1.0000
  O   O7        1.0  0.09347859891607735  0.5698719729168215  0.1981952909759281  1.0000
  O   O8        1.0  0.09127961357501135  0.354474729034179  0.41574865758522384  1.0000
