data_image0
_chemical_formula_structural       NC4NC6H6C6H6C6H6Zn2C4O8
_chemical_formula_sum              "N2 C26 H18 Zn2 O8"
_cell_length_a       11.002025771509814
_cell_length_b       10.681118228259551
_cell_length_c       10.681121600428286
_cell_angle_alpha    85.56070829977578
_cell_angle_beta     90.00980682368926
_cell_angle_gamma    89.94883094923382

_space_group_name_H-M_alt    "P 1"
_space_group_IT_number       1

loop_
  _space_group_symop_operation_xyz
  'x, y, z'

loop_
  _atom_site_type_symbol
  _atom_site_label
  _atom_site_symmetry_multiplicity
  _atom_site_fract_x
  _atom_site_fract_y
  _atom_site_fract_z
  _atom_site_occupancy
  N   N1        1.0  0.1444959281331406  0.3694910931482791  0.6189644122978464  1.0000
  C   C1        1.0  0.0897052382279495  0.45149443090873786  0.6559539852197378  1.0000
  C   C2        1.0  0.02118498982263617  0.5541956695606631  0.7022714486819166  1.0000
  C   C3        1.0  0.8989311727247179  0.5518194149805996  0.7026417746950495  1.0000
  C   C4        1.0  0.8298356087666289  0.4502905818826648  0.65627990654701  1.0000
  N   N2        1.0  0.7743999187437154  0.36891864693125553  0.6191212795740102  1.0000
  C   C5        1.0  0.08870987952192344  0.660993022489581  0.7507315484695647  1.0000
  C   C6        1.0  0.19887280826252773  0.6395990851109106  0.8161788843430318  1.0000
  C   C7        1.0  0.2631305139137676  0.7396032316027097  0.861389036518247  1.0000
  C   C8        1.0  0.21874053613045621  0.862026251253196  0.8414410425418133  1.0000
  C   C9        1.0  0.11009850214803496  0.8847830381656849  0.7759808168043023  1.0000
  C   C10       1.0  0.045368889562494845  0.7851675566984997  0.7306076075161481  1.0000
  H   H1        1.0  0.8478123381962211  0.626711053461489  0.7407305890344873  1.0000
  H   H2        1.0  0.2346905101070709  0.545386579809402  0.8335212666645972  1.0000
  H   H3        1.0  0.3474176927216963  0.7220936664851896  0.9120498108614501  1.0000
  H   H4        1.0  0.26869192036128076  0.9393022232376387  0.8764329531623776  1.0000
  H   H5        1.0  0.07619065002351255  0.9798274417727815  0.75988922458744  1.0000
  H   H6        1.0  0.9625601510378322  0.8056463456306495  0.6781989228842051  1.0000
  C   C11       1.0  0.45945376129787374  0.0014548559875835507  0.6190482310939329  1.0000
  C   C12       1.0  0.5128110826108088  0.9268931017533459  0.7185144764829543  1.0000
  C   C13       1.0  0.512811064028126  0.7960108635944371  0.7185144192239796  1.0000
  C   C14       1.0  0.4594537408910204  0.7369452599629536  0.6190482852239036  1.0000
  C   C15       1.0  0.4061405889456311  0.8114955742763088  0.5196642361812851  1.0000
  C   C16       1.0  0.4061406074674552  0.9423878323583229  0.5196642870118633  1.0000
  H   H7        1.0  0.405494738799977  0.30800000641813674  0.5184614437743504  1.0000
  H   H8        1.0  0.5546351404200374  0.9696307146523628  0.7964807751538641  1.0000
  H   H9        1.0  0.5546349909829627  0.7411266861924257  0.7964807529957882  1.0000
  H   H10       1.0  0.3643110778602072  0.7688035093854904  0.4416877575220777  1.0000
  H   H11       1.0  0.36431104600037423  0.9972279484483377  0.44168774733139965  1.0000
  H   H12       1.0  0.405495186298217  0.44607065512194494  0.5184611051283702  1.0000
  C   C17       1.0  0.45945377047685  0.36920002558204934  0.2513030299417436  1.0000
  C   C18       1.0  0.3724570176201991  0.2996304174903226  0.18985886875338043  1.0000
  C   C19       1.0  0.37245694173373717  0.29963049785825785  0.05897672878159411  1.0000
  C   C20       1.0  0.4594536749266187  0.36920008705679264  0.9867934655942963  1.0000
  C   C21       1.0  0.5463786231779595  0.4387120425145705  0.048237028547568186  1.0000
  C   C22       1.0  0.5463786076272727  0.4387120231099478  0.17912932720673957  1.0000
  H   H13       1.0  0.547430548952677  0.43955401570793906  0.5445826900566078  1.0000
  H   H14       1.0  0.3042648557355927  0.24509847065693235  0.24287871508747405  1.0000
  H   H15       1.0  0.3042648303510498  0.2450985296281805  0.014374685855624405  1.0000
  H   H16       1.0  0.6145796900971037  0.4932511753281515  0.9952615197996675  1.0000
  H   H17       1.0  0.614579628858082  0.4932511314834576  0.2236858872688188  1.0000
  H   H18       1.0  0.5474309282982976  0.4395535790545367  0.6826536644376118  1.0000
  Zn  Zn1       1.0  0.32627262051627093  0.3693225449163418  0.6190169088771003  1.0000
  Zn  Zn2       1.0  0.5926232291411955  0.3690769480080066  0.6190790280605092  1.0000
  C   C23       1.0  0.45945101389471366  0.3642111317505652  0.847770039461381  1.0000
  C   C24       1.0  0.4594477443030316  0.37418993859536187  0.3903260210676346  1.0000
  C   C25       1.0  0.45944747686107523  0.5979218976978701  0.6140579744094419  1.0000
  C   C26       1.0  0.459451190449891  0.14047766814863724  0.6240381528634776  1.0000
  O   O1        1.0  0.5605243897396062  0.37576593282491993  0.43700698078616146  1.0000
  O   O2        1.0  0.5605283174709623  0.3624477904142729  0.8011358662745642  1.0000
  O   O3        1.0  0.5605240986826816  0.5511721908492383  0.6124117198757908  1.0000
  O   O4        1.0  0.5605285176404735  0.18704154143221838  0.6257310332675972  1.0000
  O   O5        1.0  0.35836724112460216  0.5513579515773034  0.612364903642227  1.0000
  O   O6        1.0  0.35837145990727093  0.3626350557269311  0.8010889832693111  1.0000
  O   O7        1.0  0.35836753225686535  0.3759531544975874  0.43695859215833943  1.0000
  O   O8        1.0  0.35837166015275557  0.18722875414779547  0.6256827385293278  1.0000
