data_image0
_chemical_formula_structural       NC9NC5H8C6ClH5C6NH7Zn2C4O8
_chemical_formula_sum              "N3 C30 H20 Cl1 Zn2 O8"
_cell_length_a       17.807436237873137
_cell_length_b       10.30297070629231
_cell_length_c       9.274774538082516
_cell_angle_alpha    85.06361778746081
_cell_angle_beta     89.72824813723155
_cell_angle_gamma    88.39001192287226

_space_group_name_H-M_alt    "P 1"
_space_group_IT_number       1

loop_
  _space_group_symop_operation_xyz
  'x, y, z'

loop_
  _atom_site_type_symbol
  _atom_site_label
  _atom_site_symmetry_multiplicity
  _atom_site_fract_x
  _atom_site_fract_y
  _atom_site_fract_z
  _atom_site_occupancy
  N   N1        1.0  0.7023111571166336  0.40012423514155276  0.39661593844309073  1.0000
  C   C1        1.0  0.6416846685267977  0.36504367065015136  0.38436562751050146  1.0000
  C   C2        1.0  0.5662719800837511  0.32140731184813726  0.36912757083500214  1.0000
  C   C3        1.0  0.5478094416299293  0.25094757315692173  0.2524434760990637  1.0000
  C   C4        1.0  0.4745873210010107  0.20846930611026449  0.2375564845745712  1.0000
  C   C5        1.0  0.4187789056825536  0.23607365714835832  0.3393175257876977  1.0000
  C   C6        1.0  0.34096295692887507  0.19104435020391453  0.3235877140262762  1.0000
  C   C7        1.0  0.2788782732017921  0.2725439972778456  0.3524122886156493  1.0000
  C   C8        1.0  0.20551389610088544  0.22986263565149362  0.337540500074583  1.0000
  C   C9        1.0  0.1423804084467192  0.31404954153605064  0.3667694620518398  1.0000
  N   N2        1.0  0.0916340700987927  0.3817299797726274  0.3902687401715026  1.0000
  C   C10       1.0  0.1936505683159443  0.1054239547046274  0.29381596697206436  1.0000
  C   C11       1.0  0.2548778525694319  0.023910534271788443  0.2649820693513534  1.0000
  C   C12       1.0  0.328122081862618  0.0661992797778368  0.27962878756891385  1.0000
  C   C13       1.0  0.437933623411763  0.30702565711887697  0.45624523900130853  1.0000
  C   C14       1.0  0.5112080652589125  0.34931497295570385  0.47095926402842103  1.0000
  H   H1        1.0  0.5899508959502189  0.2291063777324018  0.17275290304604263  1.0000
  H   H2        1.0  0.461381693770312  0.15554057938825494  0.14541137518418346  1.0000
  H   H3        1.0  0.2874777883325984  0.36972122502822546  0.3845018402064415  1.0000
  H   H4        1.0  0.1371481014200623  0.07149289459211315  0.2820424252789562  1.0000
  H   H5        1.0  0.2455757497519137  0.9275638032270039  0.23155856506541705  1.0000
  H   H6        1.0  0.3746955996225742  0.0006444632523898731  0.25846129038167054  1.0000
  H   H7        1.0  0.39651362493787656  0.3283164804597565  0.5373743188421949  1.0000
  H   H8        1.0  0.5249383601646742  0.40347314421394054  0.5619468696472527  1.0000
  C   C15       1.0  0.896976208849348  0.009679456117142276  0.39344852956423804  1.0000
  C   C16       1.0  0.9746360596229597  0.002649466663850123  0.4199808208194784  1.0000
  C   C17       1.0  0.01316880448178948  0.8822045304259657  0.4331453347038037  1.0000
  C   C18       1.0  0.9746360588073021  0.7675414985641696  0.41998075295724346  1.0000
  C   C19       1.0  0.8969762171293278  0.7721643968914604  0.39344861204656545  1.0000
  C   C20       1.0  0.8585248483481445  0.8938067933864238  0.38031176767483754  1.0000
  Cl  Cl1       1.0  0.11018446070784504  0.8749259163977745  0.4662903884470804  1.0000
  H   H9        1.0  0.86772310065615  0.3396306547936611  0.38345347217475934  1.0000
  H   H10       1.0  0.005523269237699633  0.09037873450758702  0.43053323396342313  1.0000
  H   H11       1.0  0.005523239199536563  0.6751775439109269  0.4305331307620368  1.0000
  H   H12       1.0  0.7986312145902731  0.8983002076781179  0.3598492230070147  1.0000
  H   H13       1.0  0.8677230978594175  0.4466026861151545  0.38345374470570115  1.0000
  C   C21       1.0  0.8956280264426447  0.3943061419458926  0.9696542098774515  1.0000
  C   C22       1.0  0.9488588202871713  0.4684049404882275  0.03552289566185518  1.0000
  C   C23       1.0  0.005459863689258  0.5316500620439004  0.9538352093280693  1.0000
  C   C24       1.0  0.009288531218111242  0.5210736942865639  0.8047953746731742  1.0000
  C   C25       1.0  0.9562987549644429  0.4498234821862545  0.7372201971037322  1.0000
  C   C26       1.0  0.8983244085751281  0.38753764041121985  0.8172428766727005  1.0000
  N   N3        1.0  0.05955307613891913  0.6055274955469943  0.0226950801697825  1.0000
  H   H14       1.0  0.783337341237174  0.14582118737389393  0.09740519941596815  1.0000
  H   H15       1.0  0.9475065678345945  0.47462620237926906  0.1515650711221206  1.0000
  H   H16       1.0  0.05298878878367796  0.5691692179003235  0.7405521566972522  1.0000
  H   H17       1.0  0.9596486407914971  0.4460539015253493  0.6209925339654441  1.0000
  H   H18       1.0  0.8203855128230924  0.22423562233159283  0.552431733553937  1.0000
  H   H19       1.0  0.05737158241649775  0.6137720119642214  0.13410056842516216  1.0000
  H   H20       1.0  0.10216903433210735  0.6526533075089185  0.9627582242249164  1.0000
  Zn  Zn1       1.0  0.8146613653241774  0.39481251954743146  0.39479262045993724  1.0000
  Zn  Zn2       1.0  0.9792838814371022  0.3870310178212975  0.3921039224868661  1.0000
  C   C27       1.0  0.897813062876092  0.38364510842226407  0.6570304985504363  1.0000
  C   C28       1.0  0.8961339820086086  0.3981999809392353  0.12986615668240153  1.0000
  C   C29       1.0  0.8969540666073117  0.6280845896860637  0.38769773282347764  1.0000
  C   C30       1.0  0.8969929223479496  0.15375894191070524  0.399199000267851  1.0000
  O   O1        1.0  0.9587771722457302  0.39654808558785115  0.18261440271561424  1.0000
  O   O2        1.0  0.9601145519413162  0.3793900479222396  0.6022411775332885  1.0000
  O   O3        1.0  0.9594200641934393  0.5767780482271462  0.38475307738978426  1.0000
  O   O4        1.0  0.9594716034748608  0.1991600980896007  0.4001023955694678  1.0000
  O   O5        1.0  0.8344735871088093  0.5826834419360467  0.3867941482872652  1.0000
  O   O6        1.0  0.8351680746085158  0.38529700205278794  0.6042821714822086  1.0000
  O   O7        1.0  0.833830689443114  0.4024550083302176  0.1846536615648673  1.0000
  O   O8        1.0  0.8345251210133815  0.2050670106822292  0.4021417626183017  1.0000
