data_image0
_chemical_formula_structural       NC5NC3H4C10H6C9H8Zn2C4O8
_chemical_formula_sum              "N2 C31 H18 Zn2 O8"
_cell_length_a       13.859018345313864
_cell_length_b       9.275150299802176
_cell_length_c       9.273585224739813
_cell_angle_alpha    85.81607574140205
_cell_angle_beta     90.10207003139627
_cell_angle_gamma    89.48388887768701

_space_group_name_H-M_alt    "P 1"
_space_group_IT_number       1

loop_
  _space_group_symop_operation_xyz
  'x, y, z'

loop_
  _atom_site_type_symbol
  _atom_site_label
  _atom_site_symmetry_multiplicity
  _atom_site_fract_x
  _atom_site_fract_y
  _atom_site_fract_z
  _atom_site_occupancy
  N   N1        1.0  0.897262838289948  0.5628586856878256  0.40130977654618727  1.0000
  C   C1        1.0  0.825205019473435  0.5238182688848892  0.45277942971986307  1.0000
  C   C2        1.0  0.7355693017103792  0.4752572200100855  0.516800831750222  1.0000
  C   C3        1.0  0.6475943460414751  0.5225985586487312  0.4543878036483498  1.0000
  C   C4        1.0  0.560338998851786  0.4752569281604553  0.5168007078679404  1.0000
  C   C5        1.0  0.4699651404188191  0.5238181551602443  0.4527793330630481  1.0000
  N   N2        1.0  0.3973139358590748  0.5628586510743198  0.4013097077237482  1.0000
  C   C6        1.0  0.5612411935617769  0.3805599596657969  0.6416453129666586  1.0000
  C   C7        1.0  0.6490322230425464  0.3334008600436764  0.7038181604284577  1.0000
  C   C8        1.0  0.7361065355630467  0.3805602570261195  0.6416455149151896  1.0000
  H   H1        1.0  0.6470372294061848  0.5958965955418734  0.35775472106863226  1.0000
  H   H2        1.0  0.4942289164503276  0.3432974786920915  0.6907702135862752  1.0000
  H   H3        1.0  0.649588146060177  0.2602516333660403  0.8002552519047064  1.0000
  H   H4        1.0  0.8036851753982726  0.3432980132015526  0.6907706358142189  1.0000
  C   C9        1.0  0.14984162108611843  0.13917755888813854  0.4037225792066712  1.0000
  C   C10       1.0  0.20046047557472524  0.22012492557707852  0.2946845905499491  1.0000
  C   C11       1.0  0.24279809351086534  0.152814532476784  0.18010543428577108  1.0000
  C   C12       1.0  0.2349461141797804  0.003575929672450904  0.17308843498507498  1.0000
  C   C13       1.0  0.1864330716765723  0.9211781595756068  0.2814786824385771  1.0000
  C   C14       1.0  0.1447444193845557  0.9865287306138601  0.3989094735582046  1.0000
  C   C15       1.0  0.2934258445175566  0.23747877876502366  0.06857440307285545  1.0000
  C   C16       1.0  0.33581407245373385  0.3083877428092916  0.9751996837656352  1.0000
  C   C17       1.0  0.3854487200570379  0.39142712268521396  0.8658619597293038  1.0000
  C   C18       1.0  0.42782877487670634  0.46233078592284604  0.77250513969945  1.0000
  H   H5        1.0  0.10434701125414977  0.4038200518976627  0.6325891343463979  1.0000
  H   H6        1.0  0.20509901669340902  0.3365958465839187  0.2969111065802741  1.0000
  H   H7        1.0  0.2671904119817583  0.9505325391458662  0.08442824186647813  1.0000
  H   H8        1.0  0.1834751668354741  0.8051150594783505  0.27525629477755453  1.0000
  H   H9        1.0  0.08243438707741069  0.8595271780695285  0.7413432231379669  1.0000
  H   H10       1.0  0.46504199836912097  0.5245902235485391  0.6905301409312785  1.0000
  C   C19       1.0  0.14681375179997724  0.5585624482666256  0.9780888732651745  1.0000
  C   C20       1.0  0.23311648793889533  0.5264287671205503  0.05422816898802996  1.0000
  C   C21       1.0  0.32064694906220514  0.5072806237527265  0.9820765574032299  1.0000
  C   C22       1.0  0.32108513376748027  0.5210773355889464  0.8299389637378725  1.0000
  C   C23       1.0  0.23582989011137448  0.5504983618926638  0.7528113569557715  1.0000
  C   C24       1.0  0.14777232299234178  0.5671438618423787  0.824543169864945  1.0000
  C   C25       1.0  0.41027913172461183  0.47419410222373  0.073779697972844  1.0000
  C   C26       1.0  0.4863239892250085  0.3752010474452251  0.014104052070153193  1.0000
  C   C27       1.0  0.5053584146070296  0.5365197661623031  0.01709161369666035  1.0000
  H   H11       1.0  0.23269877159066277  0.5194659202442797  0.17143722795955818  1.0000
  H   H12       1.0  0.3866067949626565  0.5080411508532179  0.769078682559984  1.0000
  H   H13       1.0  0.003624374022295208  0.6696577556110002  0.5352907585218043  1.0000
  H   H14       1.0  0.4039933187767517  0.464889147009653  0.19359440106558168  1.0000
  H   H15       1.0  0.4735693343133786  0.33807450152394436  0.9047371021370098  1.0000
  H   H16       1.0  0.5267754947581511  0.30765006785341  0.09800904749398542  1.0000
  H   H17       1.0  0.5041229413409982  0.5972079106729709  0.9095277444922019  1.0000
  H   H18       1.0  0.5569255546705427  0.5632786200824422  0.10274710744764781  1.0000
  Zn  Zn1       1.0  0.04156681450369314  0.56285488749074  0.4013181107145316  1.0000
  Zn  Zn2       1.0  0.2530100207484969  0.5628507284044619  0.4013132781947759  1.0000
  C   C28       1.0  0.147623549739347  0.559774106652559  0.6645778342721211  1.0000
  C   C29       1.0  0.1469555836756764  0.5659333310529544  0.1380536857009811  1.0000
  C   C30       1.0  0.14569645292906294  0.8263031190751484  0.39407606130463724  1.0000
  C   C31       1.0  0.148882618849407  0.29940258599528896  0.408555545354347  1.0000
  O   O1        1.0  0.22724481643630454  0.5683991939525744  0.1917375398880259  1.0000
  O   O2        1.0  0.22781482413324508  0.5573039944755767  0.6108899036182553  1.0000
  O   O3        1.0  0.22625758908948002  0.7725295579403884  0.3924577996055405  1.0000
  O   O4        1.0  0.22880197914436642  0.35317363971459415  0.4101695357814621  1.0000
  O   O5        1.0  0.06577478395261639  0.7725319761835208  0.39246185312190485  1.0000
  O   O6        1.0  0.06733200847772758  0.5573081453566977  0.6108938704427971  1.0000
  O   O7        1.0  0.06676199918511605  0.5684032769896312  0.19173977422146615  1.0000
  O   O8        1.0  0.06831916207367406  0.35317771352773275  0.41017187822824064  1.0000
