data_image0
_chemical_formula_structural       NC9NC5H8C12NCOCH13C12ClH9Zn2C4O8
_chemical_formula_sum              "N3 C44 H30 O9 Cl1 Zn2"
_cell_length_a       17.807436237873137
_cell_length_b       10.299155265289647
_cell_length_c       10.299771906710085
_cell_angle_alpha    85.5278422735101
_cell_angle_beta     89.40099058273775
_cell_angle_gamma    88.36808077728017

_space_group_name_H-M_alt    "P 1"
_space_group_IT_number       1

loop_
  _space_group_symop_operation_xyz
  'x, y, z'

loop_
  _atom_site_type_symbol
  _atom_site_label
  _atom_site_symmetry_multiplicity
  _atom_site_fract_x
  _atom_site_fract_y
  _atom_site_fract_z
  _atom_site_occupancy
  N   N1        1.0  0.7069711222744789  0.388289578523026  0.5567217613811617  1.0000
  C   C1        1.0  0.6463903152806605  0.35310009648743956  0.5457081376813635  1.0000
  C   C2        1.0  0.5710344497710246  0.309328256108589  0.5320083856294132  1.0000
  C   C3        1.0  0.5529489776901252  0.23793762447045672  0.4270263496412208  1.0000
  C   C4        1.0  0.4797823372356527  0.19532705889559818  0.4136421773599457  1.0000
  C   C5        1.0  0.4236525304836918  0.2237295730703097  0.5052076999407631  1.0000
  C   C6        1.0  0.3458952350650469  0.17856041852137472  0.49106583173587326  1.0000
  C   C7        1.0  0.2837032938460689  0.2603159232094363  0.5169808286385345  1.0000
  C   C8        1.0  0.21039439452385528  0.21750229856909148  0.503610396948394  1.0000
  C   C9        1.0  0.1471518047454736  0.3019492753926505  0.5298885089851644  1.0000
  N   N2        1.0  0.0963177520755812  0.3698388020631626  0.5510153862854069  1.0000
  C   C10       1.0  0.1986939460235471  0.09267517501337695  0.46429969412452854  1.0000
  C   C11       1.0  0.2600285196892884  0.010905819297696061  0.4383763115719153  1.0000
  C   C12       1.0  0.3332180550366807  0.05332492850406023  0.45154432020510754  1.0000
  C   C13       1.0  0.44242931859706636  0.29561454901431355  0.6104088210223566  1.0000
  C   C14       1.0  0.5156488578176377  0.3380347493256337  0.6236373981333151  1.0000
  H   H1        1.0  0.5953421676595035  0.21547128527638  0.35532010336187536  1.0000
  H   H2        1.0  0.46687388098050037  0.14166430485979098  0.3307373555013471  1.0000
  H   H3        1.0  0.292181983244533  0.35778059437082643  0.5458293413741688  1.0000
  H   H4        1.0  0.1422354303516573  0.058639349117512105  0.4537147724185822  1.0000
  H   H5        1.0  0.2508511931209537  0.9142616637705424  0.4083271460232352  1.0000
  H   H6        1.0  0.37987159395803477  0.9875799161870867  0.4325151627404863  1.0000
  H   H7        1.0  0.4007532483182948  0.3175414189958103  0.6834097249732036  1.0000
  H   H8        1.0  0.529085297694925  0.3929184926656801  0.7055002345238462  1.0000
  C   C15       1.0  0.901731945967615  0.9976625367924233  0.5539860182778185  1.0000
  C   C16       1.0  0.8888860234753397  0.008021703773031906  0.41924964278453336  1.0000
  C   C17       1.0  0.8823000991154956  0.8961398289075841  0.350818805204719  1.0000
  C   C18       1.0  0.8887063628244875  0.7727705629276502  0.41894449233742176  1.0000
  C   C19       1.0  0.9015641323621125  0.760455570285773  0.553762284438241  1.0000
  C   C20       1.0  0.9080011090434746  0.8734226973198569  0.6204530037325897  1.0000
  C   C21       1.0  0.868711591653097  0.9080722020910298  0.20828397567121473  1.0000
  C   C22       1.0  0.9068041511038889  0.0004083038702489235  0.1263084128031469  1.0000
  C   C23       1.0  0.8940226519635627  0.011506283009118807  0.9921735496539767  1.0000
  C   C24       1.0  0.843360145440181  0.9295855936573322  0.9371657299074097  1.0000
  C   C25       1.0  0.8043499081939458  0.8391092906973906  0.01908658324199731  1.0000
  C   C26       1.0  0.8171587662469982  0.8277540095486289  0.15318371009769316  1.0000
  N   N3        1.0  0.828160684610964  0.9405981717566535  0.7998279896130037  1.0000
  C   C27       1.0  0.8830068748799107  0.974972200685538  0.7008068186839657  1.0000
  O   O1        1.0  0.9519300579904421  0.9742299265230241  0.7276549729832352  1.0000
  C   C28       1.0  0.8590269067672888  0.002606985899191724  0.5626189382830176  1.0000
  H   H9        1.0  0.9066963560110866  0.3211530420194071  0.6058053555341386  1.0000
  H   H10       1.0  0.8829372714638499  0.10336801852600863  0.36752739814863045  1.0000
  H   H11       1.0  0.8846601205348832  0.6861828463461308  0.3663755563759883  1.0000
  H   H12       1.0  0.9179119665639278  0.8647174705596297  0.724377503298014  1.0000
  H   H13       1.0  0.9262823443768765  0.5299070798176444  0.8080864039864524  1.0000
  H   H14       1.0  0.9469244329070663  0.06354046414659487  0.16581256204111883  1.0000
  H   H15       1.0  0.9228381157471874  0.08561859092796407  0.932171029335438  1.0000
  H   H16       1.0  0.7641574473578109  0.7766849244066718  0.9787164594090454  1.0000
  H   H17       1.0  0.7859293461082043  0.7573721342881683  0.21405455387882635  1.0000
  H   H18       1.0  0.7752435439508428  0.9142488669327801  0.7695302336962668  1.0000
  H   H19       1.0  0.8047959562687835  0.05862426561370658  0.5589601346461662  1.0000
  H   H20       1.0  0.8520707842756786  0.9093438537172241  0.517497000966129  1.0000
  H   H21       1.0  0.9017898560702032  0.06069241252074464  0.506597129592715  1.0000
  C   C29       1.0  0.901612245577876  0.3791670577068127  0.1725053844559563  1.0000
  C   C30       1.0  0.9697395780704082  0.4448268124046697  0.16515878052087699  1.0000
  C   C31       1.0  0.004296910657451527  0.4779872386663632  0.0443053544602654  1.0000
  C   C32       1.0  0.9698120960388557  0.44460819712564326  0.9298880052143286  1.0000
  C   C33       1.0  0.9016837970483313  0.37895104831596094  0.9352429665948151  1.0000
  C   C34       1.0  0.8679657332100444  0.3465973119312471  0.057013968874297896  1.0000
  C   C35       1.0  0.07637044693439377  0.5474483645059353  0.03758700064688437  1.0000
  C   C36       1.0  0.08822137078162973  0.6498998087665129  0.11718486854720192  1.0000
  C   C37       1.0  0.15609254541262674  0.7151760534144959  0.11067356013803643  1.0000
  C   C38       1.0  0.21288287908881776  0.6790114329483983  0.02486308958403472  1.0000
  C   C39       1.0  0.20174897779062628  0.5773855426032228  0.9453832531846404  1.0000
  C   C40       1.0  0.13394518576128656  0.5119057675273525  0.9515180021942933  1.0000
  Cl  Cl1       1.0  0.29799245592644774  0.7610350295448511  0.016930586660354408  1.0000
  H   H22       1.0  0.875632487250229  0.3542056530322588  0.502754020412105  1.0000
  H   H23       1.0  0.9966130722865941  0.4687547543979449  0.25373825036951314  1.0000
  H   H24       1.0  0.9956953314730542  0.471524870933075  0.8363907449278627  1.0000
  H   H25       1.0  0.8154081753633438  0.2959449752446097  0.06191333950637601  1.0000
  H   H26       1.0  0.8757381088162809  0.3538860518999612  0.6098333809152563  1.0000
  H   H27       1.0  0.04466248490910796  0.6806193557603437  0.1831887159352912  1.0000
  H   H28       1.0  0.1643820689261586  0.7940632724172152  0.17216217746216136  1.0000
  H   H29       1.0  0.24565023489232682  0.5487970830717812  0.8790301761409133  1.0000
  H   H30       1.0  0.1269027342547302  0.4324191315574279  0.8902308028159879  1.0000
  Zn  Zn1       1.0  0.8193281495592449  0.38296161528592454  0.555082536599022  1.0000
  Zn  Zn2       1.0  0.9839607099248319  0.3751561751978436  0.5526652907806411  1.0000
  C   C41       1.0  0.9016697418103679  0.3738178116951032  0.7910707470833528  1.0000
  C   C42       1.0  0.9016209151075276  0.38430153227695524  0.31667718088583796  1.0000
  C   C43       1.0  0.9015914793909339  0.6162730721315024  0.5486294748498178  1.0000
  C   C44       1.0  0.9016991216992187  0.14184471404853172  0.5591185236404708  1.0000
  O   O2        1.0  0.9641010245965704  0.38305691878626974  0.3641452222646713  1.0000
  O   O3        1.0  0.9641419364811784  0.3691372970642228  0.7417676985010964  1.0000
  O   O4        1.0  0.964077896491895  0.5649230256802397  0.5459946678304726  1.0000
  O   O5        1.0  0.9641650083967327  0.1872712021523173  0.5599181563827806  1.0000
  O   O6        1.0  0.8391237949063299  0.5708465909964805  0.5478296718149386  1.0000
  O   O7        1.0  0.8391878345423425  0.3750624228375168  0.7436026327825205  1.0000
  O   O8        1.0  0.839146922571166  0.3889819997396217  0.365978595158522  1.0000
  O   O9        1.0  0.8392109063794351  0.19319627378863455  0.5617516266472024  1.0000
