data_image0
_chemical_formula_structural       NC5N2C2NH4C6ClH5C6IH2Zn2C4O8
_chemical_formula_sum              "N4 C23 H11 Cl1 I1 Zn2 O8"
_cell_length_a       13.87973921873968
_cell_length_b       9.276545438789551
_cell_length_c       9.275433903346869
_cell_angle_alpha    86.20108945286073
_cell_angle_beta     89.96562650524481
_cell_angle_gamma    89.40960813042831

_space_group_name_H-M_alt    "P 1"
_space_group_IT_number       1

loop_
  _space_group_symop_operation_xyz
  'x, y, z'

loop_
  _atom_site_type_symbol
  _atom_site_label
  _atom_site_symmetry_multiplicity
  _atom_site_fract_x
  _atom_site_fract_y
  _atom_site_fract_z
  _atom_site_occupancy
  N   N1        1.0  0.8971191984768428  0.5611633938041818  0.4114585137782185  1.0000
  C   C1        1.0  0.8238679404968311  0.5850938554896417  0.35485464809346506  1.0000
  C   C2        1.0  0.7328925375383898  0.6148178223899006  0.2845465299663932  1.0000
  C   C3        1.0  0.6466295159549793  0.584903720360783  0.35770069640636715  1.0000
  C   C4        1.0  0.560013136811661  0.6148177581942933  0.28454656981724824  1.0000
  C   C5        1.0  0.46939081980544833  0.5850937097108431  0.35485454481867285  1.0000
  N   N2        1.0  0.39642376750440794  0.5611633690673705  0.4114585027743143  1.0000
  N   N3        1.0  0.5613133683733701  0.671975852242898  0.14587417616616816  1.0000
  C   C6        1.0  0.6459366971649269  0.7018587442024857  0.07676181188110731  1.0000
  C   C7        1.0  0.6455929602702182  0.760732687056471  0.9231027500112421  1.0000
  N   N4        1.0  0.7309162673510968  0.671975805699762  0.14587418688591813  1.0000
  H   H1        1.0  0.6469001686442797  0.5391665144897808  0.46836370901744034  1.0000
  H   H2        1.0  0.7101381203562842  0.8283574142769524  0.9007545531059645  1.0000
  H   H3        1.0  0.6462474123735299  0.6700341166292504  0.8508551120852843  1.0000
  H   H4        1.0  0.5801333146065903  0.8283553426829058  0.9007537861526962  1.0000
  C   C8        1.0  0.14968394748269698  0.13772570226055847  0.41122097500069  1.0000
  C   C9        1.0  0.15010245315498483  0.21996261483186408  0.27821875456584205  1.0000
  C   C10       1.0  0.14175444276626425  0.15349945622679062  0.14811135101139072  1.0000
  C   C11       1.0  0.1327898107137242  0.003917813583556471  0.14900449741273067  1.0000
  C   C12       1.0  0.13385872379300512  0.9201165213730788  0.2795654604359368  1.0000
  C   C13       1.0  0.14386832258202875  0.9845901157906239  0.41170852338642994  1.0000
  Cl  Cl1       1.0  0.141074525031881  0.2583712183583249  0.983602585446912  1.0000
  H   H5        1.0  0.1988670250242206  0.40309421375523824  0.6377714040642957  1.0000
  H   H6        1.0  0.1546180634980725  0.3366528372840265  0.2753658057955237  1.0000
  H   H7        1.0  0.1259099421473442  0.952125649723837  0.04834564110531514  1.0000
  H   H8        1.0  0.12914959657331737  0.8038278748410844  0.2769157307134913  1.0000
  H   H9        1.0  0.11147690854776338  0.6883327495683397  0.6447186912629592  1.0000
  C   C14       1.0  0.14697613648517824  0.5566573419885782  0.9883098240166482  1.0000
  C   C15       1.0  0.23574440947782113  0.5539578608482252  0.06176313291559965  1.0000
  C   C16       1.0  0.3224664501889578  0.5645457957404096  0.9856504847548688  1.0000
  C   C17       1.0  0.3218081965428692  0.5781698557716153  0.8351126844347102  1.0000
  C   C18       1.0  0.23468729487254758  0.5786897757217572  0.7601375992864732  1.0000
  C   C19       1.0  0.1465761006016828  0.5656583902437835  0.8346196293180322  1.0000
  I   I1        1.0  0.45444892497821976  0.5626315961011799  0.09843377250011875  1.0000
  H   H10       1.0  0.9167233974379642  0.6420831102556086  0.08584862003518534  1.0000
  H   H11       1.0  0.38894267280739747  0.5869843504770995  0.7759068252994612  1.0000
  Zn  Zn1       1.0  0.041207735184147776  0.5611596111810613  0.41146683241529275  1.0000
  Zn  Zn2       1.0  0.2523352919577311  0.561155465561443  0.4114619899229066  1.0000
  C   C20       1.0  0.14668902138486994  0.5582126486632788  0.6746456729907766  1.0000
  C   C21       1.0  0.1468562987023645  0.5641042489139365  0.148283291774701  1.0000
  C   C22       1.0  0.14496533576106252  0.8244536094696326  0.4058741484147572  1.0000
  C   C23       1.0  0.1485799241437773  0.2978615565064926  0.4170548921800281  1.0000
  O   O1        1.0  0.22693793074293733  0.5665956349359018  0.20197000760781503  1.0000
  O   O2        1.0  0.22684832744257788  0.5557170240044648  0.6209548663839823  1.0000
  O   O3        1.0  0.22545534871386308  0.7707099828891932  0.40391995957363863  1.0000
  O   O4        1.0  0.22833083740835192  0.35160268521849325  0.41900480638188986  1.0000
  O   O5        1.0  0.06521211768604651  0.770712391526915  0.4039240159503832  1.0000
  O   O6        1.0  0.06660508454967529  0.5557211642461801  0.6209588469254927  1.0000
  O   O7        1.0  0.06669468907807374  0.566599706503325  0.20197225563944632  1.0000
  O   O8        1.0  0.06808759575930812  0.3516067476215002  0.4190071624438638  1.0000
