data_image0
_chemical_formula_structural       NC10NC2NH7C10ClC2H9C6OCH8Zn2C4O8
_chemical_formula_sum              "N3 C35 H24 Cl1 O9 Zn2"
_cell_length_a       18.145345255705053
_cell_length_b       10.299769246903262
_cell_length_c       10.300312196595936
_cell_angle_alpha    85.56019818288829
_cell_angle_beta     90.5467156286432
_cell_angle_gamma    91.04743572132524

_space_group_name_H-M_alt    "P 1"
_space_group_IT_number       1

loop_
  _space_group_symop_operation_xyz
  'x, y, z'

loop_
  _atom_site_type_symbol
  _atom_site_label
  _atom_site_symmetry_multiplicity
  _atom_site_fract_x
  _atom_site_fract_y
  _atom_site_fract_z
  _atom_site_occupancy
  N   N1        1.0  0.6942583759564812  0.4425611262771684  0.57755853976113  1.0000
  C   C1        1.0  0.6362672352179268  0.39950572756403807  0.557622161218134  1.0000
  C   C2        1.0  0.5642072315036448  0.3460300857910356  0.5328603682378985  1.0000
  C   C3        1.0  0.5501869432828698  0.22903065631258987  0.48014027602531134  1.0000
  C   C4        1.0  0.47442567105519423  0.2152419114749739  0.4742533484966467  1.0000
  C   C5        1.0  0.44560087688567007  0.32506445855932387  0.5236569770124602  1.0000
  C   C6        1.0  0.3660983114783952  0.3528073897046171  0.5364476915694512  1.0000
  C   C7        1.0  0.31296009002640507  0.251308172924044  0.5394280039021084  1.0000
  C   C8        1.0  0.23812343709865738  0.277631902332921  0.5515404835183855  1.0000
  C   C9        1.0  0.21528671666075697  0.40557242107956903  0.5606514491741084  1.0000
  C   C10       1.0  0.1382190438309577  0.43255439046075517  0.5730470038692004  1.0000
  N   N2        1.0  0.0762629712130353  0.4542457554063224  0.5830120287630605  1.0000
  C   C11       1.0  0.26759252049998217  0.5072175886898483  0.5575789943152565  1.0000
  C   C12       1.0  0.34247585615743276  0.48116044398097807  0.5455794781544281  1.0000
  N   N3        1.0  0.5010002776136756  0.4044725022841748  0.5592511529631248  1.0000
  H   H1        1.0  0.5902754615798644  0.16144498356706435  0.4493754022117165  1.0000
  H   H2        1.0  0.4442560517575878  0.13457415017596208  0.43658843829130395  1.0000
  H   H3        1.0  0.32905188150251924  0.15126021540024737  0.5340474087205984  1.0000
  H   H4        1.0  0.19810495383987786  0.19811705474068494  0.5540756828081432  1.0000
  H   H5        1.0  0.2504961307746912  0.6067361777686482  0.5640821635848066  1.0000
  H   H6        1.0  0.38147584809440027  0.562012652367675  0.5416128094039907  1.0000
  H   H7        1.0  0.4965861036844461  0.49296393259067206  0.6014020973642837  1.0000
  C   C13       1.0  0.8851948987967334  0.06703627253523115  0.5802791196200141  1.0000
  C   C14       1.0  0.8919948249271502  0.07679596832859392  0.4441776803647684  1.0000
  C   C15       1.0  0.8955108559882504  0.9646040128929344  0.3752256338182369  1.0000
  C   C16       1.0  0.8921347477854271  0.8415120900926573  0.44420161971920935  1.0000
  C   C17       1.0  0.8853335297159838  0.8297607487721413  0.5803027657658155  1.0000
  C   C18       1.0  0.8819018859593539  0.9430810200244537  0.6475793571422053  1.0000
  C   C19       1.0  0.9027058858211412  0.9759819946624052  0.23124179334856995  1.0000
  C   C20       1.0  0.9504934663462271  0.8945035316432923  0.16944061823070977  1.0000
  C   C21       1.0  0.957200013551372  0.9054066074055567  0.0339086198937506  1.0000
  C   C22       1.0  0.9163332075763626  0.99753168595026  0.9585269740986262  1.0000
  Cl  Cl1       1.0  0.9248287488148432  0.010966389241472417  0.7885012244185843  1.0000
  C   C23       1.0  0.8686859727864431  0.07893464249352711  0.018839344917940034  1.0000
  C   C24       1.0  0.8618486915234022  0.06842016461516809  0.1543491874707239  1.0000
  H   H8        1.0  0.8825756127271354  0.3907701959261487  0.6321367790163952  1.0000
  H   H9        1.0  0.8955881942528553  0.17190954009398718  0.3916441399506321  1.0000
  H   H10       1.0  0.8938078504475768  0.7547274316420064  0.3913410048319061  1.0000
  H   H11       1.0  0.8766558052048845  0.9347837742126897  0.7525752786763036  1.0000
  H   H12       1.0  0.8827767824477832  0.4978299777705241  0.6321703766862734  1.0000
  H   H13       1.0  0.9833652374100303  0.8235696822239604  0.22601066401263156  1.0000
  H   H14       1.0  0.9943252798890013  0.8423922158806959  0.9876542403336481  1.0000
  H   H15       1.0  0.8367707996542968  0.15018771438771772  0.9608306390737638  1.0000
  H   H16       1.0  0.8239256574453967  0.13136605686923297  0.19886707579217242  1.0000
  C   C25       1.0  0.8852433825207192  0.4484120917961462  0.19894854927675443  1.0000
  C   C26       1.0  0.8130449357839181  0.49560989252182575  0.19302717877683118  1.0000
  C   C27       1.0  0.7767163124563612  0.5193588504233604  0.07246832986833396  1.0000
  C   C28       1.0  0.813130120755553  0.49555429612499147  0.9578867206700798  1.0000
  C   C29       1.0  0.8852850312014532  0.4483849617247819  0.9616333919004059  1.0000
  C   C30       1.0  0.9209662322651815  0.42505918697214784  0.08270427663662949  1.0000
  O   O1        1.0  0.704649986310888  0.5664705059466031  0.062256021616815094  1.0000
  C   C31       1.0  0.6608695898106437  0.5950910831316669  0.17008332128214132  1.0000
  H   H17       1.0  0.9127531561619229  0.4304292958440721  0.5286343888251634  1.0000
  H   H18       1.0  0.7853277134070857  0.513729267724071  0.2821552201772075  1.0000
  H   H19       1.0  0.7845841552011058  0.5142155934504928  0.8656913347774778  1.0000
  H   H20       1.0  0.9766386603043545  0.38866487251341875  0.08646663899029061  1.0000
  H   H21       1.0  0.9125916403621606  0.43053444026754145  0.6356422452053283  1.0000
  H   H22       1.0  0.6519029233243931  0.5058397005854534  0.23605692644636747  1.0000
  H   H23       1.0  0.6065523930594698  0.630599506129631  0.1337271047491171  1.0000
  H   H24       1.0  0.6881887636109267  0.6723452378784722  0.22377764450287405  1.0000
  Zn  Zn1       1.0  0.8044966540104939  0.4459295666050771  0.5791398044721199  1.0000
  Zn  Zn2       1.0  0.9660246913128505  0.4508666384294819  0.5814414233332381  1.0000
  C   C32       1.0  0.8852745644366267  0.44321637708924366  0.8174694285388029  1.0000
  C   C33       1.0  0.8852485450725962  0.45358152046584527  0.3431119519086423  1.0000
  C   C34       1.0  0.8853032283507017  0.685589674753607  0.575123462522898  1.0000
  C   C35       1.0  0.8852198257605284  0.21120666081860695  0.5854579863245291  1.0000
  O   O2        1.0  0.9465493249883716  0.45718435526174694  0.3923679589677085  1.0000
  O   O3        1.0  0.9465698271305258  0.44335968586709695  0.7699599230890084  1.0000
  O   O4        1.0  0.9465921473368716  0.6390791636547998  0.5742638291604576  1.0000
  O   O5        1.0  0.9465269496598211  0.2614648850830017  0.5880639547432602  1.0000
  O   O6        1.0  0.8239943405419315  0.6353313182681914  0.572517272269838  1.0000
  O   O7        1.0  0.823972020611987  0.43961340077999705  0.7682132970061466  1.0000
  O   O8        1.0  0.8239515184253955  0.4534380249759331  0.39061977159195554  1.0000
  O   O9        1.0  0.8239291430974581  0.25771854550486384  0.5863158647282467  1.0000
